MODEL        1
REMARK 921   NORMALIZED FREE ENERGY PREDICTED BY IDOCK:   -8.16 KCAL/MOL
REMARK 922        TOTAL FREE ENERGY PREDICTED BY IDOCK:  -12.20 KCAL/MOL
REMARK 923 INTER-LIGAND FREE ENERGY PREDICTED BY IDOCK:  -11.02 KCAL/MOL
REMARK 924 INTRA-LIGAND FREE ENERGY PREDICTED BY IDOCK:   -1.19 KCAL/MOL
REMARK 927      BINDING AFFINITY PREDICTED BY RF-SCORE:    0.00 PKD
ROOT
HETATM    1  O   UNL     1     -11.594   9.724  67.980  1.00  0.00    -0.535 OA 
HETATM    2  C   UNL     1     -10.598  10.553  68.596  1.00  0.00    -0.200 C  
HETATM    3  H   UNL     1     -11.955   9.127  68.625  1.00  0.00     0.000 HD 
ENDROOT
BRANCH   2   4
HETATM    4  C   UNL     1     -11.209  11.288  69.811  1.00  0.00    -0.220 C  
HETATM    5  C   UNL     1     -13.686  14.991  72.051  1.00  0.00    -0.446 A  
HETATM    6  C   UNL     1     -12.978  15.569  71.005  1.00  0.00    -0.550 A  
HETATM    7  C   UNL     1     -12.470  10.600  70.342  1.00  0.00    -0.421 C  
HETATM    8  C   UNL     1     -12.921  11.308  71.607  1.00  0.00    -0.537 C  
HETATM    9  F   UNL     1     -14.400  15.770  72.876  1.00  0.00    -0.611 F  
HETATM   10  C   UNL     1     -12.239  14.753  70.145  1.00  0.00    -0.391 A  
HETATM   11  O   UNL     1     -11.477  12.652  69.438  1.00  0.00    -0.276 OA 
HETATM   12  C   UNL     1     -12.937  12.792  71.390  1.00  0.00    -0.359 A  
HETATM   13  C   UNL     1     -12.209  13.373  70.343  1.00  0.00    -0.345 A  
HETATM   14  C   UNL     1     -13.670  13.616  72.255  1.00  0.00    -0.687 A  
ENDBRANCH   2   4
BRANCH   2  15
HETATM   15  C   UNL     1     -10.013  11.523  67.549  1.00  0.00    -0.190 C  
BRANCH  15  16
HETATM   16  N   UNL     1     -11.044  12.035  66.629  1.00  0.00    -0.294 NA 
HETATM   17  H   UNL     1     -11.766  12.566  67.115  1.00  0.00     0.000 HD 
BRANCH  16  18
HETATM   18  C   UNL     1     -10.395  12.817  65.561  1.00  0.00    -0.284 C  
BRANCH  18  19
HETATM   19  C   UNL     1     -11.054  14.202  65.400  1.00  0.00    -0.321 C  
HETATM   20  H   UNL     1     -12.479  15.205  66.306  1.00  0.00     0.000 HD 
HETATM   21  O   UNL     1     -12.073  14.352  66.406  1.00  0.00    -0.414 OA 
BRANCH  19  22
HETATM   22  C   UNL     1     -10.040  15.363  65.525  1.00  0.00    -0.373 C  
HETATM   23  C   UNL     1      -7.984  16.225  66.612  1.00  0.00    -0.324 C  
HETATM   24  C   UNL     1      -9.006  15.102  66.621  1.00  0.00    -0.319 C  
HETATM   25  C   UNL     1      -8.683  17.551  66.576  1.00  0.00    -0.290 A  
HETATM   26  C   UNL     1     -10.016  17.654  66.154  1.00  0.00    -0.272 A  
HETATM   27  O   UNL     1     -10.778  16.577  65.780  1.00  0.00    -0.310 OA 
HETATM   28  C   UNL     1     -10.658  18.895  66.138  1.00  0.00    -0.476 A  
HETATM   29  C   UNL     1      -9.968  20.044  66.523  1.00  0.00    -0.603 A  
HETATM   30  C   UNL     1      -8.642  19.942  66.925  1.00  0.00    -0.332 A  
HETATM   31  F   UNL     1      -7.976  21.043  67.298  1.00  0.00    -0.385 F  
HETATM   32  C   UNL     1      -7.994  18.712  66.953  1.00  0.00    -0.250 A  
ENDBRANCH  19  22
ENDBRANCH  18  19
ENDBRANCH  16  18
ENDBRANCH  15  16
ENDBRANCH   2  15
TORSDOF 6
ENDMDL
MODEL        2
REMARK 921   NORMALIZED FREE ENERGY PREDICTED BY IDOCK:   -8.11 KCAL/MOL
REMARK 922        TOTAL FREE ENERGY PREDICTED BY IDOCK:  -12.14 KCAL/MOL
REMARK 923 INTER-LIGAND FREE ENERGY PREDICTED BY IDOCK:  -10.53 KCAL/MOL
REMARK 924 INTRA-LIGAND FREE ENERGY PREDICTED BY IDOCK:   -1.61 KCAL/MOL
REMARK 927      BINDING AFFINITY PREDICTED BY RF-SCORE:    0.00 PKD
ROOT
HETATM    1  O   UNL     1     -10.422  10.884  62.628  1.00  0.00    -0.760 OA 
HETATM    2  C   UNL     1     -10.677  11.934  63.572  1.00  0.00    -0.442 C  
HETATM    3  H   UNL     1      -9.504  10.642  62.661  1.00  0.00     0.000 HD 
ENDROOT
BRANCH   2   4
HETATM    4  C   UNL     1     -10.231  11.486  64.983  1.00  0.00    -0.280 C  
HETATM    5  C   UNL     1     -10.912  10.555  69.834  1.00  0.00    -0.298 A  
HETATM    6  C   UNL     1     -11.713  11.647  69.528  1.00  0.00    -0.410 A  
HETATM    7  C   UNL     1     -10.031   9.971  65.084  1.00  0.00    -0.350 C  
HETATM    8  C   UNL     1      -9.467   9.640  66.454  1.00  0.00    -0.244 C  
HETATM    9  F   UNL     1     -10.844  10.119  71.100  1.00  0.00    -0.373 F  
HETATM   10  C   UNL     1     -11.784  12.096  68.207  1.00  0.00    -0.401 A  
HETATM   11  O   UNL     1     -11.199  11.950  65.941  1.00  0.00    -0.323 OA 
HETATM   12  C   UNL     1     -10.254  10.344  67.519  1.00  0.00    -0.251 A  
HETATM   13  C   UNL     1     -11.050  11.455  67.210  1.00  0.00    -0.303 A  
HETATM   14  C   UNL     1     -10.180   9.903  68.848  1.00  0.00    -0.209 A  
ENDBRANCH   2   4
BRANCH   2  15
HETATM   15  C   UNL     1     -12.167  12.327  63.518  1.00  0.00    -0.568 C  
BRANCH  15  16
HETATM   16  N   UNL     1     -12.357  13.735  63.126  1.00  0.00    -1.106 NA 
HETATM   17  H   UNL     1     -13.167  13.862  62.520  1.00  0.00     0.000 HD 
BRANCH  16  18
HETATM   18  C   UNL     1     -12.427  14.570  64.338  1.00  0.00    -0.309 C  
BRANCH  18  19
HETATM   19  C   UNL     1     -11.206  15.505  64.448  1.00  0.00    -0.219 C  
HETATM   20  H   UNL     1     -10.826  17.390  64.045  1.00  0.00     0.000 HD 
HETATM   21  O   UNL     1     -11.578  16.814  63.977  1.00  0.00    -1.195 OA 
BRANCH  19  22
HETATM   22  C   UNL     1     -10.669  15.618  65.894  1.00  0.00    -0.329 C  
HETATM   23  C   UNL     1      -9.758  17.091  67.669  1.00  0.00    -0.257 C  
HETATM   24  C   UNL     1     -10.165  17.026  66.208  1.00  0.00    -0.336 C  
HETATM   25  C   UNL     1      -8.888  15.917  68.009  1.00  0.00    -0.178 A  
HETATM   26  C   UNL     1      -8.880  14.767  67.207  1.00  0.00    -0.204 A  
HETATM   27  O   UNL     1      -9.622  14.638  66.061  1.00  0.00    -0.304 OA 
HETATM   28  C   UNL     1      -8.055  13.687  67.529  1.00  0.00    -0.190 A  
HETATM   29  C   UNL     1      -7.248  13.738  68.665  1.00  0.00    -0.109 A  
HETATM   30  C   UNL     1      -7.270  14.872  69.467  1.00  0.00    -0.184 A  
HETATM   31  F   UNL     1      -6.494  14.925  70.559  1.00  0.00    -0.164 F  
HETATM   32  C   UNL     1      -8.081  15.957  69.154  1.00  0.00    -0.239 A  
ENDBRANCH  19  22
ENDBRANCH  18  19
ENDBRANCH  16  18
ENDBRANCH  15  16
ENDBRANCH   2  15
TORSDOF 6
ENDMDL
MODEL        3
REMARK 921   NORMALIZED FREE ENERGY PREDICTED BY IDOCK:   -8.08 KCAL/MOL
REMARK 922        TOTAL FREE ENERGY PREDICTED BY IDOCK:  -12.11 KCAL/MOL
REMARK 923 INTER-LIGAND FREE ENERGY PREDICTED BY IDOCK:  -11.20 KCAL/MOL
REMARK 924 INTRA-LIGAND FREE ENERGY PREDICTED BY IDOCK:   -0.90 KCAL/MOL
REMARK 927      BINDING AFFINITY PREDICTED BY RF-SCORE:    0.00 PKD
ROOT
HETATM    1  O   UNL     1     -12.207  15.319  63.920  1.00  0.00    -0.964 OA 
HETATM    2  C   UNL     1     -11.348  14.908  64.993  1.00  0.00    -0.398 C  
HETATM    3  H   UNL     1     -12.566  16.177  64.111  1.00  0.00     0.000 HD 
ENDROOT
BRANCH   2   4
HETATM    4  C   UNL     1     -10.251  15.973  65.221  1.00  0.00    -0.211 C  
HETATM    5  C   UNL     1      -8.410  20.205  67.110  1.00  0.00    -0.337 A  
HETATM    6  C   UNL     1      -9.752  20.444  66.849  1.00  0.00    -0.567 A  
HETATM    7  C   UNL     1      -9.146  15.488  66.165  1.00  0.00    -0.359 C  
HETATM    8  C   UNL     1      -8.053  16.540  66.223  1.00  0.00    -0.341 C  
HETATM    9  F   UNL     1      -7.638  21.200  67.569  1.00  0.00    -0.381 F  
HETATM   10  C   UNL     1     -10.554  19.402  66.374  1.00  0.00    -0.558 A  
HETATM   11  O   UNL     1     -10.870  17.174  65.716  1.00  0.00    -0.214 OA 
HETATM   12  C   UNL     1      -8.653  17.897  66.439  1.00  0.00    -0.254 A  
HETATM   13  C   UNL     1     -10.004  18.138  66.160  1.00  0.00    -0.299 A  
HETATM   14  C   UNL     1      -7.852  18.947  66.908  1.00  0.00    -0.256 A  
ENDBRANCH   2   4
BRANCH   2  15
HETATM   15  C   UNL     1     -10.764  13.514  64.683  1.00  0.00    -0.416 C  
BRANCH  15  16
HETATM   16  N   UNL     1     -11.352  12.464  65.534  1.00  0.00    -0.332 NA 
HETATM   17  H   UNL     1     -11.812  11.735  64.988  1.00  0.00     0.000 HD 
BRANCH  16  18
HETATM   18  C   UNL     1     -10.311  11.923  66.426  1.00  0.00    -0.219 C  
BRANCH  18  19
HETATM   19  C   UNL     1     -10.883  11.584  67.817  1.00  0.00    -0.221 C  
HETATM   20  H   UNL     1     -10.156  10.961  69.532  1.00  0.00     0.000 HD 
HETATM   21  O   UNL     1      -9.804  11.170  68.675  1.00  0.00    -0.191 OA 
BRANCH  19  22
HETATM   22  C   UNL     1     -11.621  12.778  68.466  1.00  0.00    -0.321 C  
HETATM   23  C   UNL     1     -11.561  15.183  69.072  1.00  0.00    -0.350 C  
HETATM   24  C   UNL     1     -10.741  14.027  68.527  1.00  0.00    -0.266 C  
HETATM   25  C   UNL     1     -12.294  14.750  70.307  1.00  0.00    -0.400 A  
HETATM   26  C   UNL     1     -12.509  13.393  70.583  1.00  0.00    -0.311 A  
HETATM   27  O   UNL     1     -12.052  12.376  69.784  1.00  0.00    -0.285 OA 
HETATM   28  C   UNL     1     -13.182  13.005  71.744  1.00  0.00    -0.486 A  
HETATM   29  C   UNL     1     -13.664  13.971  72.628  1.00  0.00    -0.586 A  
HETATM   30  C   UNL     1     -13.464  15.316  72.344  1.00  0.00    -0.463 A  
HETATM   31  F   UNL     1     -13.924  16.246  73.192  1.00  0.00    -0.679 F  
HETATM   32  C   UNL     1     -12.790  15.714  71.196  1.00  0.00    -0.540 A  
ENDBRANCH  19  22
ENDBRANCH  18  19
ENDBRANCH  16  18
ENDBRANCH  15  16
ENDBRANCH   2  15
TORSDOF 6
ENDMDL
MODEL        4
REMARK 921   NORMALIZED FREE ENERGY PREDICTED BY IDOCK:   -8.00 KCAL/MOL
REMARK 922        TOTAL FREE ENERGY PREDICTED BY IDOCK:  -11.99 KCAL/MOL
REMARK 923 INTER-LIGAND FREE ENERGY PREDICTED BY IDOCK:  -10.47 KCAL/MOL
REMARK 924 INTRA-LIGAND FREE ENERGY PREDICTED BY IDOCK:   -1.53 KCAL/MOL
REMARK 927      BINDING AFFINITY PREDICTED BY RF-SCORE:    0.00 PKD
ROOT
HETATM    1  O   UNL     1     -11.665  16.454  71.498  1.00  0.00    -0.619 OA 
HETATM    2  C   UNL     1     -12.212  15.866  70.309  1.00  0.00    -0.237 C  
HETATM    3  H   UNL     1     -12.324  16.461  72.182  1.00  0.00     0.000 HD 
ENDROOT
BRANCH   2   4
HETATM    4  C   UNL     1     -12.753  14.453  70.627  1.00  0.00    -0.357 C  
HETATM    5  C   UNL     1     -12.383   9.511  71.182  1.00  0.00    -0.326 A  
HETATM    6  C   UNL     1     -11.527   9.855  70.143  1.00  0.00    -0.309 A  
HETATM    7  C   UNL     1     -13.012  14.245  72.122  1.00  0.00    -0.456 C  
HETATM    8  C   UNL     1     -13.664  12.888  72.324  1.00  0.00    -0.553 C  
HETATM    9  F   UNL     1     -12.538   8.221  71.512  1.00  0.00    -0.293 F  
HETATM   10  C   UNL     1     -11.365  11.201  69.805  1.00  0.00    -0.354 A  
HETATM   11  O   UNL     1     -11.825  13.478  70.117  1.00  0.00    -0.307 OA 
HETATM   12  C   UNL     1     -12.915  11.837  71.559  1.00  0.00    -0.446 A  
HETATM   13  C   UNL     1     -12.064  12.186  70.502  1.00  0.00    -0.293 A  
HETATM   14  C   UNL     1     -13.079  10.485  71.889  1.00  0.00    -0.567 A  
ENDBRANCH   2   4
BRANCH   2  15
HETATM   15  C   UNL     1     -11.142  15.855  69.198  1.00  0.00    -0.302 C  
BRANCH  15  16
HETATM   16  N   UNL     1     -11.717  15.548  67.876  1.00  0.00    -0.313 NA 
HETATM   17  H   UNL     1     -12.697  15.822  67.808  1.00  0.00     0.000 HD 
BRANCH  16  18
HETATM   18  C   UNL     1     -10.887  16.172  66.830  1.00  0.00    -0.175 C  
BRANCH  18  19
HETATM   19  C   UNL     1     -11.404  15.824  65.420  1.00  0.00    -0.032 C  
HETATM   20  H   UNL     1     -11.358  16.669  63.647  1.00  0.00     0.000 HD 
HETATM   21  O   UNL     1     -11.040  16.883  64.516  1.00  0.00    -1.054 OA 
BRANCH  19  22
HETATM   22  C   UNL     1     -10.837  14.486  64.891  1.00  0.00    -0.421 C  
HETATM   23  C   UNL     1     -11.227  12.454  63.523  1.00  0.00    -0.540 C  
HETATM   24  C   UNL     1     -11.881  13.696  64.101  1.00  0.00    -0.463 C  
HETATM   25  C   UNL     1     -10.438  11.750  64.587  1.00  0.00    -0.347 A  
HETATM   26  C   UNL     1     -10.038  12.420  65.752  1.00  0.00    -0.253 A  
HETATM   27  O   UNL     1     -10.352  13.727  66.020  1.00  0.00    -0.293 OA 
HETATM   28  C   UNL     1      -9.315  11.747  66.741  1.00  0.00    -0.199 A  
HETATM   29  C   UNL     1      -8.970  10.407  66.564  1.00  0.00    -0.161 A  
HETATM   30  C   UNL     1      -9.353   9.751  65.402  1.00  0.00    -0.252 A  
HETATM   31  F   UNL     1      -9.024   8.463  65.230  1.00  0.00    -0.201 F  
HETATM   32  C   UNL     1     -10.079  10.407  64.414  1.00  0.00    -0.342 A  
ENDBRANCH  19  22
ENDBRANCH  18  19
ENDBRANCH  16  18
ENDBRANCH  15  16
ENDBRANCH   2  15
TORSDOF 6
ENDMDL
MODEL        5
REMARK 921   NORMALIZED FREE ENERGY PREDICTED BY IDOCK:   -7.99 KCAL/MOL
REMARK 922        TOTAL FREE ENERGY PREDICTED BY IDOCK:  -11.98 KCAL/MOL
REMARK 923 INTER-LIGAND FREE ENERGY PREDICTED BY IDOCK:  -10.76 KCAL/MOL
REMARK 924 INTRA-LIGAND FREE ENERGY PREDICTED BY IDOCK:   -1.22 KCAL/MOL
REMARK 927      BINDING AFFINITY PREDICTED BY RF-SCORE:    0.00 PKD
ROOT
HETATM    1  O   UNL     1     -11.229  16.693  64.239  1.00  0.00    -1.314 OA 
HETATM    2  C   UNL     1     -11.026  15.811  65.352  1.00  0.00    -0.309 C  
HETATM    3  H   UNL     1     -11.602  17.511  64.543  1.00  0.00     0.000 HD 
ENDROOT
BRANCH   2   4
HETATM    4  C   UNL     1     -10.143  16.507  66.414  1.00  0.00    -0.312 C  
HETATM    5  C   UNL     1      -7.050  20.048  68.077  1.00  0.00    -0.287 A  
HETATM    6  C   UNL     1      -6.729  19.842  66.741  1.00  0.00    -0.220 A  
HETATM    7  C   UNL     1     -10.969  17.222  67.488  1.00  0.00    -0.102 C  
HETATM    8  C   UNL     1     -10.029  17.758  68.554  1.00  0.00    -0.370 C  
HETATM    9  F   UNL     1      -6.327  20.910  68.805  1.00  0.00    -0.349 F  
HETATM   10  C   UNL     1      -7.488  18.945  65.984  1.00  0.00    -0.273 A  
HETATM   11  O   UNL     1      -9.252  17.420  65.747  1.00  0.00    -0.517 OA 
HETATM   12  C   UNL     1      -8.881  18.481  67.914  1.00  0.00    -0.301 A  
HETATM   13  C   UNL     1      -8.551  18.260  66.571  1.00  0.00    -0.266 A  
HETATM   14  C   UNL     1      -8.112  19.376  68.671  1.00  0.00    -0.402 A  
ENDBRANCH   2   4
BRANCH   2  15
HETATM   15  C   UNL     1     -10.419  14.482  64.857  1.00  0.00    -0.409 C  
BRANCH  15  16
HETATM   16  N   UNL     1      -9.413  13.948  65.792  1.00  0.00    -0.512 NA 
HETATM   17  H   UNL     1      -9.268  14.560  66.595  1.00  0.00     0.000 HD 
BRANCH  16  18
HETATM   18  C   UNL     1      -9.797  12.583  66.190  1.00  0.00    -0.258 C  
BRANCH  18  19
HETATM   19  C   UNL     1     -11.241  12.540  66.731  1.00  0.00    -0.296 C  
HETATM   20  H   UNL     1     -12.738  11.270  66.670  1.00  0.00     0.000 HD 
HETATM   21  O   UNL     1     -11.849  11.296  66.337  1.00  0.00    -0.193 OA 
BRANCH  19  22
HETATM   22  C   UNL     1     -11.304  12.673  68.271  1.00  0.00    -0.295 C  
HETATM   23  C   UNL     1     -12.039  11.675  70.419  1.00  0.00    -0.462 C  
HETATM   24  C   UNL     1     -12.111  11.542  68.908  1.00  0.00    -0.270 C  
HETATM   25  C   UNL     1     -12.330  13.091  70.821  1.00  0.00    -0.394 A  
HETATM   26  C   UNL     1     -12.217  14.142  69.901  1.00  0.00    -0.359 A  
HETATM   27  O   UNL     1     -11.871  13.963  68.586  1.00  0.00    -0.335 OA 
HETATM   28  C   UNL     1     -12.505  15.453  70.287  1.00  0.00    -0.413 A  
HETATM   29  C   UNL     1     -12.887  15.727  71.600  1.00  0.00    -0.514 A  
HETATM   30  C   UNL     1     -12.982  14.686  72.515  1.00  0.00    -0.404 A  
HETATM   31  F   UNL     1     -13.351  14.945  73.776  1.00  0.00    -0.423 F  
HETATM   32  C   UNL     1     -12.706  13.376  72.141  1.00  0.00    -0.201 A  
ENDBRANCH  19  22
ENDBRANCH  18  19
ENDBRANCH  16  18
ENDBRANCH  15  16
ENDBRANCH   2  15
TORSDOF 6
ENDMDL
MODEL        6
REMARK 921   NORMALIZED FREE ENERGY PREDICTED BY IDOCK:   -7.91 KCAL/MOL
REMARK 922        TOTAL FREE ENERGY PREDICTED BY IDOCK:  -11.86 KCAL/MOL
REMARK 923 INTER-LIGAND FREE ENERGY PREDICTED BY IDOCK:   -9.93 KCAL/MOL
REMARK 924 INTRA-LIGAND FREE ENERGY PREDICTED BY IDOCK:   -1.94 KCAL/MOL
REMARK 927      BINDING AFFINITY PREDICTED BY RF-SCORE:    0.00 PKD
ROOT
HETATM    1  O   UNL     1      -9.163  15.854  68.915  1.00  0.00    -0.203 OA 
HETATM    2  C   UNL     1     -10.338  16.610  69.241  1.00  0.00    -0.318 C  
HETATM    3  H   UNL     1      -8.837  15.420  69.694  1.00  0.00     0.000 HD 
ENDROOT
BRANCH   2   4
HETATM    4  C   UNL     1     -11.392  15.682  69.888  1.00  0.00    -0.337 C  
HETATM    5  C   UNL     1     -13.095  11.330  71.628  1.00  0.00    -0.408 A  
HETATM    6  C   UNL     1     -12.283  11.028  70.542  1.00  0.00    -0.472 A  
HETATM    7  C   UNL     1     -11.563  15.943  71.388  1.00  0.00    -0.529 C  
HETATM    8  C   UNL     1     -12.704  15.087  71.908  1.00  0.00    -0.407 C  
HETATM    9  F   UNL     1     -13.747  10.344  72.260  1.00  0.00    -0.442 F  
HETATM   10  C   UNL     1     -11.601  12.058  69.889  1.00  0.00    -0.315 A  
HETATM   11  O   UNL     1     -11.020  14.315  69.636  1.00  0.00    -0.214 OA 
HETATM   12  C   UNL     1     -12.551  13.675  71.426  1.00  0.00    -0.415 A  
HETATM   13  C   UNL     1     -11.743  13.376  70.322  1.00  0.00    -0.159 A  
HETATM   14  C   UNL     1     -13.239  12.639  72.074  1.00  0.00    -0.531 A  
ENDBRANCH   2   4
BRANCH   2  15
HETATM   15  C   UNL     1     -10.868  17.315  67.975  1.00  0.00    -0.297 C  
BRANCH  15  16
HETATM   16  N   UNL     1      -9.776  17.822  67.124  1.00  0.00    -0.279 NA 
HETATM   17  H   UNL     1      -8.906  17.941  67.642  1.00  0.00     0.000 HD 
BRANCH  16  18
HETATM   18  C   UNL     1      -9.618  16.935  65.958  1.00  0.00    -0.209 C  
BRANCH  18  19
HETATM   19  C   UNL     1     -10.960  16.293  65.554  1.00  0.00    -0.149 C  
HETATM   20  H   UNL     1     -12.205  16.451  64.042  1.00  0.00     0.000 HD 
HETATM   21  O   UNL     1     -11.378  16.846  64.291  1.00  0.00    -1.202 OA 
BRANCH  19  22
HETATM   22  C   UNL     1     -10.872  14.754  65.431  1.00  0.00    -0.363 C  
HETATM   23  C   UNL     1     -12.089  12.593  65.414  1.00  0.00    -0.516 C  
HETATM   24  C   UNL     1     -12.229  14.085  65.656  1.00  0.00    -0.462 C  
HETATM   25  C   UNL     1     -10.891  12.067  66.147  1.00  0.00    -0.325 A  
HETATM   26  C   UNL     1      -9.868  12.926  66.571  1.00  0.00    -0.254 A  
HETATM   27  O   UNL     1      -9.894  14.284  66.384  1.00  0.00    -0.274 OA 
HETATM   28  C   UNL     1      -8.765  12.423  67.266  1.00  0.00    -0.191 A  
HETATM   29  C   UNL     1      -8.665  11.056  67.522  1.00  0.00    -0.128 A  
HETATM   30  C   UNL     1      -9.672  10.204  67.086  1.00  0.00    -0.173 A  
HETATM   31  F   UNL     1      -9.580   8.890  67.332  1.00  0.00    -0.158 F  
HETATM   32  C   UNL     1     -10.779  10.693  66.401  1.00  0.00    -0.198 A  
ENDBRANCH  19  22
ENDBRANCH  18  19
ENDBRANCH  16  18
ENDBRANCH  15  16
ENDBRANCH   2  15
TORSDOF 6
ENDMDL
MODEL        7
REMARK 921   NORMALIZED FREE ENERGY PREDICTED BY IDOCK:   -7.88 KCAL/MOL
REMARK 922        TOTAL FREE ENERGY PREDICTED BY IDOCK:  -11.84 KCAL/MOL
REMARK 923 INTER-LIGAND FREE ENERGY PREDICTED BY IDOCK:  -10.74 KCAL/MOL
REMARK 924 INTRA-LIGAND FREE ENERGY PREDICTED BY IDOCK:   -1.10 KCAL/MOL
REMARK 927      BINDING AFFINITY PREDICTED BY RF-SCORE:    0.00 PKD
ROOT
HETATM    1  O   UNL     1     -11.599  16.094  71.223  1.00  0.00    -0.426 OA 
HETATM    2  C   UNL     1     -12.352  15.510  70.151  1.00  0.00    -0.353 C  
HETATM    3  H   UNL     1     -12.141  16.151  72.000  1.00  0.00     0.000 HD 
ENDROOT
BRANCH   2   4
HETATM    4  C   UNL     1     -12.906  14.135  70.591  1.00  0.00    -0.290 C  
HETATM    5  C   UNL     1     -12.579   9.258  71.578  1.00  0.00    -0.352 A  
HETATM    6  C   UNL     1     -11.720   9.502  70.515  1.00  0.00    -0.285 A  
HETATM    7  C   UNL     1     -13.168  14.061  72.098  1.00  0.00    -0.526 C  
HETATM    8  C   UNL     1     -13.832  12.734  72.417  1.00  0.00    -0.360 C  
HETATM    9  F   UNL     1     -12.746   8.004  72.020  1.00  0.00    -0.304 F  
HETATM   10  C   UNL     1     -11.546  10.811  70.060  1.00  0.00    -0.417 A  
HETATM   11  O   UNL     1     -11.986  13.112  70.170  1.00  0.00    -0.334 OA 
HETATM   12  C   UNL     1     -13.091  11.613  71.749  1.00  0.00    -0.487 A  
HETATM   13  C   UNL     1     -12.237  11.860  70.667  1.00  0.00    -0.331 A  
HETATM   14  C   UNL     1     -13.268  10.296  72.196  1.00  0.00    -0.443 A  
ENDBRANCH   2   4
BRANCH   2  15
HETATM   15  C   UNL     1     -11.470  15.418  68.889  1.00  0.00    -0.342 C  
BRANCH  15  16
HETATM   16  N   UNL     1     -12.216  14.901  67.727  1.00  0.00    -0.506 NA 
HETATM   17  H   UNL     1     -12.565  15.649  67.128  1.00  0.00     0.000 HD 
BRANCH  16  18
HETATM   18  C   UNL     1     -11.367  13.945  66.993  1.00  0.00    -0.326 C  
BRANCH  18  19
HETATM   19  C   UNL     1     -11.032  14.461  65.580  1.00  0.00    -0.329 C  
HETATM   20  H   UNL     1     -12.045  15.183  64.060  1.00  0.00     0.000 HD 
HETATM   21  O   UNL     1     -12.252  14.865  64.930  1.00  0.00    -0.330 OA 
BRANCH  19  22
HETATM   22  C   UNL     1     -10.047  15.654  65.600  1.00  0.00    -0.365 C  
HETATM   23  C   UNL     1      -7.847  16.527  66.343  1.00  0.00    -0.324 C  
HETATM   24  C   UNL     1      -8.816  15.363  66.458  1.00  0.00    -0.347 C  
HETATM   25  C   UNL     1      -8.580  17.821  66.541  1.00  0.00    -0.283 A  
HETATM   26  C   UNL     1      -9.971  17.895  66.386  1.00  0.00    -0.358 A  
HETATM   27  O   UNL     1     -10.758  16.815  66.081  1.00  0.00    -0.240 OA 
HETATM   28  C   UNL     1     -10.641  19.105  66.586  1.00  0.00    -0.520 A  
HETATM   29  C   UNL     1      -9.923  20.253  66.921  1.00  0.00    -0.592 A  
HETATM   30  C   UNL     1      -8.543  20.181  67.057  1.00  0.00    -0.336 A  
HETATM   31  F   UNL     1      -7.851  21.282  67.381  1.00  0.00    -0.379 F  
HETATM   32  C   UNL     1      -7.866  18.981  66.868  1.00  0.00    -0.256 A  
ENDBRANCH  19  22
ENDBRANCH  18  19
ENDBRANCH  16  18
ENDBRANCH  15  16
ENDBRANCH   2  15
TORSDOF 6
ENDMDL
MODEL        8
REMARK 921   NORMALIZED FREE ENERGY PREDICTED BY IDOCK:   -7.88 KCAL/MOL
REMARK 922        TOTAL FREE ENERGY PREDICTED BY IDOCK:  -11.83 KCAL/MOL
REMARK 923 INTER-LIGAND FREE ENERGY PREDICTED BY IDOCK:  -10.55 KCAL/MOL
REMARK 924 INTRA-LIGAND FREE ENERGY PREDICTED BY IDOCK:   -1.28 KCAL/MOL
REMARK 927      BINDING AFFINITY PREDICTED BY RF-SCORE:    0.00 PKD
ROOT
HETATM    1  O   UNL     1     -12.799  14.248  66.120  1.00  0.00    -0.489 OA 
HETATM    2  C   UNL     1     -11.708  13.992  67.016  1.00  0.00    -0.398 C  
HETATM    3  H   UNL     1     -13.620  14.042  66.550  1.00  0.00     0.000 HD 
ENDROOT
BRANCH   2   4
HETATM    4  C   UNL     1     -11.909  14.790  68.325  1.00  0.00    -0.284 C  
HETATM    5  C   UNL     1     -12.704  15.275  73.223  1.00  0.00    -0.511 A  
HETATM    6  C   UNL     1     -13.422  14.157  72.818  1.00  0.00    -0.592 A  
HETATM    7  C   UNL     1     -10.610  15.423  68.833  1.00  0.00    -0.244 C  
HETATM    8  C   UNL     1     -10.926  16.292  70.037  1.00  0.00    -0.356 C  
HETATM    9  F   UNL     1     -12.786  15.688  74.496  1.00  0.00    -0.618 F  
HETATM   10  C   UNL     1     -13.331  13.729  71.492  1.00  0.00    -0.391 A  
HETATM   11  O   UNL     1     -12.486  13.917  69.313  1.00  0.00    -0.255 OA 
HETATM   12  C   UNL     1     -11.797  15.542  71.000  1.00  0.00    -0.427 A  
HETATM   13  C   UNL     1     -12.532  14.424  70.585  1.00  0.00    -0.350 A  
HETATM   14  C   UNL     1     -11.898  15.973  72.330  1.00  0.00    -0.639 A  
ENDBRANCH   2   4
BRANCH   2  15
HETATM   15  C   UNL     1     -10.374  14.326  66.317  1.00  0.00    -0.294 C  
BRANCH  15  16
HETATM   16  N   UNL     1      -9.621  13.114  65.949  1.00  0.00    -0.459 NA 
HETATM   17  H   UNL     1      -9.548  12.454  66.723  1.00  0.00     0.000 HD 
BRANCH  16  18
HETATM   18  C   UNL     1     -10.231  12.509  64.752  1.00  0.00    -0.280 C  
BRANCH  18  19
HETATM   19  C   UNL     1     -10.584  11.027  64.990  1.00  0.00    -0.244 C  
HETATM   20  H   UNL     1     -10.135   9.312  64.144  1.00  0.00     0.000 HD 
HETATM   21  O   UNL     1      -9.917  10.225  63.998  1.00  0.00    -0.299 OA 
BRANCH  19  22
HETATM   22  C   UNL     1     -10.177  10.536  66.399  1.00  0.00    -0.237 C  
HETATM   23  C   UNL     1      -9.422   8.638  67.807  1.00  0.00    -0.165 C  
HETATM   24  C   UNL     1      -9.921   9.029  66.427  1.00  0.00    -0.370 C  
HETATM   25  C   UNL     1     -10.304   9.243  68.858  1.00  0.00    -0.231 A  
HETATM   26  C   UNL     1     -11.132  10.337  68.566  1.00  0.00    -0.242 A  
HETATM   27  O   UNL     1     -11.224  10.906  67.322  1.00  0.00    -0.324 OA 
HETATM   28  C   UNL     1     -11.958  10.881  69.553  1.00  0.00    -0.401 A  
HETATM   29  C   UNL     1     -11.948  10.352  70.843  1.00  0.00    -0.478 A  
HETATM   30  C   UNL     1     -11.114   9.279  71.135  1.00  0.00    -0.341 A  
HETATM   31  F   UNL     1     -11.103   8.767  72.373  1.00  0.00    -0.409 F  
HETATM   32  C   UNL     1     -10.293   8.724  70.159  1.00  0.00    -0.225 A  
ENDBRANCH  19  22
ENDBRANCH  18  19
ENDBRANCH  16  18
ENDBRANCH  15  16
ENDBRANCH   2  15
TORSDOF 6
ENDMDL
MODEL        9
REMARK 921   NORMALIZED FREE ENERGY PREDICTED BY IDOCK:   -7.82 KCAL/MOL
REMARK 922        TOTAL FREE ENERGY PREDICTED BY IDOCK:  -11.75 KCAL/MOL
REMARK 923 INTER-LIGAND FREE ENERGY PREDICTED BY IDOCK:  -10.57 KCAL/MOL
REMARK 924 INTRA-LIGAND FREE ENERGY PREDICTED BY IDOCK:   -1.18 KCAL/MOL
REMARK 927      BINDING AFFINITY PREDICTED BY RF-SCORE:    0.00 PKD
ROOT
HETATM    1  O   UNL     1     -12.729  14.319  66.593  1.00  0.00    -0.518 OA 
HETATM    2  C   UNL     1     -11.433  13.748  66.816  1.00  0.00    -0.348 C  
HETATM    3  H   UNL     1     -12.813  15.125  67.089  1.00  0.00     0.000 HD 
ENDROOT
BRANCH   2   4
HETATM    4  C   UNL     1     -10.339  14.781  66.460  1.00  0.00    -0.286 C  
HETATM    5  C   UNL     1      -8.308  19.334  66.364  1.00  0.00    -0.321 A  
HETATM    6  C   UNL     1      -9.681  19.515  66.260  1.00  0.00    -0.481 A  
HETATM    7  C   UNL     1      -9.080  14.625  67.319  1.00  0.00    -0.215 C  
HETATM    8  C   UNL     1      -8.018  15.584  66.813  1.00  0.00    -0.214 C  
HETATM    9  F   UNL     1      -7.495  20.398  66.300  1.00  0.00    -0.282 F  
HETATM   10  C   UNL     1     -10.526  18.404  66.332  1.00  0.00    -0.412 A  
HETATM   11  O   UNL     1     -10.895  16.103  66.583  1.00  0.00    -0.268 OA 
HETATM   12  C   UNL     1      -8.606  16.951  66.621  1.00  0.00    -0.281 A  
HETATM   13  C   UNL     1      -9.990  17.127  66.500  1.00  0.00    -0.302 A  
HETATM   14  C   UNL     1      -7.762  18.068  66.540  1.00  0.00    -0.283 A  
ENDBRANCH   2   4
BRANCH   2  15
HETATM   15  C   UNL     1     -11.297  12.440  66.010  1.00  0.00    -0.353 C  
BRANCH  15  16
HETATM   16  N   UNL     1     -11.555  11.248  66.837  1.00  0.00    -0.436 NA 
HETATM   17  H   UNL     1     -11.675  10.405  66.275  1.00  0.00     0.000 HD 
BRANCH  16  18
HETATM   18  C   UNL     1     -10.479  11.108  67.834  1.00  0.00    -0.190 C  
BRANCH  18  19
HETATM   19  C   UNL     1     -10.928  10.243  69.029  1.00  0.00    -0.232 C  
HETATM   20  H   UNL     1     -10.079   8.947  70.236  1.00  0.00     0.000 HD 
HETATM   21  O   UNL     1      -9.802   9.480  69.500  1.00  0.00    -0.173 OA 
BRANCH  19  22
HETATM   22  C   UNL     1     -11.495  11.087  70.195  1.00  0.00    -0.296 C  
HETATM   23  C   UNL     1     -13.283  11.359  71.891  1.00  0.00    -0.485 C  
HETATM   24  C   UNL     1     -12.843  10.554  70.682  1.00  0.00    -0.407 C  
HETATM   25  C   UNL     1     -13.143  12.825  71.607  1.00  0.00    -0.428 A  
HETATM   26  C   UNL     1     -12.312  13.286  70.576  1.00  0.00    -0.316 A  
HETATM   27  O   UNL     1     -11.604  12.455  69.746  1.00  0.00    -0.284 OA 
HETATM   28  C   UNL     1     -12.202  14.654  70.314  1.00  0.00    -0.389 A  
HETATM   29  C   UNL     1     -12.904  15.573  71.094  1.00  0.00    -0.551 A  
HETATM   30  C   UNL     1     -13.713  15.115  72.126  1.00  0.00    -0.477 A  
HETATM   31  F   UNL     1     -14.391  15.995  72.876  1.00  0.00    -0.664 F  
HETATM   32  C   UNL     1     -13.837  13.756  72.391  1.00  0.00    -0.681 A  
ENDBRANCH  19  22
ENDBRANCH  18  19
ENDBRANCH  16  18
ENDBRANCH  15  16
ENDBRANCH   2  15
TORSDOF 6
ENDMDL
MODEL       10
REMARK 921   NORMALIZED FREE ENERGY PREDICTED BY IDOCK:   -7.81 KCAL/MOL
REMARK 922        TOTAL FREE ENERGY PREDICTED BY IDOCK:  -11.73 KCAL/MOL
REMARK 923 INTER-LIGAND FREE ENERGY PREDICTED BY IDOCK:   -9.94 KCAL/MOL
REMARK 924 INTRA-LIGAND FREE ENERGY PREDICTED BY IDOCK:   -1.79 KCAL/MOL
REMARK 927      BINDING AFFINITY PREDICTED BY RF-SCORE:    0.00 PKD
ROOT
HETATM    1  O   UNL     1     -11.743  10.255  68.035  1.00  0.00    -0.712 OA 
HETATM    2  C   UNL     1     -11.014  10.048  69.253  1.00  0.00    -0.228 C  
HETATM    3  H   UNL     1     -12.669  10.111  68.190  1.00  0.00     0.000 HD 
ENDROOT
BRANCH   2   4
HETATM    4  C   UNL     1     -11.580  10.964  70.363  1.00  0.00    -0.323 C  
HETATM    5  C   UNL     1     -13.692  15.125  72.121  1.00  0.00    -0.477 A  
HETATM    6  C   UNL     1     -12.884  15.513  71.061  1.00  0.00    -0.543 A  
HETATM    7  C   UNL     1     -12.931  10.477  70.895  1.00  0.00    -0.455 C  
HETATM    8  C   UNL     1     -13.343  11.353  72.064  1.00  0.00    -0.388 C  
HETATM    9  F   UNL     1     -14.341  16.057  72.834  1.00  0.00    -0.664 F  
HETATM   10  C   UNL     1     -12.212  14.539  70.318  1.00  0.00    -0.391 A  
HETATM   11  O   UNL     1     -11.674  12.306  69.850  1.00  0.00    -0.309 OA 
HETATM   12  C   UNL     1     -13.178  12.801  71.707  1.00  0.00    -0.471 A  
HETATM   13  C   UNL     1     -12.350  13.190  70.647  1.00  0.00    -0.326 A  
HETATM   14  C   UNL     1     -13.843  13.783  72.454  1.00  0.00    -0.681 A  
ENDBRANCH   2   4
BRANCH   2  15
HETATM   15  C   UNL     1      -9.510  10.282  69.002  1.00  0.00    -0.200 C  
BRANCH  15  16
HETATM   16  N   UNL     1      -9.111   9.907  67.633  1.00  0.00    -0.131 NA 
HETATM   17  H   UNL     1      -9.900   9.579  67.076  1.00  0.00     0.000 HD 
BRANCH  16  18
HETATM   18  C   UNL     1      -8.413  11.043  67.004  1.00  0.00    -0.141 C  
BRANCH  18  19
HETATM   19  C   UNL     1      -9.262  11.669  65.879  1.00  0.00    -0.196 C  
HETATM   20  H   UNL     1     -10.772  11.098  64.759  1.00  0.00     0.000 HD 
HETATM   21  O   UNL     1     -10.249  10.712  65.452  1.00  0.00    -0.274 OA 
BRANCH  19  22
HETATM   22  C   UNL     1      -9.973  12.969  66.323  1.00  0.00    -0.283 C  
HETATM   23  C   UNL     1     -11.175  15.026  65.633  1.00  0.00    -0.327 C  
HETATM   24  C   UNL     1     -10.391  13.828  65.129  1.00  0.00    -0.391 C  
HETATM   25  C   UNL     1     -10.442  15.674  66.771  1.00  0.00    -0.297 A  
HETATM   26  C   UNL     1      -9.462  14.976  67.490  1.00  0.00    -0.203 A  
HETATM   27  O   UNL     1      -9.081  13.691  67.200  1.00  0.00    -0.220 OA 
HETATM   28  C   UNL     1      -8.778  15.596  68.538  1.00  0.00    -0.182 A  
HETATM   29  C   UNL     1      -9.084  16.911  68.890  1.00  0.00    -0.223 A  
HETATM   30  C   UNL     1     -10.067  17.595  68.187  1.00  0.00    -0.347 A  
HETATM   31  F   UNL     1     -10.362  18.859  68.521  1.00  0.00    -0.388 F  
HETATM   32  C   UNL     1     -10.749  16.991  67.137  1.00  0.00    -0.177 A  
ENDBRANCH  19  22
ENDBRANCH  18  19
ENDBRANCH  16  18
ENDBRANCH  15  16
ENDBRANCH   2  15
TORSDOF 6
ENDMDL
MODEL       11
REMARK 921   NORMALIZED FREE ENERGY PREDICTED BY IDOCK:   -7.75 KCAL/MOL
REMARK 922        TOTAL FREE ENERGY PREDICTED BY IDOCK:  -11.66 KCAL/MOL
REMARK 923 INTER-LIGAND FREE ENERGY PREDICTED BY IDOCK:  -10.32 KCAL/MOL
REMARK 924 INTRA-LIGAND FREE ENERGY PREDICTED BY IDOCK:   -1.34 KCAL/MOL
REMARK 927      BINDING AFFINITY PREDICTED BY RF-SCORE:    0.00 PKD
ROOT
HETATM    1  O   UNL     1     -10.445  10.687  62.595  1.00  0.00    -0.730 OA 
HETATM    2  C   UNL     1     -10.577  11.814  63.473  1.00  0.00    -0.440 C  
HETATM    3  H   UNL     1      -9.531  10.438  62.532  1.00  0.00     0.000 HD 
ENDROOT
BRANCH   2   4
HETATM    4  C   UNL     1      -9.957  11.479  64.849  1.00  0.00    -0.259 C  
HETATM    5  C   UNL     1     -10.071   9.848  69.560  1.00  0.00    -0.221 A  
HETATM    6  C   UNL     1     -11.289  10.475  69.332  1.00  0.00    -0.331 A  
HETATM    7  C   UNL     1      -9.082  10.223  64.809  1.00  0.00    -0.256 C  
HETATM    8  C   UNL     1      -8.411  10.049  66.161  1.00  0.00    -0.131 C  
HETATM    9  F   UNL     1      -9.794   9.363  70.779  1.00  0.00    -0.268 F  
HETATM   10  C   UNL     1     -11.575  10.975  68.060  1.00  0.00    -0.326 A  
HETATM   11  O   UNL     1     -11.018  11.346  65.813  1.00  0.00    -0.266 OA 
HETATM   12  C   UNL     1      -9.420  10.200  67.260  1.00  0.00    -0.178 A  
HETATM   13  C   UNL     1     -10.641  10.848  67.031  1.00  0.00    -0.257 A  
HETATM   14  C   UNL     1      -9.134   9.708  68.541  1.00  0.00    -0.131 A  
ENDBRANCH   2   4
BRANCH   2  15
HETATM   15  C   UNL     1     -12.062  12.219  63.575  1.00  0.00    -0.553 C  
BRANCH  15  16
HETATM   16  N   UNL     1     -12.260  13.664  63.359  1.00  0.00    -1.020 NA 
HETATM   17  H   UNL     1     -13.030  13.857  62.719  1.00  0.00     0.000 HD 
BRANCH  16  18
HETATM   18  C   UNL     1     -12.435  14.329  64.662  1.00  0.00    -0.351 C  
BRANCH  18  19
HETATM   19  C   UNL     1     -11.304  15.342  64.933  1.00  0.00    -0.384 C  
HETATM   20  H   UNL     1     -10.783  17.102  64.232  1.00  0.00     0.000 HD 
HETATM   21  O   UNL     1     -11.480  16.478  64.066  1.00  0.00    -1.137 OA 
BRANCH  19  22
HETATM   22  C   UNL     1     -11.273  15.822  66.402  1.00  0.00     0.034 C  
HETATM   23  C   UNL     1      -9.928  16.781  68.253  1.00  0.00    -0.273 C  
HETATM   24  C   UNL     1      -9.864  16.220  66.844  1.00  0.00    -0.253 C  
HETATM   25  C   UNL     1     -10.732  15.868  69.130  1.00  0.00    -0.259 A  
HETATM   26  C   UNL     1     -11.622  14.936  68.579  1.00  0.00    -0.323 A  
HETATM   27  O   UNL     1     -11.801  14.765  67.231  1.00  0.00    -0.378 OA 
HETATM   28  C   UNL     1     -12.354  14.082  69.409  1.00  0.00    -0.247 A  
HETATM   29  C   UNL     1     -12.218  14.169  70.795  1.00  0.00    -0.435 A  
HETATM   30  C   UNL     1     -11.348  15.106  71.338  1.00  0.00    -0.327 A  
HETATM   31  F   UNL     1     -11.214  15.191  72.669  1.00  0.00    -0.512 F  
HETATM   32  C   UNL     1     -10.609  15.955  70.523  1.00  0.00    -0.102 A  
ENDBRANCH  19  22
ENDBRANCH  18  19
ENDBRANCH  16  18
ENDBRANCH  15  16
ENDBRANCH   2  15
TORSDOF 6
ENDMDL
MODEL       12
REMARK 921   NORMALIZED FREE ENERGY PREDICTED BY IDOCK:   -7.74 KCAL/MOL
REMARK 922        TOTAL FREE ENERGY PREDICTED BY IDOCK:  -11.64 KCAL/MOL
REMARK 923 INTER-LIGAND FREE ENERGY PREDICTED BY IDOCK:  -10.28 KCAL/MOL
REMARK 924 INTRA-LIGAND FREE ENERGY PREDICTED BY IDOCK:   -1.36 KCAL/MOL
REMARK 927      BINDING AFFINITY PREDICTED BY RF-SCORE:    0.00 PKD
ROOT
HETATM    1  O   UNL     1     -11.533  16.367  71.449  1.00  0.00    -0.504 OA 
HETATM    2  C   UNL     1     -12.317  15.862  70.359  1.00  0.00    -0.220 C  
HETATM    3  H   UNL     1     -12.046  16.347  72.247  1.00  0.00     0.000 HD 
ENDROOT
BRANCH   2   4
HETATM    4  C   UNL     1     -12.829  14.443  70.699  1.00  0.00    -0.328 C  
HETATM    5  C   UNL     1     -12.396   9.500  71.198  1.00  0.00    -0.326 A  
HETATM    6  C   UNL     1     -11.607   9.856  70.112  1.00  0.00    -0.281 A  
HETATM    7  C   UNL     1     -12.996  14.224  72.206  1.00  0.00    -0.460 C  
HETATM    8  C   UNL     1     -13.626  12.862  72.438  1.00  0.00    -0.577 C  
HETATM    9  F   UNL     1     -12.523   8.207  71.528  1.00  0.00    -0.285 F  
HETATM   10  C   UNL     1     -11.474  11.205  69.773  1.00  0.00    -0.388 A  
HETATM   11  O   UNL     1     -11.928  13.477  70.128  1.00  0.00    -0.319 OA 
HETATM   12  C   UNL     1     -12.918  11.821  71.623  1.00  0.00    -0.467 A  
HETATM   13  C   UNL     1     -12.135  12.181  70.518  1.00  0.00    -0.293 A  
HETATM   14  C   UNL     1     -13.054  10.465  71.953  1.00  0.00    -0.563 A  
ENDBRANCH   2   4
BRANCH   2  15
HETATM   15  C   UNL     1     -11.483  15.895  69.062  1.00  0.00    -0.380 C  
BRANCH  15  16
HETATM   16  N   UNL     1     -10.034  15.868  69.332  1.00  0.00    -0.259 NA 
HETATM   17  H   UNL     1      -9.628  14.946  69.172  1.00  0.00     0.000 HD 
BRANCH  16  18
HETATM   18  C   UNL     1      -9.373  16.917  68.536  1.00  0.00    -0.259 C  
BRANCH  18  19
HETATM   19  C   UNL     1      -8.409  16.310  67.496  1.00  0.00    -0.158 C  
HETATM   20  H   UNL     1      -7.036  14.906  67.491  1.00  0.00     0.000 HD 
HETATM   21  O   UNL     1      -7.629  15.280  68.131  1.00  0.00    -0.108 OA 
BRANCH  19  22
HETATM   22  C   UNL     1      -9.149  15.711  66.277  1.00  0.00    -0.341 C  
HETATM   23  C   UNL     1     -10.988  15.954  64.630  1.00  0.00    -0.323 C  
HETATM   24  C   UNL     1     -10.378  16.535  65.894  1.00  0.00    -0.365 C  
HETATM   25  C   UNL     1     -11.126  14.467  64.768  1.00  0.00    -0.402 A  
HETATM   26  C   UNL     1     -10.380  13.756  65.719  1.00  0.00    -0.307 A  
HETATM   27  O   UNL     1      -9.511  14.350  66.597  1.00  0.00    -0.260 OA 
HETATM   28  C   UNL     1     -10.529  12.373  65.844  1.00  0.00    -0.284 A  
HETATM   29  C   UNL     1     -11.409  11.686  65.007  1.00  0.00    -0.237 A  
HETATM   30  C   UNL     1     -12.134  12.390  64.054  1.00  0.00    -0.475 A  
HETATM   31  F   UNL     1     -12.982  11.734  63.250  1.00  0.00    -0.701 F  
HETATM   32  C   UNL     1     -12.000  13.768  63.925  1.00  0.00    -0.414 A  
ENDBRANCH  19  22
ENDBRANCH  18  19
ENDBRANCH  16  18
ENDBRANCH  15  16
ENDBRANCH   2  15
TORSDOF 6
ENDMDL
MODEL       13
REMARK 921   NORMALIZED FREE ENERGY PREDICTED BY IDOCK:   -7.73 KCAL/MOL
REMARK 922        TOTAL FREE ENERGY PREDICTED BY IDOCK:  -11.63 KCAL/MOL
REMARK 923 INTER-LIGAND FREE ENERGY PREDICTED BY IDOCK:   -9.97 KCAL/MOL
REMARK 924 INTRA-LIGAND FREE ENERGY PREDICTED BY IDOCK:   -1.66 KCAL/MOL
REMARK 927      BINDING AFFINITY PREDICTED BY RF-SCORE:    0.00 PKD
ROOT
HETATM    1  O   UNL     1     -14.108   8.942  73.321  1.00  0.00    -1.211 OA 
HETATM    2  C   UNL     1     -13.198   8.775  72.225  1.00  0.00    -0.412 C  
HETATM    3  H   UNL     1     -13.836   9.681  73.852  1.00  0.00     0.000 HD 
ENDROOT
BRANCH   2   4
HETATM    4  C   UNL     1     -13.110  10.089  71.415  1.00  0.00    -0.417 C  
HETATM    5  C   UNL     1     -12.691  15.029  70.882  1.00  0.00    -0.375 A  
HETATM    6  C   UNL     1     -13.427  14.820  72.041  1.00  0.00    -0.478 A  
HETATM    7  C   UNL     1     -11.760  10.255  70.709  1.00  0.00    -0.453 C  
HETATM    8  C   UNL     1     -11.812  11.496  69.836  1.00  0.00    -0.430 C  
HETATM    9  F   UNL     1     -12.476  16.280  70.451  1.00  0.00    -0.244 F  
HETATM   10  C   UNL     1     -13.645  13.515  72.488  1.00  0.00    -0.674 A  
HETATM   11  O   UNL     1     -13.377  11.194  72.297  1.00  0.00    -0.394 OA 
HETATM   12  C   UNL     1     -12.378  12.649  70.611  1.00  0.00    -0.375 A  
HETATM   13  C   UNL     1     -13.133  12.434  71.771  1.00  0.00    -0.342 A  
HETATM   14  C   UNL     1     -12.168  13.960  70.162  1.00  0.00    -0.425 A  
ENDBRANCH   2   4
BRANCH   2  15
HETATM   15  C   UNL     1     -13.640   7.575  71.363  1.00  0.00    -0.317 C  
BRANCH  15  16
HETATM   16  N   UNL     1     -12.501   6.921  70.695  1.00  0.00    -0.574 NA 
HETATM   17  H   UNL     1     -12.125   7.483  69.931  1.00  0.00     0.000 HD 
BRANCH  16  18
HETATM   18  C   UNL     1     -11.477   6.586  71.700  1.00  0.00    -0.297 C  
BRANCH  18  19
HETATM   19  C   UNL     1     -10.216   5.991  71.041  1.00  0.00    -0.201 C  
HETATM   20  H   UNL     1      -9.831   4.528  69.788  1.00  0.00     0.000 HD 
HETATM   21  O   UNL     1     -10.608   4.894  70.194  1.00  0.00    -0.184 OA 
BRANCH  19  22
HETATM   22  C   UNL     1      -9.436   7.030  70.202  1.00  0.00    -0.162 C  
HETATM   23  C   UNL     1      -8.234   9.199  70.164  1.00  0.00    -0.161 C  
HETATM   24  C   UNL     1      -9.088   8.277  71.015  1.00  0.00    -0.189 C  
HETATM   25  C   UNL     1      -8.857   9.367  68.811  1.00  0.00    -0.132 A  
HETATM   26  C   UNL     1      -9.797   8.447  68.328  1.00  0.00    -0.169 A  
HETATM   27  O   UNL     1     -10.236   7.365  69.047  1.00  0.00    -0.188 OA 
HETATM   28  C   UNL     1     -10.379   8.624  67.070  1.00  0.00    -0.368 A  
HETATM   29  C   UNL     1     -10.010   9.710  66.277  1.00  0.00    -0.335 A  
HETATM   30  C   UNL     1      -9.065  10.612  66.750  1.00  0.00    -0.152 A  
HETATM   31  F   UNL     1      -8.710  11.657  65.991  1.00  0.00    -0.194 F  
HETATM   32  C   UNL     1      -8.485  10.450  68.003  1.00  0.00    -0.119 A  
ENDBRANCH  19  22
ENDBRANCH  18  19
ENDBRANCH  16  18
ENDBRANCH  15  16
ENDBRANCH   2  15
TORSDOF 6
ENDMDL
MODEL       14
REMARK 921   NORMALIZED FREE ENERGY PREDICTED BY IDOCK:   -7.72 KCAL/MOL
REMARK 922        TOTAL FREE ENERGY PREDICTED BY IDOCK:  -11.61 KCAL/MOL
REMARK 923 INTER-LIGAND FREE ENERGY PREDICTED BY IDOCK:   -9.81 KCAL/MOL
REMARK 924 INTRA-LIGAND FREE ENERGY PREDICTED BY IDOCK:   -1.80 KCAL/MOL
REMARK 927      BINDING AFFINITY PREDICTED BY RF-SCORE:    0.00 PKD
ROOT
HETATM    1  O   UNL     1      -9.906  13.877  64.395  1.00  0.00    -0.681 OA 
HETATM    2  C   UNL     1     -10.813  14.975  64.562  1.00  0.00    -0.129 C  
HETATM    3  H   UNL     1      -9.017  14.205  64.326  1.00  0.00     0.000 HD 
ENDROOT
BRANCH   2   4
HETATM    4  C   UNL     1     -10.394  15.817  65.790  1.00  0.00    -0.369 C  
HETATM    5  C   UNL     1      -7.122  18.154  68.739  1.00  0.00    -0.279 A  
HETATM    6  C   UNL     1      -6.473  17.029  68.247  1.00  0.00    -0.151 A  
HETATM    7  C   UNL     1     -10.786  17.291  65.654  1.00  0.00    -0.123 C  
HETATM    8  C   UNL     1     -10.459  18.008  66.952  1.00  0.00    -0.350 C  
HETATM    9  F   UNL     1      -6.496  18.946  69.621  1.00  0.00    -0.282 F  
HETATM   10  C   UNL     1      -7.128  16.209  67.325  1.00  0.00    -0.231 A  
HETATM   11  O   UNL     1      -8.976  15.669  65.987  1.00  0.00    -0.334 OA 
HETATM   12  C   UNL     1      -9.069  17.660  67.397  1.00  0.00    -0.239 A  
HETATM   13  C   UNL     1      -8.423  16.517  66.910  1.00  0.00    -0.212 A  
HETATM   14  C   UNL     1      -8.411  18.476  68.328  1.00  0.00    -0.341 A  
ENDBRANCH   2   4
BRANCH   2  15
HETATM   15  C   UNL     1     -12.256  14.442  64.675  1.00  0.00    -0.464 C  
BRANCH  15  16
HETATM   16  N   UNL     1     -12.587  14.020  66.048  1.00  0.00    -0.468 NA 
HETATM   17  H   UNL     1     -13.575  14.151  66.265  1.00  0.00     0.000 HD 
BRANCH  16  18
HETATM   18  C   UNL     1     -12.150  12.627  66.245  1.00  0.00    -0.289 C  
BRANCH  18  19
HETATM   19  C   UNL     1     -11.343  12.471  67.550  1.00  0.00    -0.312 C  
HETATM   20  H   UNL     1      -9.446  12.285  68.026  1.00  0.00     0.000 HD 
HETATM   21  O   UNL     1      -9.944  12.381  67.223  1.00  0.00    -0.204 OA 
BRANCH  19  22
HETATM   22  C   UNL     1     -11.562  13.646  68.530  1.00  0.00    -0.335 C  
HETATM   23  C   UNL     1     -10.537  15.491  69.834  1.00  0.00    -0.322 C  
HETATM   24  C   UNL     1     -10.241  14.282  68.964  1.00  0.00    -0.156 C  
HETATM   25  C   UNL     1     -11.546  15.130  70.883  1.00  0.00    -0.380 A  
HETATM   26  C   UNL     1     -12.371  14.006  70.736  1.00  0.00    -0.373 A  
HETATM   27  O   UNL     1     -12.302  13.150  69.667  1.00  0.00    -0.207 OA 
HETATM   28  C   UNL     1     -13.297  13.675  71.728  1.00  0.00    -0.469 A  
HETATM   29  C   UNL     1     -13.422  14.476  72.863  1.00  0.00    -0.525 A  
HETATM   30  C   UNL     1     -12.616  15.599  72.998  1.00  0.00    -0.459 A  
HETATM   31  F   UNL     1     -12.731  16.370  74.088  1.00  0.00    -0.534 F  
HETATM   32  C   UNL     1     -11.685  15.935  72.021  1.00  0.00    -0.588 A  
ENDBRANCH  19  22
ENDBRANCH  18  19
ENDBRANCH  16  18
ENDBRANCH  15  16
ENDBRANCH   2  15
TORSDOF 6
ENDMDL
MODEL       15
REMARK 921   NORMALIZED FREE ENERGY PREDICTED BY IDOCK:   -7.70 KCAL/MOL
REMARK 922        TOTAL FREE ENERGY PREDICTED BY IDOCK:  -11.59 KCAL/MOL
REMARK 923 INTER-LIGAND FREE ENERGY PREDICTED BY IDOCK:  -10.42 KCAL/MOL
REMARK 924 INTRA-LIGAND FREE ENERGY PREDICTED BY IDOCK:   -1.17 KCAL/MOL
REMARK 927      BINDING AFFINITY PREDICTED BY RF-SCORE:    0.00 PKD
ROOT
HETATM    1  O   UNL     1     -13.090  13.894  65.069  1.00  0.00    -0.749 OA 
HETATM    2  C   UNL     1     -11.810  14.182  64.489  1.00  0.00    -0.436 C  
HETATM    3  H   UNL     1     -13.446  13.104  64.681  1.00  0.00     0.000 HD 
ENDROOT
BRANCH   2   4
HETATM    4  C   UNL     1     -10.874  12.963  64.660  1.00  0.00    -0.342 C  
HETATM    5  C   UNL     1      -9.539   8.543  66.542  1.00  0.00    -0.236 A  
HETATM    6  C   UNL     1     -10.222   9.208  67.551  1.00  0.00    -0.304 A  
HETATM    7  C   UNL     1     -10.877  12.042  63.436  1.00  0.00    -0.471 C  
HETATM    8  C   UNL     1      -9.837  10.955  63.637  1.00  0.00    -0.403 C  
HETATM    9  F   UNL     1      -9.001   7.340  66.790  1.00  0.00    -0.118 F  
HETATM   10  C   UNL     1     -10.785  10.460  67.288  1.00  0.00    -0.331 A  
HETATM   11  O   UNL     1     -11.257  12.251  65.851  1.00  0.00    -0.311 OA 
HETATM   12  C   UNL     1      -9.977  10.353  65.003  1.00  0.00    -0.399 A  
HETATM   13  C   UNL     1     -10.653  11.034  66.023  1.00  0.00    -0.213 A  
HETATM   14  C   UNL     1      -9.407   9.101  65.275  1.00  0.00    -0.224 A  
ENDBRANCH   2   4
BRANCH   2  15
HETATM   15  C   UNL     1     -11.233  15.466  65.120  1.00  0.00    -0.350 C  
BRANCH  15  16
HETATM   16  N   UNL     1     -10.873  15.275  66.536  1.00  0.00    -0.313 NA 
HETATM   17  H   UNL     1      -9.993  14.770  66.648  1.00  0.00     0.000 HD 
BRANCH  16  18
HETATM   18  C   UNL     1     -10.856  16.584  67.213  1.00  0.00    -0.173 C  
BRANCH  18  19
HETATM   19  C   UNL     1     -10.552  16.436  68.717  1.00  0.00    -0.310 C  
HETATM   20  H   UNL     1     -10.336  17.653  70.244  1.00  0.00     0.000 HD 
HETATM   21  O   UNL     1     -10.523  17.744  69.317  1.00  0.00    -0.267 OA 
BRANCH  19  22
HETATM   22  C   UNL     1     -11.596  15.562  69.452  1.00  0.00    -0.355 C  
HETATM   23  C   UNL     1     -12.856  15.142  71.547  1.00  0.00    -0.442 C  
HETATM   24  C   UNL     1     -11.744  15.964  70.920  1.00  0.00    -0.456 C  
HETATM   25  C   UNL     1     -12.674  13.693  71.207  1.00  0.00    -0.443 A  
HETATM   26  C   UNL     1     -11.877  13.300  70.123  1.00  0.00    -0.263 A  
HETATM   27  O   UNL     1     -11.193  14.181  69.326  1.00  0.00    -0.255 OA 
HETATM   28  C   UNL     1     -11.705  11.945  69.827  1.00  0.00    -0.403 A  
HETATM   29  C   UNL     1     -12.346  10.975  70.597  1.00  0.00    -0.480 A  
HETATM   30  C   UNL     1     -13.149  11.368  71.661  1.00  0.00    -0.393 A  
HETATM   31  F   UNL     1     -13.763  10.438  72.405  1.00  0.00    -0.427 F  
HETATM   32  C   UNL     1     -13.321  12.712  71.971  1.00  0.00    -0.555 A  
ENDBRANCH  19  22
ENDBRANCH  18  19
ENDBRANCH  16  18
ENDBRANCH  15  16
ENDBRANCH   2  15
TORSDOF 6
ENDMDL
MODEL       16
REMARK 921   NORMALIZED FREE ENERGY PREDICTED BY IDOCK:   -7.69 KCAL/MOL
REMARK 922        TOTAL FREE ENERGY PREDICTED BY IDOCK:  -11.58 KCAL/MOL
REMARK 923 INTER-LIGAND FREE ENERGY PREDICTED BY IDOCK:  -10.15 KCAL/MOL
REMARK 924 INTRA-LIGAND FREE ENERGY PREDICTED BY IDOCK:   -1.42 KCAL/MOL
REMARK 927      BINDING AFFINITY PREDICTED BY RF-SCORE:    0.00 PKD
ROOT
HETATM    1  O   UNL     1     -12.242   6.802  69.933  1.00  0.00    -0.634 OA 
HETATM    2  C   UNL     1     -11.116   7.570  70.382  1.00  0.00    -0.261 C  
HETATM    3  H   UNL     1     -12.811   6.612  70.669  1.00  0.00     0.000 HD 
ENDROOT
BRANCH   2   4
HETATM    4  C   UNL     1     -11.608   8.849  71.097  1.00  0.00    -0.300 C  
HETATM    5  C   UNL     1     -13.158  13.585  71.291  1.00  0.00    -0.262 A  
HETATM    6  C   UNL     1     -12.226  13.519  70.264  1.00  0.00    -0.417 A  
HETATM    7  C   UNL     1     -13.054   8.728  71.590  1.00  0.00    -0.394 C  
HETATM    8  C   UNL     1     -13.405   9.969  72.392  1.00  0.00    -0.261 C  
HETATM    9  F   UNL     1     -13.701  14.767  71.616  1.00  0.00    -0.377 F  
HETATM   10  C   UNL     1     -11.665  12.285  69.926  1.00  0.00    -0.346 A  
HETATM   11  O   UNL     1     -11.453   9.967  70.204  1.00  0.00    -0.250 OA 
HETATM   12  C   UNL     1     -12.989  11.201  71.644  1.00  0.00    -0.548 A  
HETATM   13  C   UNL     1     -12.036  11.133  70.620  1.00  0.00    -0.379 A  
HETATM   14  C   UNL     1     -13.542  12.443  71.985  1.00  0.00    -0.349 A  
ENDBRANCH   2   4
BRANCH   2  15
HETATM   15  C   UNL     1     -10.191   7.879  69.186  1.00  0.00    -0.216 C  
BRANCH  15  16
HETATM   16  N   UNL     1     -10.947   8.095  67.940  1.00  0.00    -0.478 NA 
HETATM   17  H   UNL     1     -11.236   9.066  67.826  1.00  0.00     0.000 HD 
BRANCH  16  18
HETATM   18  C   UNL     1     -10.149   7.611  66.799  1.00  0.00    -0.255 C  
BRANCH  18  19
HETATM   19  C   UNL     1      -9.298   8.742  66.188  1.00  0.00    -0.234 C  
HETATM   20  H   UNL     1      -7.786   8.859  64.940  1.00  0.00     0.000 HD 
HETATM   21  O   UNL     1      -8.311   8.162  65.316  1.00  0.00    -0.145 OA 
BRANCH  19  22
HETATM   22  C   UNL     1     -10.146   9.761  65.391  1.00  0.00    -0.126 C  
HETATM   23  C   UNL     1     -10.335  11.183  63.368  1.00  0.00    -0.419 C  
HETATM   24  C   UNL     1      -9.407  10.276  64.156  1.00  0.00    -0.336 C  
HETATM   25  C   UNL     1     -10.984  12.173  64.288  1.00  0.00    -0.391 A  
HETATM   26  C   UNL     1     -11.041  11.945  65.670  1.00  0.00    -0.310 A  
HETATM   27  O   UNL     1     -10.496  10.845  66.280  1.00  0.00    -0.252 OA 
HETATM   28  C   UNL     1     -11.638  12.883  66.517  1.00  0.00    -0.425 A  
HETATM   29  C   UNL     1     -12.200  14.045  65.987  1.00  0.00    -0.484 A  
HETATM   30  C   UNL     1     -12.157  14.260  64.616  1.00  0.00    -0.463 A  
HETATM   31  F   UNL     1     -12.694  15.376  64.104  1.00  0.00    -0.412 F  
HETATM   32  C   UNL     1     -11.559  13.338  63.763  1.00  0.00    -0.427 A  
ENDBRANCH  19  22
ENDBRANCH  18  19
ENDBRANCH  16  18
ENDBRANCH  15  16
ENDBRANCH   2  15
TORSDOF 6
ENDMDL
MODEL       17
REMARK 921   NORMALIZED FREE ENERGY PREDICTED BY IDOCK:   -7.67 KCAL/MOL
REMARK 922        TOTAL FREE ENERGY PREDICTED BY IDOCK:  -11.54 KCAL/MOL
REMARK 923 INTER-LIGAND FREE ENERGY PREDICTED BY IDOCK:  -10.21 KCAL/MOL
REMARK 924 INTRA-LIGAND FREE ENERGY PREDICTED BY IDOCK:   -1.34 KCAL/MOL
REMARK 927      BINDING AFFINITY PREDICTED BY RF-SCORE:    0.00 PKD
ROOT
HETATM    1  O   UNL     1      -9.833  16.439  69.280  1.00  0.00    -0.259 OA 
HETATM    2  C   UNL     1     -11.060  16.226  68.567  1.00  0.00    -0.368 C  
HETATM    3  H   UNL     1     -10.023  16.773  70.148  1.00  0.00     0.000 HD 
ENDROOT
BRANCH   2   4
HETATM    4  C   UNL     1     -11.978  15.282  69.379  1.00  0.00    -0.315 C  
HETATM    5  C   UNL     1     -13.098  11.052  71.770  1.00  0.00    -0.449 A  
HETATM    6  C   UNL     1     -12.281  10.696  70.705  1.00  0.00    -0.474 A  
HETATM    7  C   UNL     1     -12.144  15.732  70.834  1.00  0.00    -0.459 C  
HETATM    8  C   UNL     1     -13.160  14.831  71.513  1.00  0.00    -0.429 C  
HETATM    9  F   UNL     1     -13.611  10.097  72.558  1.00  0.00    -0.442 F  
HETATM   10  C   UNL     1     -11.746  11.696  69.888  1.00  0.00    -0.414 A  
HETATM   11  O   UNL     1     -11.449  13.946  69.303  1.00  0.00    -0.265 OA 
HETATM   12  C   UNL     1     -12.848  13.393  71.225  1.00  0.00    -0.407 A  
HETATM   13  C   UNL     1     -12.036  13.036  70.141  1.00  0.00    -0.307 A  
HETATM   14  C   UNL     1     -13.389  12.386  72.037  1.00  0.00    -0.511 A  
ENDBRANCH   2   4
BRANCH   2  15
HETATM   15  C   UNL     1     -10.751  15.683  67.157  1.00  0.00    -0.314 C  
BRANCH  15  16
HETATM   16  N   UNL     1     -11.803  14.772  66.670  1.00  0.00    -0.301 NA 
HETATM   17  H   UNL     1     -12.709  14.963  67.098  1.00  0.00     0.000 HD 
BRANCH  16  18
HETATM   18  C   UNL     1     -11.855  14.835  65.198  1.00  0.00    -0.313 C  
BRANCH  18  19
HETATM   19  C   UNL     1     -12.187  13.459  64.588  1.00  0.00    -0.407 C  
HETATM   20  H   UNL     1     -12.735  12.787  62.826  1.00  0.00     0.000 HD 
HETATM   21  O   UNL     1     -12.530  13.635  63.201  1.00  0.00    -0.786 OA 
BRANCH  19  22
HETATM   22  C   UNL     1     -11.012  12.459  64.699  1.00  0.00    -0.305 C  
HETATM   23  C   UNL     1      -9.660  10.702  63.587  1.00  0.00    -0.360 C  
HETATM   24  C   UNL     1     -10.893  11.578  63.455  1.00  0.00    -0.473 C  
HETATM   25  C   UNL     1      -9.637  10.054  64.939  1.00  0.00    -0.375 A  
HETATM   26  C   UNL     1     -10.390  10.571  66.002  1.00  0.00    -0.211 A  
HETATM   27  O   UNL     1     -11.212  11.662  65.887  1.00  0.00    -0.305 OA 
HETATM   28  C   UNL     1     -10.369   9.948  67.253  1.00  0.00    -0.303 A  
HETATM   29  C   UNL     1      -9.577   8.818  67.456  1.00  0.00    -0.192 A  
HETATM   30  C   UNL     1      -8.818   8.317  66.406  1.00  0.00    -0.152 A  
HETATM   31  F   UNL     1      -8.059   7.230  66.598  1.00  0.00    -0.103 F  
HETATM   32  C   UNL     1      -8.837   8.924  65.155  1.00  0.00    -0.209 A  
ENDBRANCH  19  22
ENDBRANCH  18  19
ENDBRANCH  16  18
ENDBRANCH  15  16
ENDBRANCH   2  15
TORSDOF 6
ENDMDL
MODEL       18
REMARK 921   NORMALIZED FREE ENERGY PREDICTED BY IDOCK:   -7.65 KCAL/MOL
REMARK 922        TOTAL FREE ENERGY PREDICTED BY IDOCK:  -11.52 KCAL/MOL
REMARK 923 INTER-LIGAND FREE ENERGY PREDICTED BY IDOCK:  -10.89 KCAL/MOL
REMARK 924 INTRA-LIGAND FREE ENERGY PREDICTED BY IDOCK:   -0.62 KCAL/MOL
REMARK 927      BINDING AFFINITY PREDICTED BY RF-SCORE:    0.00 PKD
ROOT
HETATM    1  O   UNL     1     -10.840  13.262  69.512  1.00  0.00    -0.450 OA 
HETATM    2  C   UNL     1     -11.785  12.404  68.857  1.00  0.00    -0.324 C  
HETATM    3  H   UNL     1     -11.146  13.462  70.389  1.00  0.00     0.000 HD 
ENDROOT
BRANCH   2   4
HETATM    4  C   UNL     1     -12.015  11.134  69.710  1.00  0.00    -0.357 C  
HETATM    5  C   UNL     1     -10.623   7.464  72.784  1.00  0.00    -0.297 A  
HETATM    6  C   UNL     1      -9.534   7.721  71.962  1.00  0.00    -0.212 A  
HETATM    7  C   UNL     1     -12.814  11.419  70.985  1.00  0.00    -0.381 C  
HETATM    8  C   UNL     1     -13.107  10.104  71.686  1.00  0.00    -0.550 C  
HETATM    9  F   UNL     1     -10.555   6.467  73.678  1.00  0.00    -0.227 F  
HETATM   10  C   UNL     1      -9.606   8.763  71.034  1.00  0.00    -0.290 A  
HETATM   11  O   UNL     1     -10.738  10.545  70.014  1.00  0.00    -0.276 OA 
HETATM   12  C   UNL     1     -11.857   9.279  71.776  1.00  0.00    -0.454 A  
HETATM   13  C   UNL     1     -10.766   9.532  70.934  1.00  0.00    -0.333 A  
HETATM   14  C   UNL     1     -11.782   8.227  72.699  1.00  0.00    -0.406 A  
ENDBRANCH   2   4
BRANCH   2  15
HETATM   15  C   UNL     1     -11.289  12.079  67.433  1.00  0.00    -0.327 C  
BRANCH  15  16
HETATM   16  N   UNL     1     -12.226  12.550  66.398  1.00  0.00    -0.555 NA 
HETATM   17  H   UNL     1     -13.177  12.217  66.557  1.00  0.00     0.000 HD 
BRANCH  16  18
HETATM   18  C   UNL     1     -12.155  14.019  66.311  1.00  0.00    -0.456 C  
BRANCH  18  19
HETATM   19  C   UNL     1     -11.462  14.472  65.009  1.00  0.00    -0.382 C  
HETATM   20  H   UNL     1     -12.016  15.359  63.346  1.00  0.00     0.000 HD 
HETATM   21  O   UNL     1     -12.443  15.080  64.148  1.00  0.00    -0.756 OA 
BRANCH  19  22
HETATM   22  C   UNL     1     -10.314  15.477  65.263  1.00  0.00    -0.386 C  
HETATM   23  C   UNL     1      -8.241  15.996  66.522  1.00  0.00    -0.334 C  
HETATM   24  C   UNL     1      -9.401  15.024  66.403  1.00  0.00    -0.334 C  
HETATM   25  C   UNL     1      -8.756  17.405  66.522  1.00  0.00    -0.290 A  
HETATM   26  C   UNL     1     -10.031  17.709  66.026  1.00  0.00    -0.209 A  
HETATM   27  O   UNL     1     -10.901  16.766  65.545  1.00  0.00    -0.313 OA 
HETATM   28  C   UNL     1     -10.502  19.025  66.045  1.00  0.00    -0.530 A  
HETATM   29  C   UNL     1      -9.694  20.049  66.538  1.00  0.00    -0.564 A  
HETATM   30  C   UNL     1      -8.423  19.748  67.013  1.00  0.00    -0.319 A  
HETATM   31  F   UNL     1      -7.645  20.729  67.490  1.00  0.00    -0.346 F  
HETATM   32  C   UNL     1      -7.947  18.442  67.007  1.00  0.00    -0.238 A  
ENDBRANCH  19  22
ENDBRANCH  18  19
ENDBRANCH  16  18
ENDBRANCH  15  16
ENDBRANCH   2  15
TORSDOF 6
ENDMDL
MODEL       19
REMARK 921   NORMALIZED FREE ENERGY PREDICTED BY IDOCK:   -7.65 KCAL/MOL
REMARK 922        TOTAL FREE ENERGY PREDICTED BY IDOCK:  -11.52 KCAL/MOL
REMARK 923 INTER-LIGAND FREE ENERGY PREDICTED BY IDOCK:  -10.17 KCAL/MOL
REMARK 924 INTRA-LIGAND FREE ENERGY PREDICTED BY IDOCK:   -1.34 KCAL/MOL
REMARK 927      BINDING AFFINITY PREDICTED BY RF-SCORE:    0.00 PKD
ROOT
HETATM    1  O   UNL     1      -8.111  12.204  66.592  1.00  0.00    -0.355 OA 
HETATM    2  C   UNL     1      -9.309  12.992  66.529  1.00  0.00    -0.217 C  
HETATM    3  H   UNL     1      -7.576  12.495  67.321  1.00  0.00     0.000 HD 
ENDROOT
BRANCH   2   4
HETATM    4  C   UNL     1     -10.055  12.916  67.881  1.00  0.00    -0.232 C  
HETATM    5  C   UNL     1     -12.651  14.798  71.700  1.00  0.00    -0.328 A  
HETATM    6  C   UNL     1     -11.770  15.793  71.296  1.00  0.00    -0.496 A  
HETATM    7  C   UNL     1     -11.412  12.216  67.765  1.00  0.00    -0.398 C  
HETATM    8  C   UNL     1     -12.009  12.068  69.154  1.00  0.00    -0.326 C  
HETATM    9  F   UNL     1     -13.440  15.005  72.764  1.00  0.00    -0.418 F  
HETATM   10  C   UNL     1     -10.953  15.575  70.184  1.00  0.00    -0.336 A  
HETATM   11  O   UNL     1     -10.199  14.250  68.404  1.00  0.00    -0.232 OA 
HETATM   12  C   UNL     1     -11.920  13.370  69.894  1.00  0.00    -0.408 A  
HETATM   13  C   UNL     1     -11.019  14.365  69.493  1.00  0.00    -0.197 A  
HETATM   14  C   UNL     1     -12.732  13.590  71.015  1.00  0.00    -0.399 A  
ENDBRANCH   2   4
BRANCH   2  15
HETATM   15  C   UNL     1     -10.177  12.519  65.346  1.00  0.00    -0.283 C  
BRANCH  15  16
HETATM   16  N   UNL     1     -10.381  13.583  64.346  1.00  0.00    -0.635 NA 
HETATM   17  H   UNL     1     -10.735  13.219  63.461  1.00  0.00     0.000 HD 
BRANCH  16  18
HETATM   18  C   UNL     1     -11.258  14.621  64.916  1.00  0.00    -0.396 C  
BRANCH  18  19
HETATM   19  C   UNL     1     -10.684  16.033  64.678  1.00  0.00    -0.042 C  
HETATM   20  H   UNL     1     -11.329  17.704  63.871  1.00  0.00     0.000 HD 
HETATM   21  O   UNL     1     -11.682  16.835  64.018  1.00  0.00    -1.120 OA 
BRANCH  19  22
HETATM   22  C   UNL     1     -10.256  16.731  65.990  1.00  0.00    -0.346 C  
HETATM   23  C   UNL     1     -10.414  18.749  67.424  1.00  0.00    -0.490 C  
HETATM   24  C   UNL     1     -10.778  18.166  66.070  1.00  0.00    -0.164 C  
HETATM   25  C   UNL     1      -8.967  18.486  67.720  1.00  0.00    -0.289 A  
HETATM   26  C   UNL     1      -8.263  17.478  67.047  1.00  0.00    -0.218 A  
HETATM   27  O   UNL     1      -8.814  16.694  66.067  1.00  0.00    -0.425 OA 
HETATM   28  C   UNL     1      -6.912  17.254  67.324  1.00  0.00    -0.194 A  
HETATM   29  C   UNL     1      -6.261  18.020  68.291  1.00  0.00    -0.183 A  
HETATM   30  C   UNL     1      -6.965  19.007  68.969  1.00  0.00    -0.319 A  
HETATM   31  F   UNL     1      -6.343  19.746  69.897  1.00  0.00    -0.320 F  
HETATM   32  C   UNL     1      -8.308  19.245  68.697  1.00  0.00    -0.407 A  
ENDBRANCH  19  22
ENDBRANCH  18  19
ENDBRANCH  16  18
ENDBRANCH  15  16
ENDBRANCH   2  15
TORSDOF 6
ENDMDL
MODEL       20
REMARK 921   NORMALIZED FREE ENERGY PREDICTED BY IDOCK:   -7.64 KCAL/MOL
REMARK 922        TOTAL FREE ENERGY PREDICTED BY IDOCK:  -11.51 KCAL/MOL
REMARK 923 INTER-LIGAND FREE ENERGY PREDICTED BY IDOCK:   -9.83 KCAL/MOL
REMARK 924 INTRA-LIGAND FREE ENERGY PREDICTED BY IDOCK:   -1.68 KCAL/MOL
REMARK 927      BINDING AFFINITY PREDICTED BY RF-SCORE:    0.00 PKD
ROOT
HETATM    1  O   UNL     1      -7.700  11.087  65.679  1.00  0.00    -0.346 OA 
HETATM    2  C   UNL     1      -9.129  11.113  65.558  1.00  0.00    -0.195 C  
HETATM    3  H   UNL     1      -7.440  11.528  66.479  1.00  0.00     0.000 HD 
ENDROOT
BRANCH   2   4
HETATM    4  C   UNL     1      -9.772  10.486  66.817  1.00  0.00    -0.179 C  
HETATM    5  C   UNL     1     -11.062   6.707  69.804  1.00  0.00    -0.342 A  
HETATM    6  C   UNL     1     -11.152   6.228  68.503  1.00  0.00    -0.397 A  
HETATM    7  C   UNL     1      -8.951  10.742  68.085  1.00  0.00    -0.140 C  
HETATM    8  C   UNL     1      -9.719  10.211  69.282  1.00  0.00    -0.238 C  
HETATM    9  F   UNL     1     -11.418   5.916  70.826  1.00  0.00    -0.357 F  
HETATM   10  C   UNL     1     -10.777   7.054  67.441  1.00  0.00    -0.383 A  
HETATM   11  O   UNL     1      -9.954   9.077  66.588  1.00  0.00    -0.232 OA 
HETATM   12  C   UNL     1     -10.217   8.824  69.002  1.00  0.00    -0.218 A  
HETATM   13  C   UNL     1     -10.322   8.349  67.688  1.00  0.00    -0.252 A  
HETATM   14  C   UNL     1     -10.603   7.994  70.064  1.00  0.00    -0.242 A  
ENDBRANCH   2   4
BRANCH   2  15
HETATM   15  C   UNL     1      -9.552  10.398  64.258  1.00  0.00    -0.318 C  
BRANCH  15  16
HETATM   16  N   UNL     1     -10.864  10.859  63.771  1.00  0.00    -0.493 NA 
HETATM   17  H   UNL     1     -11.602  10.727  64.463  1.00  0.00     0.000 HD 
BRANCH  16  18
HETATM   18  C   UNL     1     -10.752  12.261  63.332  1.00  0.00    -0.391 C  
BRANCH  18  19
HETATM   19  C   UNL     1     -12.056  13.040  63.600  1.00  0.00    -0.531 C  
HETATM   20  H   UNL     1     -13.933  12.579  63.950  1.00  0.00     0.000 HD 
HETATM   21  O   UNL     1     -13.130  12.099  63.784  1.00  0.00    -0.774 OA 
BRANCH  19  22
HETATM   22  C   UNL     1     -11.959  13.952  64.846  1.00  0.00    -0.395 C  
HETATM   23  C   UNL     1     -10.713  15.743  66.024  1.00  0.00    -0.311 C  
HETATM   24  C   UNL     1     -10.687  14.799  64.835  1.00  0.00    -0.438 C  
HETATM   25  C   UNL     1     -11.069  14.986  67.269  1.00  0.00    -0.334 A  
HETATM   26  C   UNL     1     -11.706  13.740  67.200  1.00  0.00    -0.385 A  
HETATM   27  O   UNL     1     -12.019  13.114  66.021  1.00  0.00    -0.391 OA 
HETATM   28  C   UNL     1     -12.020  13.040  68.368  1.00  0.00    -0.309 A  
HETATM   29  C   UNL     1     -11.718  13.589  69.614  1.00  0.00    -0.378 A  
HETATM   30  C   UNL     1     -11.101  14.833  69.680  1.00  0.00    -0.272 A  
HETATM   31  F   UNL     1     -10.808  15.363  70.875  1.00  0.00    -0.330 F  
HETATM   32  C   UNL     1     -10.777  15.535  68.525  1.00  0.00    -0.259 A  
ENDBRANCH  19  22
ENDBRANCH  18  19
ENDBRANCH  16  18
ENDBRANCH  15  16
ENDBRANCH   2  15
TORSDOF 6
ENDMDL
MODEL       21
REMARK 921   NORMALIZED FREE ENERGY PREDICTED BY IDOCK:   -7.63 KCAL/MOL
REMARK 922        TOTAL FREE ENERGY PREDICTED BY IDOCK:  -11.50 KCAL/MOL
REMARK 923 INTER-LIGAND FREE ENERGY PREDICTED BY IDOCK:   -9.99 KCAL/MOL
REMARK 924 INTRA-LIGAND FREE ENERGY PREDICTED BY IDOCK:   -1.51 KCAL/MOL
REMARK 927      BINDING AFFINITY PREDICTED BY RF-SCORE:    0.00 PKD
ROOT
HETATM    1  O   UNL     1     -11.700  10.439  67.872  1.00  0.00    -0.714 OA 
HETATM    2  C   UNL     1     -10.998  10.128  69.083  1.00  0.00    -0.230 C  
HETATM    3  H   UNL     1     -12.636  10.373  68.020  1.00  0.00     0.000 HD 
ENDROOT
BRANCH   2   4
HETATM    4  C   UNL     1     -11.485  11.053  70.222  1.00  0.00    -0.273 C  
HETATM    5  C   UNL     1     -13.553  15.190  72.087  1.00  0.00    -0.455 A  
HETATM    6  C   UNL     1     -12.862  15.577  70.946  1.00  0.00    -0.535 A  
HETATM    7  C   UNL     1     -12.764  10.539  70.891  1.00  0.00    -0.495 C  
HETATM    8  C   UNL     1     -13.091  11.430  72.076  1.00  0.00    -0.423 C  
HETATM    9  F   UNL     1     -14.161  16.118  72.838  1.00  0.00    -0.660 F  
HETATM   10  C   UNL     1     -12.233  14.605  70.163  1.00  0.00    -0.391 A  
HETATM   11  O   UNL     1     -11.670  12.378  69.692  1.00  0.00    -0.300 OA 
HETATM   12  C   UNL     1     -13.007  12.873  71.674  1.00  0.00    -0.410 A  
HETATM   13  C   UNL     1     -12.296  13.261  70.531  1.00  0.00    -0.316 A  
HETATM   14  C   UNL     1     -13.629  13.852  72.460  1.00  0.00    -0.680 A  
ENDBRANCH   2   4
BRANCH   2  15
HETATM   15  C   UNL     1      -9.478  10.236  68.842  1.00  0.00    -0.188 C  
BRANCH  15  16
HETATM   16  N   UNL     1      -9.164  10.830  67.530  1.00  0.00    -0.143 NA 
HETATM   17  H   UNL     1      -9.998  10.973  66.961  1.00  0.00     0.000 HD 
BRANCH  16  18
HETATM   18  C   UNL     1      -8.403  12.075  67.731  1.00  0.00    -0.156 C  
BRANCH  18  19
HETATM   19  C   UNL     1      -8.820  13.159  66.718  1.00  0.00    -0.132 C  
HETATM   20  H   UNL     1     -10.468  13.648  65.767  1.00  0.00     0.000 HD 
HETATM   21  O   UNL     1     -10.211  12.980  66.392  1.00  0.00    -0.267 OA 
BRANCH  19  22
HETATM   22  C   UNL     1      -8.604  14.593  67.256  1.00  0.00    -0.214 C  
HETATM   23  C   UNL     1      -8.357  16.057  69.243  1.00  0.00    -0.217 C  
HETATM   24  C   UNL     1      -8.686  14.648  68.782  1.00  0.00    -0.166 C  
HETATM   25  C   UNL     1      -9.139  17.053  68.438  1.00  0.00    -0.256 A  
HETATM   26  C   UNL     1      -9.690  16.706  67.197  1.00  0.00    -0.250 A  
HETATM   27  O   UNL     1      -9.591  15.454  66.648  1.00  0.00    -0.231 OA 
HETATM   28  C   UNL     1     -10.428  17.641  66.466  1.00  0.00    -0.283 A  
HETATM   29  C   UNL     1     -10.600  18.934  66.958  1.00  0.00    -0.510 A  
HETATM   30  C   UNL     1     -10.038  19.281  68.180  1.00  0.00    -0.412 A  
HETATM   31  F   UNL     1     -10.204  20.522  68.656  1.00  0.00    -0.452 F  
HETATM   32  C   UNL     1      -9.309  18.357  68.921  1.00  0.00    -0.228 A  
ENDBRANCH  19  22
ENDBRANCH  18  19
ENDBRANCH  16  18
ENDBRANCH  15  16
ENDBRANCH   2  15
TORSDOF 6
ENDMDL
MODEL       22
REMARK 921   NORMALIZED FREE ENERGY PREDICTED BY IDOCK:   -7.62 KCAL/MOL
REMARK 922        TOTAL FREE ENERGY PREDICTED BY IDOCK:  -11.48 KCAL/MOL
REMARK 923 INTER-LIGAND FREE ENERGY PREDICTED BY IDOCK:  -10.76 KCAL/MOL
REMARK 924 INTRA-LIGAND FREE ENERGY PREDICTED BY IDOCK:   -0.72 KCAL/MOL
REMARK 927      BINDING AFFINITY PREDICTED BY RF-SCORE:    0.00 PKD
ROOT
HETATM    1  O   UNL     1     -11.007  11.022  63.610  1.00  0.00    -0.564 OA 
HETATM    2  C   UNL     1     -11.043  12.003  64.657  1.00  0.00    -0.322 C  
HETATM    3  H   UNL     1     -10.136  10.650  63.552  1.00  0.00     0.000 HD 
ENDROOT
BRANCH   2   4
HETATM    4  C   UNL     1     -10.580  11.364  65.987  1.00  0.00    -0.266 C  
HETATM    5  C   UNL     1     -11.234   9.632  70.617  1.00  0.00    -0.320 A  
HETATM    6  C   UNL     1     -12.101  10.707  70.474  1.00  0.00    -0.448 A  
HETATM    7  C   UNL     1     -10.284   9.868  65.849  1.00  0.00    -0.264 C  
HETATM    8  C   UNL     1      -9.710   9.358  67.159  1.00  0.00    -0.225 C  
HETATM    9  F   UNL     1     -11.148   9.005  71.798  1.00  0.00    -0.353 F  
HETATM   10  C   UNL     1     -12.191  11.356  69.239  1.00  0.00    -0.271 A  
HETATM   11  O   UNL     1     -11.582  11.609  66.990  1.00  0.00    -0.500 OA 
HETATM   12  C   UNL     1     -10.548   9.834  68.309  1.00  0.00    -0.271 A  
HETATM   13  C   UNL     1     -11.411  10.929  68.166  1.00  0.00    -0.315 A  
HETATM   14  C   UNL     1     -10.456   9.192  69.552  1.00  0.00    -0.226 A  
ENDBRANCH   2   4
BRANCH   2  15
HETATM   15  C   UNL     1     -12.460  12.606  64.751  1.00  0.00    -0.484 C  
BRANCH  15  16
HETATM   16  N   UNL     1     -12.472  14.046  64.435  1.00  0.00    -0.669 NA 
HETATM   17  H   UNL     1     -13.409  14.386  64.218  1.00  0.00     0.000 HD 
BRANCH  16  18
HETATM   18  C   UNL     1     -11.847  14.791  65.542  1.00  0.00    -0.231 C  
BRANCH  18  19
HETATM   19  C   UNL     1     -10.677  15.663  65.043  1.00  0.00    -0.436 C  
HETATM   20  H   UNL     1     -10.485  17.271  63.931  1.00  0.00     0.000 HD 
HETATM   21  O   UNL     1     -11.206  16.734  64.239  1.00  0.00    -1.163 OA 
BRANCH  19  22
HETATM   22  C   UNL     1      -9.843  16.259  66.201  1.00  0.00    -0.334 C  
HETATM   23  C   UNL     1      -9.844  17.246  68.476  1.00  0.00    -0.307 C  
HETATM   24  C   UNL     1     -10.728  16.778  67.334  1.00  0.00    -0.244 C  
HETATM   25  C   UNL     1      -8.751  18.128  67.947  1.00  0.00    -0.266 A  
HETATM   26  C   UNL     1      -8.392  18.100  66.593  1.00  0.00    -0.263 A  
HETATM   27  O   UNL     1      -9.014  17.311  65.660  1.00  0.00    -0.481 OA 
HETATM   28  C   UNL     1      -7.381  18.937  66.112  1.00  0.00    -0.292 A  
HETATM   29  C   UNL     1      -6.707  19.791  66.985  1.00  0.00    -0.219 A  
HETATM   30  C   UNL     1      -7.053  19.804  68.331  1.00  0.00    -0.306 A  
HETATM   31  F   UNL     1      -6.410  20.624  69.172  1.00  0.00    -0.353 F  
HETATM   32  C   UNL     1      -8.063  18.982  68.820  1.00  0.00    -0.372 A  
ENDBRANCH  19  22
ENDBRANCH  18  19
ENDBRANCH  16  18
ENDBRANCH  15  16
ENDBRANCH   2  15
TORSDOF 6
ENDMDL
MODEL       23
REMARK 921   NORMALIZED FREE ENERGY PREDICTED BY IDOCK:   -7.61 KCAL/MOL
REMARK 922        TOTAL FREE ENERGY PREDICTED BY IDOCK:  -11.47 KCAL/MOL
REMARK 923 INTER-LIGAND FREE ENERGY PREDICTED BY IDOCK:   -9.80 KCAL/MOL
REMARK 924 INTRA-LIGAND FREE ENERGY PREDICTED BY IDOCK:   -1.67 KCAL/MOL
REMARK 927      BINDING AFFINITY PREDICTED BY RF-SCORE:    0.00 PKD
ROOT
HETATM    1  O   UNL     1      -7.545  12.491  66.457  1.00  0.00    -0.343 OA 
HETATM    2  C   UNL     1      -8.906  12.077  66.636  1.00  0.00    -0.191 C  
HETATM    3  H   UNL     1      -7.287  13.061  67.172  1.00  0.00     0.000 HD 
ENDROOT
BRANCH   2   4
HETATM    4  C   UNL     1      -9.069  11.405  68.019  1.00  0.00    -0.171 C  
HETATM    5  C   UNL     1     -11.650   9.233  71.692  1.00  0.00    -0.393 A  
HETATM    6  C   UNL     1     -12.491  10.184  71.131  1.00  0.00    -0.490 A  
HETATM    7  C   UNL     1      -8.509   9.980  68.050  1.00  0.00    -0.117 C  
HETATM    8  C   UNL     1      -8.588   9.452  69.472  1.00  0.00    -0.158 C  
HETATM    9  F   UNL     1     -12.062   8.530  72.757  1.00  0.00    -0.451 F  
HETATM   10  C   UNL     1     -12.059  10.911  70.019  1.00  0.00    -0.433 A  
HETATM   11  O   UNL     1     -10.462  11.426  68.381  1.00  0.00    -0.185 OA 
HETATM   12  C   UNL     1      -9.950   9.713  70.043  1.00  0.00    -0.288 A  
HETATM   13  C   UNL     1     -10.791  10.684  69.484  1.00  0.00    -0.259 A  
HETATM   14  C   UNL     1     -10.386   8.992  71.164  1.00  0.00    -0.362 A  
ENDBRANCH   2   4
BRANCH   2  15
HETATM   15  C   UNL     1      -9.324  11.152  65.475  1.00  0.00    -0.223 C  
BRANCH  15  16
HETATM   16  N   UNL     1     -10.726  11.364  65.073  1.00  0.00    -0.291 NA 
HETATM   17  H   UNL     1     -11.273  11.821  65.802  1.00  0.00     0.000 HD 
BRANCH  16  18
HETATM   18  C   UNL     1     -10.758  12.105  63.799  1.00  0.00    -0.437 C  
BRANCH  18  19
HETATM   19  C   UNL     1     -11.957  13.073  63.743  1.00  0.00    -0.518 C  
HETATM   20  H   UNL     1     -13.906  12.923  63.930  1.00  0.00     0.000 HD 
HETATM   21  O   UNL     1     -13.168  12.326  63.965  1.00  0.00    -0.757 OA 
BRANCH  19  22
HETATM   22  C   UNL     1     -11.858  14.206  64.791  1.00  0.00    -0.417 C  
HETATM   23  C   UNL     1     -10.531  16.096  65.696  1.00  0.00    -0.402 C  
HETATM   24  C   UNL     1     -10.515  14.934  64.719  1.00  0.00    -0.296 C  
HETATM   25  C   UNL     1     -11.035  15.635  67.031  1.00  0.00    -0.261 A  
HETATM   26  C   UNL     1     -11.779  14.453  67.153  1.00  0.00    -0.400 A  
HETATM   27  O   UNL     1     -12.071  13.629  66.097  1.00  0.00    -0.389 OA 
HETATM   28  C   UNL     1     -12.231  14.029  68.405  1.00  0.00    -0.202 A  
HETATM   29  C   UNL     1     -11.962  14.792  69.541  1.00  0.00    -0.351 A  
HETATM   30  C   UNL     1     -11.239  15.972  69.415  1.00  0.00    -0.349 A  
HETATM   31  F   UNL     1     -10.977  16.707  70.504  1.00  0.00    -0.328 F  
HETATM   32  C   UNL     1     -10.777  16.401  68.175  1.00  0.00    -0.336 A  
ENDBRANCH  19  22
ENDBRANCH  18  19
ENDBRANCH  16  18
ENDBRANCH  15  16
ENDBRANCH   2  15
TORSDOF 6
ENDMDL
MODEL       24
REMARK 921   NORMALIZED FREE ENERGY PREDICTED BY IDOCK:   -7.57 KCAL/MOL
REMARK 922        TOTAL FREE ENERGY PREDICTED BY IDOCK:  -11.42 KCAL/MOL
REMARK 923 INTER-LIGAND FREE ENERGY PREDICTED BY IDOCK:  -10.01 KCAL/MOL
REMARK 924 INTRA-LIGAND FREE ENERGY PREDICTED BY IDOCK:   -1.40 KCAL/MOL
REMARK 927      BINDING AFFINITY PREDICTED BY RF-SCORE:    0.00 PKD
ROOT
HETATM    1  O   UNL     1     -10.466  10.160  64.573  1.00  0.00    -0.300 OA 
HETATM    2  C   UNL     1      -9.778  10.889  65.599  1.00  0.00    -0.232 C  
HETATM    3  H   UNL     1     -10.068   9.304  64.467  1.00  0.00     0.000 HD 
ENDROOT
BRANCH   2   4
HETATM    4  C   UNL     1      -9.776  10.069  66.910  1.00  0.00    -0.189 C  
HETATM    5  C   UNL     1     -11.531   8.724  71.379  1.00  0.00    -0.297 A  
HETATM    6  C   UNL     1     -11.773  10.086  71.256  1.00  0.00    -0.452 A  
HETATM    7  C   UNL     1     -10.214   8.616  66.695  1.00  0.00    -0.343 C  
HETATM    8  C   UNL     1     -10.053   7.857  68.001  1.00  0.00    -0.235 C  
HETATM    9  F   UNL     1     -11.844   8.097  72.522  1.00  0.00    -0.371 F  
HETATM   10  C   UNL     1     -11.449  10.734  70.062  1.00  0.00    -0.412 A  
HETATM   11  O   UNL     1     -10.619  10.732  67.869  1.00  0.00    -0.192 OA 
HETATM   12  C   UNL     1     -10.653   8.641  69.130  1.00  0.00    -0.193 A  
HETATM   13  C   UNL     1     -10.882  10.018  69.008  1.00  0.00    -0.222 A  
HETATM   14  C   UNL     1     -10.973   7.997  70.333  1.00  0.00    -0.248 A  
ENDBRANCH   2   4
BRANCH   2  15
HETATM   15  C   UNL     1     -10.425  12.278  65.770  1.00  0.00    -0.255 C  
BRANCH  15  16
HETATM   16  N   UNL     1     -11.895  12.200  65.851  1.00  0.00    -0.546 NA 
HETATM   17  H   UNL     1     -12.209  11.442  66.457  1.00  0.00     0.000 HD 
BRANCH  16  18
HETATM   18  C   UNL     1     -12.427  13.509  66.271  1.00  0.00    -0.326 C  
BRANCH  18  19
HETATM   19  C   UNL     1     -11.303  14.439  66.768  1.00  0.00    -0.352 C  
HETATM   20  H   UNL     1     -10.371  16.026  66.080  1.00  0.00     0.000 HD 
HETATM   21  O   UNL     1     -11.064  15.452  65.773  1.00  0.00    -0.324 OA 
BRANCH  19  22
HETATM   22  C   UNL     1     -11.644  15.119  68.115  1.00  0.00    -0.341 C  
HETATM   23  C   UNL     1     -10.845  16.504  70.011  1.00  0.00    -0.258 C  
HETATM   24  C   UNL     1     -10.416  15.767  68.755  1.00  0.00    -0.228 C  
HETATM   25  C   UNL     1     -11.718  15.618  70.850  1.00  0.00    -0.423 A  
HETATM   26  C   UNL     1     -12.361  14.503  70.295  1.00  0.00    -0.349 A  
HETATM   27  O   UNL     1     -12.224  14.123  68.985  1.00  0.00    -0.332 OA 
HETATM   28  C   UNL     1     -13.160  13.680  71.093  1.00  0.00    -0.306 A  
HETATM   29  C   UNL     1     -13.340  13.976  72.444  1.00  0.00    -0.617 A  
HETATM   30  C   UNL     1     -12.715  15.092  72.987  1.00  0.00    -0.456 A  
HETATM   31  F   UNL     1     -12.883  15.378  74.285  1.00  0.00    -0.598 F  
HETATM   32  C   UNL     1     -11.911  15.914  72.206  1.00  0.00    -0.617 A  
ENDBRANCH  19  22
ENDBRANCH  18  19
ENDBRANCH  16  18
ENDBRANCH  15  16
ENDBRANCH   2  15
TORSDOF 6
ENDMDL
MODEL       25
REMARK 921   NORMALIZED FREE ENERGY PREDICTED BY IDOCK:   -7.54 KCAL/MOL
REMARK 922        TOTAL FREE ENERGY PREDICTED BY IDOCK:  -11.37 KCAL/MOL
REMARK 923 INTER-LIGAND FREE ENERGY PREDICTED BY IDOCK:   -9.75 KCAL/MOL
REMARK 924 INTRA-LIGAND FREE ENERGY PREDICTED BY IDOCK:   -1.62 KCAL/MOL
REMARK 927      BINDING AFFINITY PREDICTED BY RF-SCORE:    0.00 PKD
ROOT
HETATM    1  O   UNL     1     -12.234  11.191  68.472  1.00  0.00    -0.684 OA 
HETATM    2  C   UNL     1     -11.093  10.354  68.233  1.00  0.00    -0.281 C  
HETATM    3  H   UNL     1     -12.975  10.655  68.724  1.00  0.00     0.000 HD 
ENDROOT
BRANCH   2   4
HETATM    4  C   UNL     1     -10.805   9.495  69.486  1.00  0.00    -0.222 C  
HETATM    5  C   UNL     1      -8.065   7.963  73.360  1.00  0.00    -0.177 A  
HETATM    6  C   UNL     1      -7.170   8.266  72.342  1.00  0.00    -0.127 A  
HETATM    7  C   UNL     1     -11.635   9.928  70.699  1.00  0.00    -0.413 C  
HETATM    8  C   UNL     1     -11.389   8.951  71.836  1.00  0.00    -0.446 C  
HETATM    9  F   UNL     1      -7.607   7.458  74.515  1.00  0.00    -0.126 F  
HETATM   10  C   UNL     1      -7.652   8.795  71.142  1.00  0.00    -0.134 A  
HETATM   11  O   UNL     1      -9.396   9.552  69.771  1.00  0.00    -0.181 OA 
HETATM   12  C   UNL     1      -9.917   8.716  72.004  1.00  0.00    -0.399 A  
HETATM   13  C   UNL     1      -9.019   9.009  70.970  1.00  0.00    -0.241 A  
HETATM   14  C   UNL     1      -9.430   8.178  73.203  1.00  0.00    -0.316 A  
ENDBRANCH   2   4
BRANCH   2  15
HETATM   15  C   UNL     1      -9.888  11.226  67.823  1.00  0.00    -0.173 C  
BRANCH  15  16
HETATM   16  N   UNL     1     -10.057  12.633  68.227  1.00  0.00    -0.230 NA 
HETATM   17  H   UNL     1      -9.340  12.934  68.887  1.00  0.00     0.000 HD 
BRANCH  16  18
HETATM   18  C   UNL     1     -10.102  13.481  67.023  1.00  0.00    -0.244 C  
BRANCH  18  19
HETATM   19  C   UNL     1     -11.416  14.284  66.951  1.00  0.00    -0.363 C  
HETATM   20  H   UNL     1     -13.308  13.875  66.617  1.00  0.00     0.000 HD 
HETATM   21  O   UNL     1     -12.499  13.380  66.661  1.00  0.00    -0.308 OA 
BRANCH  19  22
HETATM   22  C   UNL     1     -11.724  15.044  68.263  1.00  0.00    -0.314 C  
HETATM   23  C   UNL     1     -10.899  16.591  70.017  1.00  0.00    -0.258 C  
HETATM   24  C   UNL     1     -10.497  15.784  68.795  1.00  0.00    -0.228 C  
HETATM   25  C   UNL     1     -11.692  15.732  70.957  1.00  0.00    -0.462 A  
HETATM   26  C   UNL     1     -12.311  14.555  70.513  1.00  0.00    -0.337 A  
HETATM   27  O   UNL     1     -12.218  14.089  69.227  1.00  0.00    -0.344 OA 
HETATM   28  C   UNL     1     -13.035  13.759  71.404  1.00  0.00    -0.433 A  
HETATM   29  C   UNL     1     -13.164  14.143  72.739  1.00  0.00    -0.604 A  
HETATM   30  C   UNL     1     -12.564  15.318  73.172  1.00  0.00    -0.463 A  
HETATM   31  F   UNL     1     -12.684  15.689  74.454  1.00  0.00    -0.605 F  
HETATM   32  C   UNL     1     -11.834  16.115  72.297  1.00  0.00    -0.631 A  
ENDBRANCH  19  22
ENDBRANCH  18  19
ENDBRANCH  16  18
ENDBRANCH  15  16
ENDBRANCH   2  15
TORSDOF 6
ENDMDL
MODEL       26
REMARK 921   NORMALIZED FREE ENERGY PREDICTED BY IDOCK:   -7.52 KCAL/MOL
REMARK 922        TOTAL FREE ENERGY PREDICTED BY IDOCK:  -11.34 KCAL/MOL
REMARK 923 INTER-LIGAND FREE ENERGY PREDICTED BY IDOCK:   -9.77 KCAL/MOL
REMARK 924 INTRA-LIGAND FREE ENERGY PREDICTED BY IDOCK:   -1.57 KCAL/MOL
REMARK 927      BINDING AFFINITY PREDICTED BY RF-SCORE:    0.00 PKD
ROOT
HETATM    1  O   UNL     1      -9.274   9.303  68.072  1.00  0.00    -0.131 OA 
HETATM    2  C   UNL     1      -9.473   8.721  66.777  1.00  0.00    -0.191 C  
HETATM    3  H   UNL     1      -8.829  10.137  67.982  1.00  0.00     0.000 HD 
ENDROOT
BRANCH   2   4
HETATM    4  C   UNL     1     -10.244   9.710  65.873  1.00  0.00    -0.149 C  
HETATM    5  C   UNL     1     -12.157  14.156  64.672  1.00  0.00    -0.452 A  
HETATM    6  C   UNL     1     -12.262  14.044  66.052  1.00  0.00    -0.484 A  
HETATM    7  C   UNL     1      -9.447  10.114  64.629  1.00  0.00    -0.357 C  
HETATM    8  C   UNL     1     -10.327  10.974  63.739  1.00  0.00    -0.427 C  
HETATM    9  F   UNL     1     -12.658  15.237  64.057  1.00  0.00    -0.473 F  
HETATM   10  C   UNL     1     -11.735  12.918  66.690  1.00  0.00    -0.452 A  
HETATM   11  O   UNL     1     -10.609  10.862  66.655  1.00  0.00    -0.246 OA 
HETATM   12  C   UNL     1     -10.999  12.040  64.553  1.00  0.00    -0.369 A  
HETATM   13  C   UNL     1     -11.116  11.916  65.943  1.00  0.00    -0.316 A  
HETATM   14  C   UNL     1     -11.536  13.167  63.917  1.00  0.00    -0.488 A  
ENDBRANCH   2   4
BRANCH   2  15
HETATM   15  C   UNL     1     -10.196   7.366  66.924  1.00  0.00    -0.276 C  
BRANCH  15  16
HETATM   16  N   UNL     1      -9.897   6.713  68.211  1.00  0.00    -0.135 NA 
HETATM   17  H   UNL     1      -9.277   7.275  68.794  1.00  0.00     0.000 HD 
BRANCH  16  18
HETATM   18  C   UNL     1     -11.161   6.383  68.893  1.00  0.00    -0.348 C  
BRANCH  18  19
HETATM   19  C   UNL     1     -10.973   6.314  70.422  1.00  0.00    -0.322 C  
HETATM   20  H   UNL     1      -9.462   6.059  71.651  1.00  0.00     0.000 HD 
HETATM   21  O   UNL     1      -9.578   6.102  70.710  1.00  0.00    -0.167 OA 
BRANCH  19  22
HETATM   22  C   UNL     1     -11.452   7.597  71.139  1.00  0.00    -0.275 C  
HETATM   23  C   UNL     1     -13.275   8.733  72.380  1.00  0.00    -0.441 C  
HETATM   24  C   UNL     1     -12.908   7.489  71.591  1.00  0.00    -0.392 C  
HETATM   25  C   UNL     1     -12.837   9.958  71.632  1.00  0.00    -0.537 A  
HETATM   26  C   UNL     1     -11.861   9.882  70.629  1.00  0.00    -0.303 A  
HETATM   27  O   UNL     1     -11.266   8.710  70.239  1.00  0.00    -0.249 OA 
HETATM   28  C   UNL     1     -11.473  11.029  69.932  1.00  0.00    -0.400 A  
HETATM   29  C   UNL     1     -12.042  12.264  70.247  1.00  0.00    -0.376 A  
HETATM   30  C   UNL     1     -12.997  12.339  71.253  1.00  0.00    -0.204 A  
HETATM   31  F   UNL     1     -13.547  13.522  71.556  1.00  0.00    -0.406 F  
HETATM   32  C   UNL     1     -13.397  11.203  71.948  1.00  0.00    -0.409 A  
ENDBRANCH  19  22
ENDBRANCH  18  19
ENDBRANCH  16  18
ENDBRANCH  15  16
ENDBRANCH   2  15
TORSDOF 6
ENDMDL
MODEL       27
REMARK 921   NORMALIZED FREE ENERGY PREDICTED BY IDOCK:   -7.50 KCAL/MOL
REMARK 922        TOTAL FREE ENERGY PREDICTED BY IDOCK:  -11.31 KCAL/MOL
REMARK 923 INTER-LIGAND FREE ENERGY PREDICTED BY IDOCK:  -10.74 KCAL/MOL
REMARK 924 INTRA-LIGAND FREE ENERGY PREDICTED BY IDOCK:   -0.58 KCAL/MOL
REMARK 927      BINDING AFFINITY PREDICTED BY RF-SCORE:    0.00 PKD
ROOT
HETATM    1  O   UNL     1     -12.354  14.865  63.739  1.00  0.00    -1.022 OA 
HETATM    2  C   UNL     1     -11.809  14.674  65.052  1.00  0.00    -0.377 C  
HETATM    3  H   UNL     1     -12.601  15.774  63.625  1.00  0.00     0.000 HD 
ENDROOT
BRANCH   2   4
HETATM    4  C   UNL     1     -10.624  15.643  65.271  1.00  0.00    -0.426 C  
HETATM    5  C   UNL     1      -8.470  19.807  66.970  1.00  0.00    -0.319 A  
HETATM    6  C   UNL     1      -9.766  20.154  66.611  1.00  0.00    -0.568 A  
HETATM    7  C   UNL     1      -9.627  15.126  66.312  1.00  0.00    -0.325 C  
HETATM    8  C   UNL     1      -8.437  16.068  66.363  1.00  0.00    -0.363 C  
HETATM    9  F   UNL     1      -7.628  20.755  67.405  1.00  0.00    -0.348 F  
HETATM   10  C   UNL     1     -10.642  19.162  66.162  1.00  0.00    -0.524 A  
HETATM   11  O   UNL     1     -11.145  16.932  65.643  1.00  0.00    -0.042 OA 
HETATM   12  C   UNL     1      -8.909  17.490  66.448  1.00  0.00    -0.269 A  
HETATM   13  C   UNL     1     -10.212  17.838  66.071  1.00  0.00    -0.293 A  
HETATM   14  C   UNL     1      -8.032  18.490  66.890  1.00  0.00    -0.250 A  
ENDBRANCH   2   4
BRANCH   2  15
HETATM   15  C   UNL     1     -11.408  13.196  65.237  1.00  0.00    -0.296 C  
BRANCH  15  16
HETATM   16  N   UNL     1     -12.091  12.575  66.386  1.00  0.00    -0.597 NA 
HETATM   17  H   UNL     1     -12.954  12.104  66.115  1.00  0.00     0.000 HD 
BRANCH  16  18
HETATM   18  C   UNL     1     -11.153  11.671  67.076  1.00  0.00    -0.302 C  
BRANCH  18  19
HETATM   19  C   UNL     1     -11.040  12.017  68.575  1.00  0.00    -0.244 C  
HETATM   20  H   UNL     1     -11.849  13.333  69.788  1.00  0.00     0.000 HD 
HETATM   21  O   UNL     1     -11.919  13.120  68.865  1.00  0.00    -0.309 OA 
BRANCH  19  22
HETATM   22  C   UNL     1     -11.402  10.823  69.490  1.00  0.00    -0.289 C  
HETATM   23  C   UNL     1     -12.784   9.986  71.372  1.00  0.00    -0.518 C  
HETATM   24  C   UNL     1     -12.392  11.223  70.585  1.00  0.00    -0.477 C  
HETATM   25  C   UNL     1     -11.556   9.212  71.752  1.00  0.00    -0.457 A  
HETATM   26  C   UNL     1     -10.344   9.400  71.072  1.00  0.00    -0.312 A  
HETATM   27  O   UNL     1     -10.179  10.304  70.055  1.00  0.00    -0.246 OA 
HETATM   28  C   UNL     1      -9.206   8.682  71.446  1.00  0.00    -0.303 A  
HETATM   29  C   UNL     1      -9.274   7.756  72.487  1.00  0.00    -0.227 A  
HETATM   30  C   UNL     1     -10.480   7.559  73.147  1.00  0.00    -0.364 A  
HETATM   31  F   UNL     1     -10.549   6.671  74.149  1.00  0.00    -0.345 F  
HETATM   32  C   UNL     1     -11.619   8.273  72.789  1.00  0.00    -0.326 A  
ENDBRANCH  19  22
ENDBRANCH  18  19
ENDBRANCH  16  18
ENDBRANCH  15  16
ENDBRANCH   2  15
TORSDOF 6
ENDMDL
MODEL       28
REMARK 921   NORMALIZED FREE ENERGY PREDICTED BY IDOCK:   -7.48 KCAL/MOL
REMARK 922        TOTAL FREE ENERGY PREDICTED BY IDOCK:  -11.28 KCAL/MOL
REMARK 923 INTER-LIGAND FREE ENERGY PREDICTED BY IDOCK:  -10.41 KCAL/MOL
REMARK 924 INTRA-LIGAND FREE ENERGY PREDICTED BY IDOCK:   -0.87 KCAL/MOL
REMARK 927      BINDING AFFINITY PREDICTED BY RF-SCORE:    0.00 PKD
ROOT
HETATM    1  O   UNL     1     -12.232  14.677  67.212  1.00  0.00    -0.548 OA 
HETATM    2  C   UNL     1     -11.451  14.508  66.020  1.00  0.00    -0.348 C  
HETATM    3  H   UNL     1     -11.658  14.719  67.967  1.00  0.00     0.000 HD 
ENDROOT
BRANCH   2   4
HETATM    4  C   UNL     1     -10.410  15.647  65.913  1.00  0.00    -0.350 C  
HETATM    5  C   UNL     1      -8.449  20.077  67.090  1.00  0.00    -0.334 A  
HETATM    6  C   UNL     1      -9.827  20.223  67.178  1.00  0.00    -0.606 A  
HETATM    7  C   UNL     1      -9.069  15.280  66.555  1.00  0.00    -0.334 C  
HETATM    8  C   UNL     1      -8.074  16.395  66.286  1.00  0.00    -0.311 C  
HETATM    9  F   UNL     1      -7.658  21.140  67.293  1.00  0.00    -0.407 F  
HETATM   10  C   UNL     1     -10.648  19.112  66.969  1.00  0.00    -0.551 A  
HETATM   11  O   UNL     1     -10.965  16.836  66.504  1.00  0.00    -0.064 OA 
HETATM   12  C   UNL     1      -8.693  17.725  66.597  1.00  0.00    -0.281 A  
HETATM   13  C   UNL     1     -10.084  17.871  66.669  1.00  0.00    -0.362 A  
HETATM   14  C   UNL     1      -7.874  18.845  66.799  1.00  0.00    -0.262 A  
ENDBRANCH   2   4
BRANCH   2  15
HETATM   15  C   UNL     1     -12.384  14.440  64.794  1.00  0.00    -0.414 C  
BRANCH  15  16
HETATM   16  N   UNL     1     -11.798  13.656  63.693  1.00  0.00    -0.708 NA 
HETATM   17  H   UNL     1     -10.809  13.864  63.553  1.00  0.00     0.000 HD 
BRANCH  16  18
HETATM   18  C   UNL     1     -12.041  12.223  63.935  1.00  0.00    -0.506 C  
BRANCH  18  19
HETATM   19  C   UNL     1     -10.725  11.419  63.917  1.00  0.00    -0.397 C  
HETATM   20  H   UNL     1      -8.908  11.695  63.225  1.00  0.00     0.000 HD 
HETATM   21  O   UNL     1      -9.718  12.190  63.236  1.00  0.00    -0.370 OA 
BRANCH  19  22
HETATM   22  C   UNL     1     -10.223  11.067  65.337  1.00  0.00    -0.274 C  
HETATM   23  C   UNL     1      -9.265   9.342  66.840  1.00  0.00    -0.178 C  
HETATM   24  C   UNL     1      -9.850   9.590  65.461  1.00  0.00    -0.304 C  
HETATM   25  C   UNL     1     -10.147   9.957  67.886  1.00  0.00    -0.210 A  
HETATM   26  C   UNL     1     -11.068  10.961  67.556  1.00  0.00    -0.310 A  
HETATM   27  O   UNL     1     -11.256  11.426  66.280  1.00  0.00    -0.270 OA 
HETATM   28  C   UNL     1     -11.892  11.515  68.539  1.00  0.00    -0.365 A  
HETATM   29  C   UNL     1     -11.787  11.086  69.862  1.00  0.00    -0.431 A  
HETATM   30  C   UNL     1     -10.862  10.103  70.190  1.00  0.00    -0.311 A  
HETATM   31  F   UNL     1     -10.760   9.687  71.459  1.00  0.00    -0.403 F  
HETATM   32  C   UNL     1     -10.041   9.538  69.219  1.00  0.00    -0.203 A  
ENDBRANCH  19  22
ENDBRANCH  18  19
ENDBRANCH  16  18
ENDBRANCH  15  16
ENDBRANCH   2  15
TORSDOF 6
ENDMDL
MODEL       29
REMARK 921   NORMALIZED FREE ENERGY PREDICTED BY IDOCK:   -7.46 KCAL/MOL
REMARK 922        TOTAL FREE ENERGY PREDICTED BY IDOCK:  -11.27 KCAL/MOL
REMARK 923 INTER-LIGAND FREE ENERGY PREDICTED BY IDOCK:   -9.97 KCAL/MOL
REMARK 924 INTRA-LIGAND FREE ENERGY PREDICTED BY IDOCK:   -1.30 KCAL/MOL
REMARK 927      BINDING AFFINITY PREDICTED BY RF-SCORE:    0.00 PKD
ROOT
HETATM    1  O   UNL     1     -12.222  10.662  68.784  1.00  0.00    -0.790 OA 
HETATM    2  C   UNL     1     -10.878  10.163  68.833  1.00  0.00    -0.223 C  
HETATM    3  H   UNL     1     -12.830   9.961  68.984  1.00  0.00     0.000 HD 
ENDROOT
BRANCH   2   4
HETATM    4  C   UNL     1     -10.610   9.521  70.214  1.00  0.00    -0.266 C  
HETATM    5  C   UNL     1     -10.634   5.791  73.524  1.00  0.00    -0.269 A  
HETATM    6  C   UNL     1     -11.772   5.631  72.744  1.00  0.00    -0.233 A  
HETATM    7  C   UNL     1      -9.122   9.259  70.462  1.00  0.00    -0.307 C  
HETATM    8  C   UNL     1      -8.941   8.757  71.884  1.00  0.00    -0.254 C  
HETATM    9  F   UNL     1     -10.412   4.957  74.550  1.00  0.00    -0.254 F  
HETATM   10  C   UNL     1     -11.996   6.499  71.673  1.00  0.00    -0.387 A  
HETATM   11  O   UNL     1     -11.378   8.307  70.315  1.00  0.00    -0.234 OA 
HETATM   12  C   UNL     1      -9.932   7.669  72.176  1.00  0.00    -0.232 A  
HETATM   13  C   UNL     1     -11.087   7.520  71.397  1.00  0.00    -0.238 A  
HETATM   14  C   UNL     1      -9.716   6.800  73.255  1.00  0.00    -0.199 A  
ENDBRANCH   2   4
BRANCH   2  15
HETATM   15  C   UNL     1      -9.890  11.302  68.508  1.00  0.00    -0.197 C  
BRANCH  15  16
HETATM   16  N   UNL     1      -9.887  11.642  67.074  1.00  0.00    -0.191 NA 
HETATM   17  H   UNL     1     -10.648  11.189  66.567  1.00  0.00     0.000 HD 
BRANCH  16  18
HETATM   18  C   UNL     1      -9.910  13.108  66.924  1.00  0.00    -0.249 C  
BRANCH  18  19
HETATM   19  C   UNL     1     -11.353  13.640  66.814  1.00  0.00    -0.328 C  
HETATM   20  H   UNL     1     -13.141  12.850  66.625  1.00  0.00     0.000 HD 
HETATM   21  O   UNL     1     -12.252  12.522  66.694  1.00  0.00    -0.552 OA 
BRANCH  19  22
HETATM   22  C   UNL     1     -11.766  14.498  68.032  1.00  0.00    -0.342 C  
HETATM   23  C   UNL     1     -11.123  16.263  69.652  1.00  0.00    -0.333 C  
HETATM   24  C   UNL     1     -10.616  15.373  68.531  1.00  0.00    -0.240 C  
HETATM   25  C   UNL     1     -11.894  15.444  70.645  1.00  0.00    -0.388 A  
HETATM   26  C   UNL     1     -12.412  14.188  70.298  1.00  0.00    -0.353 A  
HETATM   27  O   UNL     1     -12.234  13.608  69.069  1.00  0.00    -0.334 OA 
HETATM   28  C   UNL     1     -13.117  13.431  71.238  1.00  0.00    -0.317 A  
HETATM   29  C   UNL     1     -13.328  13.931  72.522  1.00  0.00    -0.656 A  
HETATM   30  C   UNL     1     -12.828  15.183  72.858  1.00  0.00    -0.435 A  
HETATM   31  F   UNL     1     -13.027  15.667  74.092  1.00  0.00    -0.587 F  
HETATM   32  C   UNL     1     -12.118  15.943  71.934  1.00  0.00    -0.578 A  
ENDBRANCH  19  22
ENDBRANCH  18  19
ENDBRANCH  16  18
ENDBRANCH  15  16
ENDBRANCH   2  15
TORSDOF 6
ENDMDL
MODEL       30
REMARK 921   NORMALIZED FREE ENERGY PREDICTED BY IDOCK:   -7.46 KCAL/MOL
REMARK 922        TOTAL FREE ENERGY PREDICTED BY IDOCK:  -11.27 KCAL/MOL
REMARK 923 INTER-LIGAND FREE ENERGY PREDICTED BY IDOCK:   -8.09 KCAL/MOL
REMARK 924 INTRA-LIGAND FREE ENERGY PREDICTED BY IDOCK:   -3.18 KCAL/MOL
REMARK 927      BINDING AFFINITY PREDICTED BY RF-SCORE:    0.00 PKD
ROOT
HETATM    1  O   UNL     1     -14.108   8.917  73.356  1.00  0.00    -1.256 OA 
HETATM    2  C   UNL     1     -13.606   8.847  72.014  1.00  0.00    -0.441 C  
HETATM    3  H   UNL     1     -14.585   8.121  73.560  1.00  0.00     0.000 HD 
ENDROOT
BRANCH   2   4
HETATM    4  C   UNL     1     -12.740   7.576  71.847  1.00  0.00    -0.289 C  
HETATM    5  C   UNL     1      -9.515   4.609  69.468  1.00  0.00    -0.166 A  
HETATM    6  C   UNL     1     -10.281   5.223  68.486  1.00  0.00    -0.214 A  
HETATM    7  C   UNL     1     -11.517   7.572  72.769  1.00  0.00    -0.352 C  
HETATM    8  C   UNL     1     -10.806   6.237  72.635  1.00  0.00    -0.273 C  
HETATM    9  F   UNL     1      -8.597   3.697  69.117  1.00  0.00    -0.080 F  
HETATM   10  C   UNL     1     -11.233   6.176  68.856  1.00  0.00    -0.338 A  
HETATM   11  O   UNL     1     -12.353   7.461  70.466  1.00  0.00    -0.105 OA 
HETATM   12  C   UNL     1     -10.629   5.891  71.187  1.00  0.00    -0.306 A  
HETATM   13  C   UNL     1     -11.414   6.500  70.200  1.00  0.00    -0.415 A  
HETATM   14  C   UNL     1      -9.680   4.929  70.812  1.00  0.00    -0.268 A  
ENDBRANCH   2   4
BRANCH   2  15
HETATM   15  C   UNL     1     -12.831  10.139  71.684  1.00  0.00    -0.454 C  
BRANCH  15  16
HETATM   16  N   UNL     1     -12.792  10.408  70.235  1.00  0.00    -0.533 NA 
HETATM   17  H   UNL     1     -13.716  10.356  69.807  1.00  0.00     0.000 HD 
BRANCH  16  18
HETATM   18  C   UNL     1     -12.139  11.708  70.001  1.00  0.00    -0.319 C  
BRANCH  18  19
HETATM   19  C   UNL     1     -11.528  11.784  68.587  1.00  0.00    -0.288 C  
HETATM   20  H   UNL     1     -10.803  13.198  67.433  1.00  0.00     0.000 HD 
HETATM   21  O   UNL     1     -11.179  13.152  68.304  1.00  0.00    -0.244 OA 
BRANCH  19  22
HETATM   22  C   UNL     1     -10.270  10.896  68.434  1.00  0.00    -0.178 C  
HETATM   23  C   UNL     1      -9.170   9.037  67.216  1.00  0.00    -0.159 C  
HETATM   24  C   UNL     1     -10.473   9.795  67.392  1.00  0.00    -0.319 C  
HETATM   25  C   UNL     1      -8.607   8.671  68.557  1.00  0.00    -0.135 A  
HETATM   26  C   UNL     1      -9.013   9.343  69.719  1.00  0.00    -0.188 A  
HETATM   27  O   UNL     1      -9.954  10.340  69.728  1.00  0.00    -0.230 OA 
HETATM   28  C   UNL     1      -8.490   8.981  70.963  1.00  0.00    -0.254 A  
HETATM   29  C   UNL     1      -7.542   7.962  71.054  1.00  0.00    -0.082 A  
HETATM   30  C   UNL     1      -7.130   7.309  69.899  1.00  0.00    -0.065 A  
HETATM   31  F   UNL     1      -6.221   6.327  69.982  1.00  0.00    -0.026 F  
HETATM   32  C   UNL     1      -7.648   7.654  68.656  1.00  0.00    -0.109 A  
ENDBRANCH  19  22
ENDBRANCH  18  19
ENDBRANCH  16  18
ENDBRANCH  15  16
ENDBRANCH   2  15
TORSDOF 6
ENDMDL
MODEL       31
REMARK 921   NORMALIZED FREE ENERGY PREDICTED BY IDOCK:   -7.44 KCAL/MOL
REMARK 922        TOTAL FREE ENERGY PREDICTED BY IDOCK:  -11.24 KCAL/MOL
REMARK 923 INTER-LIGAND FREE ENERGY PREDICTED BY IDOCK:   -9.25 KCAL/MOL
REMARK 924 INTRA-LIGAND FREE ENERGY PREDICTED BY IDOCK:   -1.99 KCAL/MOL
REMARK 927      BINDING AFFINITY PREDICTED BY RF-SCORE:    0.00 PKD
ROOT
HETATM    1  O   UNL     1      -8.794  11.696  62.796  1.00  0.00    -0.623 OA 
HETATM    2  C   UNL     1      -9.725  10.785  63.396  1.00  0.00    -0.351 C  
HETATM    3  H   UNL     1      -9.261  12.444  62.444  1.00  0.00     0.000 HD 
ENDROOT
BRANCH   2   4
HETATM    4  C   UNL     1     -10.558  11.523  64.470  1.00  0.00    -0.329 C  
HETATM    5  C   UNL     1     -11.340  15.006  67.951  1.00  0.00    -0.333 A  
HETATM    6  C   UNL     1      -9.999  14.655  68.042  1.00  0.00    -0.220 A  
HETATM    7  C   UNL     1     -11.668  12.387  63.862  1.00  0.00    -0.529 C  
HETATM    8  C   UNL     1     -12.512  12.962  64.985  1.00  0.00    -0.553 C  
HETATM    9  F   UNL     1     -11.852  15.888  68.821  1.00  0.00    -0.364 F  
HETATM   10  C   UNL     1      -9.468  13.739  67.130  1.00  0.00    -0.244 A  
HETATM   11  O   UNL     1      -9.669  12.310  65.282  1.00  0.00    -0.218 OA 
HETATM   12  C   UNL     1     -11.629  13.548  66.047  1.00  0.00    -0.363 A  
HETATM   13  C   UNL     1     -10.281  13.180  66.145  1.00  0.00    -0.290 A  
HETATM   14  C   UNL     1     -12.159  14.462  66.969  1.00  0.00    -0.374 A  
ENDBRANCH   2   4
BRANCH   2  15
HETATM   15  C   UNL     1      -8.966   9.570  63.967  1.00  0.00    -0.188 C  
BRANCH  15  16
HETATM   16  N   UNL     1      -9.603   9.039  65.186  1.00  0.00    -0.421 NA 
HETATM   17  H   UNL     1     -10.174   8.216  64.997  1.00  0.00     0.000 HD 
BRANCH  16  18
HETATM   18  C   UNL     1      -8.566   8.781  66.201  1.00  0.00    -0.146 C  
BRANCH  18  19
HETATM   19  C   UNL     1      -9.001   7.671  67.178  1.00  0.00    -0.126 C  
HETATM   20  H   UNL     1      -8.137   6.142  68.059  1.00  0.00     0.000 HD 
HETATM   21  O   UNL     1      -7.869   6.826  67.456  1.00  0.00    -0.108 OA 
BRANCH  19  22
HETATM   22  C   UNL     1      -9.557   8.232  68.508  1.00  0.00    -0.149 C  
HETATM   23  C   UNL     1     -10.956   7.830  70.517  1.00  0.00    -0.251 C  
HETATM   24  C   UNL     1     -10.538   7.265  69.171  1.00  0.00    -0.219 C  
HETATM   25  C   UNL     1     -11.347   9.270  70.366  1.00  0.00    -0.283 A  
HETATM   26  C   UNL     1     -10.932  10.020  69.257  1.00  0.00    -0.228 A  
HETATM   27  O   UNL     1     -10.182   9.504  68.232  1.00  0.00    -0.177 OA 
HETATM   28  C   UNL     1     -11.316  11.357  69.124  1.00  0.00    -0.353 A  
HETATM   29  C   UNL     1     -12.098  11.961  70.108  1.00  0.00    -0.382 A  
HETATM   30  C   UNL     1     -12.494  11.220  71.215  1.00  0.00    -0.336 A  
HETATM   31  F   UNL     1     -13.248  11.796  72.161  1.00  0.00    -0.589 F  
HETATM   32  C   UNL     1     -12.125   9.887  71.355  1.00  0.00    -0.501 A  
ENDBRANCH  19  22
ENDBRANCH  18  19
ENDBRANCH  16  18
ENDBRANCH  15  16
ENDBRANCH   2  15
TORSDOF 6
ENDMDL
MODEL       32
REMARK 921   NORMALIZED FREE ENERGY PREDICTED BY IDOCK:   -7.42 KCAL/MOL
REMARK 922        TOTAL FREE ENERGY PREDICTED BY IDOCK:  -11.20 KCAL/MOL
REMARK 923 INTER-LIGAND FREE ENERGY PREDICTED BY IDOCK:   -9.82 KCAL/MOL
REMARK 924 INTRA-LIGAND FREE ENERGY PREDICTED BY IDOCK:   -1.39 KCAL/MOL
REMARK 927      BINDING AFFINITY PREDICTED BY RF-SCORE:    0.00 PKD
ROOT
HETATM    1  O   UNL     1      -8.408   9.931  64.571  1.00  0.00    -0.145 OA 
HETATM    2  C   UNL     1      -9.769   9.742  64.983  1.00  0.00    -0.233 C  
HETATM    3  H   UNL     1      -8.388  10.340  63.715  1.00  0.00     0.000 HD 
ENDROOT
BRANCH   2   4
HETATM    4  C   UNL     1     -10.516  11.095  64.955  1.00  0.00    -0.308 C  
HETATM    5  C   UNL     1     -10.857  16.056  65.328  1.00  0.00    -0.362 A  
HETATM    6  C   UNL     1      -9.903  15.658  66.255  1.00  0.00    -0.318 A  
HETATM    7  C   UNL     1     -10.887  11.532  63.534  1.00  0.00    -0.473 C  
HETATM    8  C   UNL     1     -11.729  12.793  63.612  1.00  0.00    -0.587 C  
HETATM    9  F   UNL     1     -11.205  17.349  65.251  1.00  0.00    -0.236 F  
HETATM   10  C   UNL     1      -9.539  14.311  66.329  1.00  0.00    -0.310 A  
HETATM   11  O   UNL     1      -9.701  12.085  65.609  1.00  0.00    -0.241 OA 
HETATM   12  C   UNL     1     -11.087  13.785  64.536  1.00  0.00    -0.388 A  
HETATM   13  C   UNL     1     -10.136  13.377  65.481  1.00  0.00    -0.266 A  
HETATM   14  C   UNL     1     -11.454  15.137  64.472  1.00  0.00    -0.319 A  
ENDBRANCH   2   4
BRANCH   2  15
HETATM   15  C   UNL     1      -9.801   9.077  66.375  1.00  0.00    -0.286 C  
BRANCH  15  16
HETATM   16  N   UNL     1     -10.434   9.940  67.388  1.00  0.00    -0.250 NA 
HETATM   17  H   UNL     1     -11.450   9.854  67.389  1.00  0.00     0.000 HD 
BRANCH  16  18
HETATM   18  C   UNL     1      -9.847   9.648  68.708  1.00  0.00    -0.165 C  
BRANCH  18  19
HETATM   19  C   UNL     1     -10.910   9.118  69.691  1.00  0.00    -0.197 C  
HETATM   20  H   UNL     1     -10.982   7.740  71.089  1.00  0.00     0.000 HD 
HETATM   21  O   UNL     1     -10.327   8.067  70.484  1.00  0.00    -0.198 OA 
BRANCH  19  22
HETATM   22  C   UNL     1     -11.455  10.220  70.630  1.00  0.00    -0.349 C  
HETATM   23  C   UNL     1     -13.258  10.935  72.177  1.00  0.00    -0.333 C  
HETATM   24  C   UNL     1     -12.835   9.866  71.184  1.00  0.00    -0.461 C  
HETATM   25  C   UNL     1     -13.041  12.296  71.584  1.00  0.00    -0.408 A  
HETATM   26  C   UNL     1     -12.171  12.483  70.501  1.00  0.00    -0.297 A  
HETATM   27  O   UNL     1     -11.490  11.461  69.892  1.00  0.00    -0.283 OA 
HETATM   28  C   UNL     1     -11.990  13.754  69.952  1.00  0.00    -0.412 A  
HETATM   29  C   UNL     1     -12.660  14.851  70.493  1.00  0.00    -0.414 A  
HETATM   30  C   UNL     1     -13.509  14.666  71.577  1.00  0.00    -0.388 A  
HETATM   31  F   UNL     1     -14.156  15.717  72.098  1.00  0.00    -0.546 F  
HETATM   32  C   UNL     1     -13.703  13.404  72.128  1.00  0.00    -0.646 A  
ENDBRANCH  19  22
ENDBRANCH  18  19
ENDBRANCH  16  18
ENDBRANCH  15  16
ENDBRANCH   2  15
TORSDOF 6
ENDMDL
MODEL       33
REMARK 921   NORMALIZED FREE ENERGY PREDICTED BY IDOCK:   -7.41 KCAL/MOL
REMARK 922        TOTAL FREE ENERGY PREDICTED BY IDOCK:  -11.20 KCAL/MOL
REMARK 923 INTER-LIGAND FREE ENERGY PREDICTED BY IDOCK:   -9.55 KCAL/MOL
REMARK 924 INTRA-LIGAND FREE ENERGY PREDICTED BY IDOCK:   -1.65 KCAL/MOL
REMARK 927      BINDING AFFINITY PREDICTED BY RF-SCORE:    0.00 PKD
ROOT
HETATM    1  O   UNL     1     -11.507  12.779  63.202  1.00  0.00    -0.776 OA 
HETATM    2  C   UNL     1     -11.453  11.869  64.309  1.00  0.00    -0.346 C  
HETATM    3  H   UNL     1     -12.377  13.153  63.138  1.00  0.00     0.000 HD 
ENDROOT
BRANCH   2   4
HETATM    4  C   UNL     1     -11.882  12.597  65.604  1.00  0.00    -0.437 C  
HETATM    5  C   UNL     1     -12.101  13.242  70.544  1.00  0.00    -0.314 A  
HETATM    6  C   UNL     1     -12.106  11.870  70.327  1.00  0.00    -0.409 A  
HETATM    7  C   UNL     1     -11.117  13.906  65.824  1.00  0.00    -0.294 C  
HETATM    8  C   UNL     1     -11.693  14.614  67.037  1.00  0.00    -0.379 C  
HETATM    9  F   UNL     1     -12.219  13.713  71.793  1.00  0.00    -0.322 F  
HETATM   10  C   UNL     1     -11.978  11.382  69.024  1.00  0.00    -0.387 A  
HETATM   11  O   UNL     1     -11.712  11.700  66.716  1.00  0.00    -0.541 OA 
HETATM   12  C   UNL     1     -11.836  13.651  68.178  1.00  0.00    -0.407 A  
HETATM   13  C   UNL     1     -11.855  12.268  67.954  1.00  0.00    -0.293 A  
HETATM   14  C   UNL     1     -11.972  14.135  69.486  1.00  0.00    -0.389 A  
ENDBRANCH   2   4
BRANCH   2  15
HETATM   15  C   UNL     1     -10.039  11.262  64.412  1.00  0.00    -0.303 C  
BRANCH  15  16
HETATM   16  N   UNL     1     -10.071   9.843  64.809  1.00  0.00    -0.340 NA 
HETATM   17  H   UNL     1     -10.077   9.216  64.005  1.00  0.00     0.000 HD 
BRANCH  16  18
HETATM   18  C   UNL     1      -8.948   9.570  65.724  1.00  0.00    -0.179 C  
BRANCH  18  19
HETATM   19  C   UNL     1      -8.714   8.055  65.889  1.00  0.00    -0.157 C  
HETATM   20  H   UNL     1      -7.160   6.853  65.867  1.00  0.00     0.000 HD 
HETATM   21  O   UNL     1      -7.304   7.786  65.765  1.00  0.00    -0.073 OA 
BRANCH  19  22
HETATM   22  C   UNL     1      -9.217   7.519  67.250  1.00  0.00    -0.131 C  
HETATM   23  C   UNL     1     -11.029   6.373  68.496  1.00  0.00    -0.396 C  
HETATM   24  C   UNL     1     -10.644   6.979  67.158  1.00  0.00    -0.412 C  
HETATM   25  C   UNL     1     -10.684   7.323  69.604  1.00  0.00    -0.249 A  
HETATM   26  C   UNL     1      -9.753   8.352  69.410  1.00  0.00    -0.177 A  
HETATM   27  O   UNL     1      -9.124   8.589  68.215  1.00  0.00    -0.138 OA 
HETATM   28  C   UNL     1      -9.451   9.238  70.448  1.00  0.00    -0.292 A  
HETATM   29  C   UNL     1     -10.060   9.087  71.694  1.00  0.00    -0.405 A  
HETATM   30  C   UNL     1     -10.969   8.055  71.889  1.00  0.00    -0.263 A  
HETATM   31  F   UNL     1     -11.558   7.909  73.084  1.00  0.00    -0.436 F  
HETATM   32  C   UNL     1     -11.284   7.173  70.862  1.00  0.00    -0.305 A  
ENDBRANCH  19  22
ENDBRANCH  18  19
ENDBRANCH  16  18
ENDBRANCH  15  16
ENDBRANCH   2  15
TORSDOF 6
ENDMDL
MODEL       34
REMARK 921   NORMALIZED FREE ENERGY PREDICTED BY IDOCK:   -7.37 KCAL/MOL
REMARK 922        TOTAL FREE ENERGY PREDICTED BY IDOCK:  -11.14 KCAL/MOL
REMARK 923 INTER-LIGAND FREE ENERGY PREDICTED BY IDOCK:   -9.81 KCAL/MOL
REMARK 924 INTRA-LIGAND FREE ENERGY PREDICTED BY IDOCK:   -1.34 KCAL/MOL
REMARK 927      BINDING AFFINITY PREDICTED BY RF-SCORE:    0.00 PKD
ROOT
HETATM    1  O   UNL     1     -13.048  13.236  64.886  1.00  0.00    -0.737 OA 
HETATM    2  C   UNL     1     -11.873  13.141  65.704  1.00  0.00    -0.387 C  
HETATM    3  H   UNL     1     -13.822  13.141  65.428  1.00  0.00     0.000 HD 
ENDROOT
BRANCH   2   4
HETATM    4  C   UNL     1     -11.938  14.192  66.836  1.00  0.00    -0.449 C  
HETATM    5  C   UNL     1     -11.778  15.710  71.583  1.00  0.00    -0.446 A  
HETATM    6  C   UNL     1     -12.353  14.446  71.595  1.00  0.00    -0.415 A  
HETATM    7  C   UNL     1     -10.696  15.088  66.879  1.00  0.00    -0.308 C  
HETATM    8  C   UNL     1     -10.905  16.168  67.925  1.00  0.00    -0.332 C  
HETATM    9  F   UNL     1     -11.667  16.396  72.729  1.00  0.00    -0.551 F  
HETATM   10  C   UNL     1     -12.463  13.732  70.398  1.00  0.00    -0.384 A  
HETATM   11  O   UNL     1     -12.133  13.510  68.088  1.00  0.00    -0.346 OA 
HETATM   12  C   UNL     1     -11.412  15.560  69.200  1.00  0.00    -0.356 A  
HETATM   13  C   UNL     1     -12.005  14.291  69.205  1.00  0.00    -0.335 A  
HETATM   14  C   UNL     1     -11.311  16.275  70.401  1.00  0.00    -0.313 A  
ENDBRANCH   2   4
BRANCH   2  15
HETATM   15  C   UNL     1     -10.616  13.296  64.823  1.00  0.00    -0.386 C  
BRANCH  15  16
HETATM   16  N   UNL     1      -9.644  12.210  65.046  1.00  0.00    -0.450 NA 
HETATM   17  H   UNL     1      -8.795  12.540  65.505  1.00  0.00     0.000 HD 
BRANCH  16  18
HETATM   18  C   UNL     1     -10.298  11.121  65.793  1.00  0.00    -0.260 C  
BRANCH  18  19
HETATM   19  C   UNL     1      -9.553  10.816  67.108  1.00  0.00    -0.161 C  
HETATM   20  H   UNL     1      -8.594  11.862  68.466  1.00  0.00     0.000 HD 
HETATM   21  O   UNL     1      -9.052  12.050  67.656  1.00  0.00    -0.168 OA 
BRANCH  19  22
HETATM   22  C   UNL     1     -10.455  10.123  68.156  1.00  0.00    -0.206 C  
HETATM   23  C   UNL     1     -11.378  10.156  70.459  1.00  0.00    -0.416 C  
HETATM   24  C   UNL     1     -10.390  10.819  69.516  1.00  0.00    -0.178 C  
HETATM   25  C   UNL     1     -11.217   8.665  70.399  1.00  0.00    -0.236 A  
HETATM   26  C   UNL     1     -10.584   8.049  69.311  1.00  0.00    -0.184 A  
HETATM   27  O   UNL     1     -10.046   8.742  68.256  1.00  0.00    -0.175 OA 
HETATM   28  C   UNL     1     -10.430   6.661  69.276  1.00  0.00    -0.247 A  
HETATM   29  C   UNL     1     -10.926   5.877  70.317  1.00  0.00    -0.390 A  
HETATM   30  C   UNL     1     -11.569   6.488  71.386  1.00  0.00    -0.318 A  
HETATM   31  F   UNL     1     -12.045   5.738  72.389  1.00  0.00    -0.361 F  
HETATM   32  C   UNL     1     -11.721   7.869  71.436  1.00  0.00    -0.311 A  
ENDBRANCH  19  22
ENDBRANCH  18  19
ENDBRANCH  16  18
ENDBRANCH  15  16
ENDBRANCH   2  15
TORSDOF 6
ENDMDL
MODEL       35
REMARK 921   NORMALIZED FREE ENERGY PREDICTED BY IDOCK:   -7.34 KCAL/MOL
REMARK 922        TOTAL FREE ENERGY PREDICTED BY IDOCK:  -11.10 KCAL/MOL
REMARK 923 INTER-LIGAND FREE ENERGY PREDICTED BY IDOCK:  -10.13 KCAL/MOL
REMARK 924 INTRA-LIGAND FREE ENERGY PREDICTED BY IDOCK:   -0.98 KCAL/MOL
REMARK 927      BINDING AFFINITY PREDICTED BY RF-SCORE:    0.00 PKD
ROOT
HETATM    1  O   UNL     1      -9.880  13.177  65.430  1.00  0.00    -0.450 OA 
HETATM    2  C   UNL     1     -10.606  14.383  65.152  1.00  0.00    -0.410 C  
HETATM    3  H   UNL     1      -9.099  13.144  64.890  1.00  0.00     0.000 HD 
ENDROOT
BRANCH   2   4
HETATM    4  C   UNL     1      -9.685  15.607  65.363  1.00  0.00    -0.158 C  
HETATM    5  C   UNL     1      -8.605  20.204  66.964  1.00  0.00    -0.336 A  
HETATM    6  C   UNL     1      -9.935  20.229  66.568  1.00  0.00    -0.528 A  
HETATM    7  C   UNL     1      -8.623  15.366  66.440  1.00  0.00    -0.244 C  
HETATM    8  C   UNL     1      -7.687  16.560  66.484  1.00  0.00    -0.323 C  
HETATM    9  F   UNL     1      -8.018  21.334  67.384  1.00  0.00    -0.358 F  
HETATM   10  C   UNL     1     -10.544  19.049  66.135  1.00  0.00    -0.495 A  
HETATM   11  O   UNL     1     -10.501  16.749  65.680  1.00  0.00    -0.470 OA 
HETATM   12  C   UNL     1      -8.478  17.835  66.511  1.00  0.00    -0.288 A  
HETATM   13  C   UNL     1      -9.816  17.859  66.096  1.00  0.00    -0.249 A  
HETATM   14  C   UNL     1      -7.870  19.024  66.937  1.00  0.00    -0.256 A  
ENDBRANCH   2   4
BRANCH   2  15
HETATM   15  C   UNL     1     -11.873  14.437  66.029  1.00  0.00    -0.372 C  
BRANCH  15  16
HETATM   16  N   UNL     1     -11.613  13.991  67.409  1.00  0.00    -0.347 NA 
HETATM   17  H   UNL     1     -10.672  13.616  67.524  1.00  0.00     0.000 HD 
BRANCH  16  18
HETATM   18  C   UNL     1     -11.891  15.101  68.338  1.00  0.00    -0.267 C  
BRANCH  18  19
HETATM   19  C   UNL     1     -11.536  14.721  69.790  1.00  0.00    -0.297 C  
HETATM   20  H   UNL     1     -11.652  15.589  71.548  1.00  0.00     0.000 HD 
HETATM   21  O   UNL     1     -11.870  15.823  70.654  1.00  0.00    -0.332 OA 
BRANCH  19  22
HETATM   22  C   UNL     1     -12.278  13.453  70.272  1.00  0.00    -0.335 C  
HETATM   23  C   UNL     1     -13.481  12.319  72.122  1.00  0.00    -0.431 C  
HETATM   24  C   UNL     1     -12.665  13.544  71.749  1.00  0.00    -0.340 C  
HETATM   25  C   UNL     1     -12.796  11.080  71.628  1.00  0.00    -0.540 A  
HETATM   26  C   UNL     1     -11.833  11.143  70.611  1.00  0.00    -0.302 A  
HETATM   27  O   UNL     1     -11.426  12.313  70.025  1.00  0.00    -0.198 OA 
HETATM   28  C   UNL     1     -11.194   9.981  70.170  1.00  0.00    -0.367 A  
HETATM   29  C   UNL     1     -11.528   8.746  70.726  1.00  0.00    -0.309 A  
HETATM   30  C   UNL     1     -12.495   8.684  71.721  1.00  0.00    -0.346 A  
HETATM   31  F   UNL     1     -12.817   7.500  72.259  1.00  0.00    -0.268 F  
HETATM   32  C   UNL     1     -13.132   9.834  72.174  1.00  0.00    -0.513 A  
ENDBRANCH  19  22
ENDBRANCH  18  19
ENDBRANCH  16  18
ENDBRANCH  15  16
ENDBRANCH   2  15
TORSDOF 6
ENDMDL
MODEL       36
REMARK 921   NORMALIZED FREE ENERGY PREDICTED BY IDOCK:   -7.33 KCAL/MOL
REMARK 922        TOTAL FREE ENERGY PREDICTED BY IDOCK:  -11.09 KCAL/MOL
REMARK 923 INTER-LIGAND FREE ENERGY PREDICTED BY IDOCK:   -9.88 KCAL/MOL
REMARK 924 INTRA-LIGAND FREE ENERGY PREDICTED BY IDOCK:   -1.21 KCAL/MOL
REMARK 927      BINDING AFFINITY PREDICTED BY RF-SCORE:    0.00 PKD
ROOT
HETATM    1  O   UNL     1      -9.959  15.027  68.765  1.00  0.00    -0.214 OA 
HETATM    2  C   UNL     1     -10.901  14.271  67.992  1.00  0.00    -0.239 C  
HETATM    3  H   UNL     1     -10.423  15.585  69.377  1.00  0.00     0.000 HD 
ENDROOT
BRANCH   2   4
HETATM    4  C   UNL     1     -11.831  13.474  68.935  1.00  0.00    -0.345 C  
HETATM    5  C   UNL     1     -12.970   9.725  72.020  1.00  0.00    -0.423 A  
HETATM    6  C   UNL     1     -12.118   9.197  71.059  1.00  0.00    -0.324 A  
HETATM    7  C   UNL     1     -12.045  14.175  70.280  1.00  0.00    -0.412 C  
HETATM    8  C   UNL     1     -13.069  13.394  71.084  1.00  0.00    -0.254 C  
HETATM    9  F   UNL     1     -13.494   8.918  72.954  1.00  0.00    -0.454 F  
HETATM   10  C   UNL     1     -11.570  10.042  70.090  1.00  0.00    -0.320 A  
HETATM   11  O   UNL     1     -11.283  12.155  69.116  1.00  0.00    -0.239 OA 
HETATM   12  C   UNL     1     -12.732  11.933  71.069  1.00  0.00    -0.354 A  
HETATM   13  C   UNL     1     -11.884  11.401  70.088  1.00  0.00    -0.355 A  
HETATM   14  C   UNL     1     -13.285  11.079  72.033  1.00  0.00    -0.447 A  
ENDBRANCH   2   4
BRANCH   2  15
HETATM   15  C   UNL     1     -10.146  13.364  66.999  1.00  0.00    -0.247 C  
BRANCH  15  16
HETATM   16  N   UNL     1      -9.720  14.095  65.792  1.00  0.00    -0.498 NA 
HETATM   17  H   UNL     1      -9.191  13.506  65.149  1.00  0.00     0.000 HD 
BRANCH  16  18
HETATM   18  C   UNL     1     -10.900  14.702  65.151  1.00  0.00    -0.401 C  
BRANCH  18  19
HETATM   19  C   UNL     1     -10.632  16.168  64.754  1.00  0.00    -0.021 C  
HETATM   20  H   UNL     1     -11.617  17.580  63.808  1.00  0.00     0.000 HD 
HETATM   21  O   UNL     1     -11.782  16.677  64.053  1.00  0.00    -1.143 OA 
BRANCH  19  22
HETATM   22  C   UNL     1     -10.339  17.071  65.974  1.00  0.00    -0.315 C  
HETATM   23  C   UNL     1     -10.351  19.365  66.919  1.00  0.00    -0.541 C  
HETATM   24  C   UNL     1     -10.550  18.551  65.653  1.00  0.00    -0.143 C  
HETATM   25  C   UNL     1      -9.083  18.945  67.601  1.00  0.00    -0.312 A  
HETATM   26  C   UNL     1      -8.487  17.708  67.322  1.00  0.00    -0.216 A  
HETATM   27  O   UNL     1      -8.984  16.818  66.404  1.00  0.00    -0.252 OA 
HETATM   28  C   UNL     1      -7.299  17.336  67.956  1.00  0.00    -0.193 A  
HETATM   29  C   UNL     1      -6.709  18.189  68.889  1.00  0.00    -0.256 A  
HETATM   30  C   UNL     1      -7.310  19.407  69.177  1.00  0.00    -0.329 A  
HETATM   31  F   UNL     1      -6.745  20.230  70.071  1.00  0.00    -0.368 F  
HETATM   32  C   UNL     1      -8.489  19.792  68.547  1.00  0.00    -0.269 A  
ENDBRANCH  19  22
ENDBRANCH  18  19
ENDBRANCH  16  18
ENDBRANCH  15  16
ENDBRANCH   2  15
TORSDOF 6
ENDMDL
MODEL       37
REMARK 921   NORMALIZED FREE ENERGY PREDICTED BY IDOCK:   -7.32 KCAL/MOL
REMARK 922        TOTAL FREE ENERGY PREDICTED BY IDOCK:  -11.07 KCAL/MOL
REMARK 923 INTER-LIGAND FREE ENERGY PREDICTED BY IDOCK:   -9.39 KCAL/MOL
REMARK 924 INTRA-LIGAND FREE ENERGY PREDICTED BY IDOCK:   -1.68 KCAL/MOL
REMARK 927      BINDING AFFINITY PREDICTED BY RF-SCORE:    0.00 PKD
ROOT
HETATM    1  O   UNL     1      -9.114   8.886  66.207  1.00  0.00    -0.163 OA 
HETATM    2  C   UNL     1      -8.532   9.494  67.368  1.00  0.00    -0.125 C  
HETATM    3  H   UNL     1      -9.142   7.944  66.321  1.00  0.00     0.000 HD 
ENDROOT
BRANCH   2   4
HETATM    4  C   UNL     1      -9.320   9.072  68.630  1.00  0.00    -0.136 C  
HETATM    5  C   UNL     1     -13.062   9.379  71.911  1.00  0.00    -0.424 A  
HETATM    6  C   UNL     1     -12.792  10.678  71.502  1.00  0.00    -0.567 A  
HETATM    7  C   UNL     1     -10.065   7.747  68.441  1.00  0.00    -0.215 C  
HETATM    8  C   UNL     1     -10.696   7.346  69.763  1.00  0.00    -0.252 C  
HETATM    9  F   UNL     1     -13.992   9.162  72.852  1.00  0.00    -0.459 F  
HETATM   10  C   UNL     1     -11.825  10.899  70.518  1.00  0.00    -0.457 A  
HETATM   11  O   UNL     1     -10.224  10.133  68.985  1.00  0.00    -0.184 OA 
HETATM   12  C   UNL     1     -11.422   8.513  70.363  1.00  0.00    -0.135 A  
HETATM   13  C   UNL     1     -11.136   9.823  69.959  1.00  0.00    -0.267 A  
HETATM   14  C   UNL     1     -12.387   8.297  71.356  1.00  0.00    -0.326 A  
ENDBRANCH   2   4
BRANCH   2  15
HETATM   15  C   UNL     1      -8.486  11.025  67.183  1.00  0.00    -0.137 C  
BRANCH  15  16
HETATM   16  N   UNL     1      -9.736  11.552  66.606  1.00  0.00    -0.195 NA 
HETATM   17  H   UNL     1     -10.560  11.064  66.957  1.00  0.00     0.000 HD 
BRANCH  16  18
HETATM   18  C   UNL     1      -9.803  13.005  66.841  1.00  0.00    -0.240 C  
BRANCH  18  19
HETATM   19  C   UNL     1     -11.258  13.476  67.039  1.00  0.00    -0.312 C  
HETATM   20  H   UNL     1     -12.992  12.613  67.369  1.00  0.00     0.000 HD 
HETATM   21  O   UNL     1     -12.095  12.323  67.247  1.00  0.00    -0.548 OA 
BRANCH  19  22
HETATM   22  C   UNL     1     -11.414  14.440  68.239  1.00  0.00    -0.305 C  
HETATM   23  C   UNL     1     -10.298  15.672  70.080  1.00  0.00    -0.309 C  
HETATM   24  C   UNL     1     -10.096  14.635  68.989  1.00  0.00    -0.211 C  
HETATM   25  C   UNL     1     -11.538  15.355  70.862  1.00  0.00    -0.396 A  
HETATM   26  C   UNL     1     -12.531  14.518  70.335  1.00  0.00    -0.347 A  
HETATM   27  O   UNL     1     -12.438  13.911  69.109  1.00  0.00    -0.231 OA 
HETATM   28  C   UNL     1     -13.674  14.221  71.081  1.00  0.00    -0.255 A  
HETATM   29  C   UNL     1     -13.844  14.775  72.350  1.00  0.00    -0.578 A  
HETATM   30  C   UNL     1     -12.867  15.618  72.863  1.00  0.00    -0.471 A  
HETATM   31  F   UNL     1     -13.025  16.151  74.082  1.00  0.00    -0.560 F  
HETATM   32  C   UNL     1     -11.721  15.915  72.133  1.00  0.00    -0.586 A  
ENDBRANCH  19  22
ENDBRANCH  18  19
ENDBRANCH  16  18
ENDBRANCH  15  16
ENDBRANCH   2  15
TORSDOF 6
ENDMDL
MODEL       38
REMARK 921   NORMALIZED FREE ENERGY PREDICTED BY IDOCK:   -7.31 KCAL/MOL
REMARK 922        TOTAL FREE ENERGY PREDICTED BY IDOCK:  -11.06 KCAL/MOL
REMARK 923 INTER-LIGAND FREE ENERGY PREDICTED BY IDOCK:   -9.19 KCAL/MOL
REMARK 924 INTRA-LIGAND FREE ENERGY PREDICTED BY IDOCK:   -1.88 KCAL/MOL
REMARK 927      BINDING AFFINITY PREDICTED BY RF-SCORE:    0.00 PKD
ROOT
HETATM    1  O   UNL     1     -11.398   6.693  67.214  1.00  0.00    -0.716 OA 
HETATM    2  C   UNL     1     -10.237   6.999  67.999  1.00  0.00    -0.182 C  
HETATM    3  H   UNL     1     -12.037   6.241  67.752  1.00  0.00     0.000 HD 
ENDROOT
BRANCH   2   4
HETATM    4  C   UNL     1     -10.650   7.817  69.244  1.00  0.00    -0.192 C  
HETATM    5  C   UNL     1     -12.832  11.630  71.605  1.00  0.00    -0.349 A  
HETATM    6  C   UNL     1     -12.346  12.136  70.407  1.00  0.00    -0.315 A  
HETATM    7  C   UNL     1     -11.768   7.143  70.047  1.00  0.00    -0.105 C  
HETATM    8  C   UNL     1     -12.013   7.942  71.314  1.00  0.00    -0.321 C  
HETATM    9  F   UNL     1     -13.417  12.456  72.483  1.00  0.00    -0.617 F  
HETATM   10  C   UNL     1     -11.740  11.271  69.492  1.00  0.00    -0.415 A  
HETATM   11  O   UNL     1     -11.034   9.138  68.822  1.00  0.00    -0.114 OA 
HETATM   12  C   UNL     1     -12.126   9.403  70.990  1.00  0.00    -0.373 A  
HETATM   13  C   UNL     1     -11.620   9.913  69.787  1.00  0.00    -0.083 A  
HETATM   14  C   UNL     1     -12.725  10.276  71.907  1.00  0.00    -0.478 A  
ENDBRANCH   2   4
BRANCH   2  15
HETATM   15  C   UNL     1      -9.200   7.733  67.125  1.00  0.00    -0.146 C  
BRANCH  15  16
HETATM   16  N   UNL     1      -9.833   8.498  66.036  1.00  0.00    -0.472 NA 
HETATM   17  H   UNL     1     -10.334   9.318  66.379  1.00  0.00     0.000 HD 
BRANCH  16  18
HETATM   18  C   UNL     1      -8.813   8.845  65.031  1.00  0.00    -0.140 C  
BRANCH  18  19
HETATM   19  C   UNL     1      -9.113  10.207  64.372  1.00  0.00    -0.245 C  
HETATM   20  H   UNL     1      -9.817  10.818  62.643  1.00  0.00     0.000 HD 
HETATM   21  O   UNL     1      -9.632   9.979  63.048  1.00  0.00    -0.267 OA 
BRANCH  19  22
HETATM   22  C   UNL     1     -10.130  11.048  65.179  1.00  0.00    -0.289 C  
HETATM   23  C   UNL     1     -12.111  12.539  65.122  1.00  0.00    -0.503 C  
HETATM   24  C   UNL     1     -11.078  11.827  64.267  1.00  0.00    -0.420 C  
HETATM   25  C   UNL     1     -11.432  13.260  66.249  1.00  0.00    -0.358 A  
HETATM   26  C   UNL     1     -10.135  12.913  66.652  1.00  0.00    -0.245 A  
HETATM   27  O   UNL     1      -9.390  11.935  66.046  1.00  0.00    -0.229 OA 
HETATM   28  C   UNL     1      -9.511  13.603  67.694  1.00  0.00    -0.221 A  
HETATM   29  C   UNL     1     -10.185  14.629  68.355  1.00  0.00    -0.235 A  
HETATM   30  C   UNL     1     -11.477  14.960  67.965  1.00  0.00    -0.337 A  
HETATM   31  F   UNL     1     -12.126  15.947  68.597  1.00  0.00    -0.377 F  
HETATM   32  C   UNL     1     -12.106  14.286  66.924  1.00  0.00    -0.440 A  
ENDBRANCH  19  22
ENDBRANCH  18  19
ENDBRANCH  16  18
ENDBRANCH  15  16
ENDBRANCH   2  15
TORSDOF 6
ENDMDL
MODEL       39
REMARK 921   NORMALIZED FREE ENERGY PREDICTED BY IDOCK:   -7.28 KCAL/MOL
REMARK 922        TOTAL FREE ENERGY PREDICTED BY IDOCK:  -11.01 KCAL/MOL
REMARK 923 INTER-LIGAND FREE ENERGY PREDICTED BY IDOCK:   -9.78 KCAL/MOL
REMARK 924 INTRA-LIGAND FREE ENERGY PREDICTED BY IDOCK:   -1.23 KCAL/MOL
REMARK 927      BINDING AFFINITY PREDICTED BY RF-SCORE:    0.00 PKD
ROOT
HETATM    1  O   UNL     1      -9.123   8.590  65.057  1.00  0.00    -0.420 OA 
HETATM    2  C   UNL     1      -9.266   9.868  65.691  1.00  0.00    -0.194 C  
HETATM    3  H   UNL     1      -8.480   8.071  65.525  1.00  0.00     0.000 HD 
ENDROOT
BRANCH   2   4
HETATM    4  C   UNL     1      -9.631   9.673  67.181  1.00  0.00    -0.166 C  
HETATM    5  C   UNL     1     -12.434  10.333  71.252  1.00  0.00    -0.408 A  
HETATM    6  C   UNL     1     -12.502  11.519  70.533  1.00  0.00    -0.367 A  
HETATM    7  C   UNL     1     -10.160   8.267  67.478  1.00  0.00    -0.287 C  
HETATM    8  C   UNL     1     -10.364   8.124  68.976  1.00  0.00    -0.229 C  
HETATM    9  F   UNL     1     -13.049  10.244  72.440  1.00  0.00    -0.494 F  
HETATM   10  C   UNL     1     -11.863  11.606  69.293  1.00  0.00    -0.396 A  
HETATM   11  O   UNL     1     -10.587  10.681  67.558  1.00  0.00    -0.216 OA 
HETATM   12  C   UNL     1     -11.107   9.311  69.511  1.00  0.00    -0.099 A  
HETATM   13  C   UNL     1     -11.160  10.511  68.790  1.00  0.00    -0.265 A  
HETATM   14  C   UNL     1     -11.743   9.232  70.758  1.00  0.00    -0.328 A  
ENDBRANCH   2   4
BRANCH   2  15
HETATM   15  C   UNL     1     -10.311  10.710  64.931  1.00  0.00    -0.277 C  
BRANCH  15  16
HETATM   16  N   UNL     1      -9.914  12.125  64.825  1.00  0.00    -0.383 NA 
HETATM   17  H   UNL     1      -8.913  12.235  64.663  1.00  0.00     0.000 HD 
BRANCH  16  18
HETATM   18  C   UNL     1     -10.724  12.779  63.782  1.00  0.00    -0.361 C  
BRANCH  18  19
HETATM   19  C   UNL     1     -11.700  13.807  64.391  1.00  0.00    -0.408 C  
HETATM   20  H   UNL     1     -13.512  13.762  65.147  1.00  0.00     0.000 HD 
HETATM   21  O   UNL     1     -12.911  13.129  64.772  1.00  0.00    -0.725 OA 
BRANCH  19  22
HETATM   22  C   UNL     1     -11.110  14.529  65.625  1.00  0.00    -0.327 C  
HETATM   23  C   UNL     1     -11.321  15.025  68.046  1.00  0.00    -0.339 C  
HETATM   24  C   UNL     1     -12.011  14.389  66.852  1.00  0.00    -0.425 C  
HETATM   25  C   UNL     1     -10.809  16.385  67.674  1.00  0.00    -0.280 A  
HETATM   26  C   UNL     1     -10.620  16.745  66.332  1.00  0.00    -0.192 A  
HETATM   27  O   UNL     1     -10.911  15.917  65.278  1.00  0.00    -0.388 OA 
HETATM   28  C   UNL     1     -10.156  18.020  66.001  1.00  0.00    -0.268 A  
HETATM   29  C   UNL     1      -9.855  18.938  67.008  1.00  0.00    -0.368 A  
HETATM   30  C   UNL     1     -10.027  18.573  68.337  1.00  0.00    -0.380 A  
HETATM   31  F   UNL     1      -9.741  19.452  69.307  1.00  0.00    -0.437 F  
HETATM   32  C   UNL     1     -10.496  17.309  68.679  1.00  0.00    -0.356 A  
ENDBRANCH  19  22
ENDBRANCH  18  19
ENDBRANCH  16  18
ENDBRANCH  15  16
ENDBRANCH   2  15
TORSDOF 6
ENDMDL
MODEL       40
REMARK 921   NORMALIZED FREE ENERGY PREDICTED BY IDOCK:   -7.27 KCAL/MOL
REMARK 922        TOTAL FREE ENERGY PREDICTED BY IDOCK:  -11.00 KCAL/MOL
REMARK 923 INTER-LIGAND FREE ENERGY PREDICTED BY IDOCK:   -9.26 KCAL/MOL
REMARK 924 INTRA-LIGAND FREE ENERGY PREDICTED BY IDOCK:   -1.74 KCAL/MOL
REMARK 927      BINDING AFFINITY PREDICTED BY RF-SCORE:    0.00 PKD
ROOT
HETATM    1  O   UNL     1     -13.094   7.501  70.708  1.00  0.00    -0.579 OA 
HETATM    2  C   UNL     1     -13.116   8.528  71.710  1.00  0.00    -0.355 C  
HETATM    3  H   UNL     1     -13.807   7.638  70.096  1.00  0.00     0.000 HD 
ENDROOT
BRANCH   2   4
HETATM    4  C   UNL     1     -13.060   9.918  71.033  1.00  0.00    -0.329 C  
HETATM    5  C   UNL     1     -12.778  14.896  70.994  1.00  0.00    -0.348 A  
HETATM    6  C   UNL     1     -13.515  14.554  72.120  1.00  0.00    -0.494 A  
HETATM    7  C   UNL     1     -11.712  10.190  70.360  1.00  0.00    -0.390 C  
HETATM    8  C   UNL     1     -11.793  11.509  69.612  1.00  0.00    -0.421 C  
HETATM    9  F   UNL     1     -12.596  16.189  70.691  1.00  0.00    -0.380 F  
HETATM   10  C   UNL     1     -13.700  13.205  72.434  1.00  0.00    -0.640 A  
HETATM   11  O   UNL     1     -13.364  10.922  72.018  1.00  0.00    -0.448 OA 
HETATM   12  C   UNL     1     -12.396  12.564  70.492  1.00  0.00    -0.345 A  
HETATM   13  C   UNL     1     -13.152  12.215  71.619  1.00  0.00    -0.310 A  
HETATM   14  C   UNL     1     -12.221  13.919  70.176  1.00  0.00    -0.425 A  
ENDBRANCH   2   4
BRANCH   2  15
HETATM   15  C   UNL     1     -11.958   8.306  72.704  1.00  0.00    -0.295 C  
BRANCH  15  16
HETATM   16  N   UNL     1     -11.694   6.876  72.939  1.00  0.00    -0.502 NA 
HETATM   17  H   UNL     1     -11.816   6.316  72.095  1.00  0.00     0.000 HD 
BRANCH  16  18
HETATM   18  C   UNL     1     -10.351   6.720  73.525  1.00  0.00    -0.316 C  
BRANCH  18  19
HETATM   19  C   UNL     1      -9.486   5.748  72.698  1.00  0.00    -0.149 C  
HETATM   20  H   UNL     1      -9.709   3.948  71.944  1.00  0.00     0.000 HD 
HETATM   21  O   UNL     1     -10.242   4.547  72.453  1.00  0.00    -0.180 OA 
BRANCH  19  22
HETATM   22  C   UNL     1      -9.036   6.351  71.347  1.00  0.00    -0.145 C  
HETATM   23  C   UNL     1      -8.099   8.311  70.150  1.00  0.00    -0.112 C  
HETATM   24  C   UNL     1      -8.630   7.819  71.484  1.00  0.00    -0.133 C  
HETATM   25  C   UNL     1      -9.042   7.920  69.051  1.00  0.00    -0.144 A  
HETATM   26  C   UNL     1      -9.974   6.889  69.231  1.00  0.00    -0.159 A  
HETATM   27  O   UNL     1     -10.119   6.195  70.404  1.00  0.00    -0.179 OA 
HETATM   28  C   UNL     1     -10.855   6.545  68.202  1.00  0.00    -0.370 A  
HETATM   29  C   UNL     1     -10.796   7.213  66.979  1.00  0.00    -0.382 A  
HETATM   30  C   UNL     1      -9.860   8.223  66.797  1.00  0.00    -0.263 A  
HETATM   31  F   UNL     1      -9.802   8.868  65.624  1.00  0.00    -0.326 F  
HETATM   32  C   UNL     1      -8.983   8.580  67.816  1.00  0.00    -0.140 A  
ENDBRANCH  19  22
ENDBRANCH  18  19
ENDBRANCH  16  18
ENDBRANCH  15  16
ENDBRANCH   2  15
TORSDOF 6
ENDMDL
MODEL       41
REMARK 921   NORMALIZED FREE ENERGY PREDICTED BY IDOCK:   -7.26 KCAL/MOL
REMARK 922        TOTAL FREE ENERGY PREDICTED BY IDOCK:  -11.00 KCAL/MOL
REMARK 923 INTER-LIGAND FREE ENERGY PREDICTED BY IDOCK:   -9.58 KCAL/MOL
REMARK 924 INTRA-LIGAND FREE ENERGY PREDICTED BY IDOCK:   -1.42 KCAL/MOL
REMARK 927      BINDING AFFINITY PREDICTED BY RF-SCORE:    0.00 PKD
ROOT
HETATM    1  O   UNL     1     -14.223  13.675  72.526  1.00  0.00    -0.724 OA 
HETATM    2  C   UNL     1     -13.233  13.898  71.512  1.00  0.00    -0.352 C  
HETATM    3  H   UNL     1     -14.778  12.947  72.275  1.00  0.00     0.000 HD 
ENDROOT
BRANCH   2   4
HETATM    4  C   UNL     1     -12.433  12.598  71.269  1.00  0.00    -0.175 C  
HETATM    5  C   UNL     1     -11.854   7.652  71.005  1.00  0.00    -0.285 A  
HETATM    6  C   UNL     1     -12.758   7.887  72.033  1.00  0.00    -0.307 A  
HETATM    7  C   UNL     1     -12.142  12.355  69.785  1.00  0.00    -0.292 C  
HETATM    8  C   UNL     1     -11.244  11.138  69.653  1.00  0.00    -0.333 C  
HETATM    9  F   UNL     1     -11.457   6.398  70.748  1.00  0.00    -0.335 F  
HETATM   10  C   UNL     1     -13.173   9.195  72.295  1.00  0.00    -0.528 A  
HETATM   11  O   UNL     1     -13.157  11.496  71.847  1.00  0.00    -0.481 OA 
HETATM   12  C   UNL     1     -11.777  10.010  70.487  1.00  0.00    -0.400 A  
HETATM   13  C   UNL     1     -12.677  10.253  71.533  1.00  0.00    -0.452 A  
HETATM   14  C   UNL     1     -11.358   8.697  70.233  1.00  0.00    -0.146 A  
ENDBRANCH   2   4
BRANCH   2  15
HETATM   15  C   UNL     1     -12.332  15.081  71.921  1.00  0.00    -0.342 C  
BRANCH  15  16
HETATM   16  N   UNL     1     -11.086  15.127  71.135  1.00  0.00    -0.539 NA 
HETATM   17  H   UNL     1     -10.747  14.196  70.892  1.00  0.00     0.000 HD 
BRANCH  16  18
HETATM   18  C   UNL     1     -11.292  15.975  69.947  1.00  0.00    -0.340 C  
BRANCH  18  19
HETATM   19  C   UNL     1     -10.030  16.022  69.063  1.00  0.00    -0.242 C  
HETATM   20  H   UNL     1      -8.141  15.520  69.266  1.00  0.00     0.000 HD 
HETATM   21  O   UNL     1      -8.919  15.491  69.810  1.00  0.00    -0.240 OA 
BRANCH  19  22
HETATM   22  C   UNL     1     -10.191  15.218  67.751  1.00  0.00    -0.237 C  
HETATM   23  C   UNL     1     -11.745  14.269  66.068  1.00  0.00    -0.384 C  
HETATM   24  C   UNL     1     -11.661  14.962  67.416  1.00  0.00    -0.347 C  
HETATM   25  C   UNL     1     -10.781  13.122  66.022  1.00  0.00    -0.288 A  
HETATM   26  C   UNL     1      -9.701  13.049  66.913  1.00  0.00    -0.238 A  
HETATM   27  O   UNL     1      -9.463  13.979  67.892  1.00  0.00    -0.197 OA 
HETATM   28  C   UNL     1      -8.818  11.967  66.867  1.00  0.00    -0.197 A  
HETATM   29  C   UNL     1      -8.995  10.961  65.918  1.00  0.00    -0.206 A  
HETATM   30  C   UNL     1     -10.056  11.043  65.025  1.00  0.00    -0.296 A  
HETATM   31  F   UNL     1     -10.230  10.077  64.113  1.00  0.00    -0.319 F  
HETATM   32  C   UNL     1     -10.946  12.111  65.066  1.00  0.00    -0.355 A  
ENDBRANCH  19  22
ENDBRANCH  18  19
ENDBRANCH  16  18
ENDBRANCH  15  16
ENDBRANCH   2  15
TORSDOF 6
ENDMDL
MODEL       42
REMARK 921   NORMALIZED FREE ENERGY PREDICTED BY IDOCK:   -7.25 KCAL/MOL
REMARK 922        TOTAL FREE ENERGY PREDICTED BY IDOCK:  -10.97 KCAL/MOL
REMARK 923 INTER-LIGAND FREE ENERGY PREDICTED BY IDOCK:   -9.63 KCAL/MOL
REMARK 924 INTRA-LIGAND FREE ENERGY PREDICTED BY IDOCK:   -1.35 KCAL/MOL
REMARK 927      BINDING AFFINITY PREDICTED BY RF-SCORE:    0.00 PKD
ROOT
HETATM    1  O   UNL     1      -7.711  13.131  68.909  1.00  0.00    -0.292 OA 
HETATM    2  C   UNL     1      -8.313  13.602  67.695  1.00  0.00    -0.182 C  
HETATM    3  H   UNL     1      -7.128  13.797  69.255  1.00  0.00     0.000 HD 
ENDROOT
BRANCH   2   4
HETATM    4  C   UNL     1      -9.034  14.945  67.957  1.00  0.00    -0.172 C  
HETATM    5  C   UNL     1      -9.551  19.898  67.713  1.00  0.00    -0.378 A  
HETATM    6  C   UNL     1      -8.191  19.652  67.843  1.00  0.00    -0.344 A  
HETATM    7  C   UNL     1     -10.274  15.128  67.075  1.00  0.00    -0.262 C  
HETATM    8  C   UNL     1     -10.989  16.401  67.492  1.00  0.00    -0.184 C  
HETATM    9  F   UNL     1      -9.995  21.163  67.690  1.00  0.00    -0.547 F  
HETATM   10  C   UNL     1      -7.732  18.332  67.863  1.00  0.00    -0.249 A  
HETATM   11  O   UNL     1      -8.095  16.018  67.766  1.00  0.00    -0.138 OA 
HETATM   12  C   UNL     1     -10.007  17.528  67.614  1.00  0.00    -0.309 A  
HETATM   13  C   UNL     1      -8.637  17.275  67.760  1.00  0.00    -0.225 A  
HETATM   14  C   UNL     1     -10.462  18.854  67.603  1.00  0.00    -0.514 A  
ENDBRANCH   2   4
BRANCH   2  15
HETATM   15  C   UNL     1      -9.259  12.521  67.133  1.00  0.00    -0.205 C  
BRANCH  15  16
HETATM   16  N   UNL     1      -9.356  11.351  68.024  1.00  0.00    -0.165 NA 
HETATM   17  H   UNL     1      -9.180  11.591  69.000  1.00  0.00     0.000 HD 
BRANCH  16  18
HETATM   18  C   UNL     1     -10.667  10.705  67.835  1.00  0.00    -0.248 C  
BRANCH  18  19
HETATM   19  C   UNL     1     -11.083   9.901  69.083  1.00  0.00    -0.159 C  
HETATM   20  H   UNL     1     -10.212   8.636  70.307  1.00  0.00     0.000 HD 
HETATM   21  O   UNL     1      -9.955   9.131  69.538  1.00  0.00    -0.177 OA 
BRANCH  19  22
HETATM   22  C   UNL     1     -11.580  10.805  70.235  1.00  0.00    -0.338 C  
HETATM   23  C   UNL     1     -13.283  11.186  71.998  1.00  0.00    -0.428 C  
HETATM   24  C   UNL     1     -12.913  10.321  70.807  1.00  0.00    -0.408 C  
HETATM   25  C   UNL     1     -13.130  12.636  71.643  1.00  0.00    -0.421 A  
HETATM   26  C   UNL     1     -12.339  13.034  70.556  1.00  0.00    -0.287 A  
HETATM   27  O   UNL     1     -11.686  12.155  69.732  1.00  0.00    -0.310 OA 
HETATM   28  C   UNL     1     -12.217  14.387  70.230  1.00  0.00    -0.397 A  
HETATM   29  C   UNL     1     -12.865  15.353  71.000  1.00  0.00    -0.525 A  
HETATM   30  C   UNL     1     -13.634  14.957  72.087  1.00  0.00    -0.419 A  
HETATM   31  F   UNL     1     -14.260  15.882  72.827  1.00  0.00    -0.649 F  
HETATM   32  C   UNL     1     -13.770  13.613  72.417  1.00  0.00    -0.697 A  
ENDBRANCH  19  22
ENDBRANCH  18  19
ENDBRANCH  16  18
ENDBRANCH  15  16
ENDBRANCH   2  15
TORSDOF 6
ENDMDL
MODEL       43
REMARK 921   NORMALIZED FREE ENERGY PREDICTED BY IDOCK:   -7.20 KCAL/MOL
REMARK 922        TOTAL FREE ENERGY PREDICTED BY IDOCK:  -10.91 KCAL/MOL
REMARK 923 INTER-LIGAND FREE ENERGY PREDICTED BY IDOCK:   -9.34 KCAL/MOL
REMARK 924 INTRA-LIGAND FREE ENERGY PREDICTED BY IDOCK:   -1.58 KCAL/MOL
REMARK 927      BINDING AFFINITY PREDICTED BY RF-SCORE:    0.00 PKD
ROOT
HETATM    1  O   UNL     1      -9.039  15.016  69.799  1.00  0.00    -0.448 OA 
HETATM    2  C   UNL     1      -8.574  15.018  68.442  1.00  0.00    -0.162 C  
HETATM    3  H   UNL     1      -9.731  15.657  69.900  1.00  0.00     0.000 HD 
ENDROOT
BRANCH   2   4
HETATM    4  C   UNL     1      -9.761  14.765  67.483  1.00  0.00    -0.213 C  
HETATM    5  C   UNL     1     -12.231  12.282  63.934  1.00  0.00    -0.515 A  
HETATM    6  C   UNL     1     -10.882  12.166  63.627  1.00  0.00    -0.523 A  
HETATM    7  C   UNL     1     -11.007  14.252  68.213  1.00  0.00    -0.261 C  
HETATM    8  C   UNL     1     -12.154  14.162  67.222  1.00  0.00    -0.407 C  
HETATM    9  F   UNL     1     -13.145  11.758  63.105  1.00  0.00    -0.670 F  
HETATM   10  C   UNL     1      -9.932  12.710  64.496  1.00  0.00    -0.186 A  
HETATM   11  O   UNL     1      -9.340  13.846  66.460  1.00  0.00    -0.277 OA 
HETATM   12  C   UNL     1     -11.702  13.467  65.972  1.00  0.00    -0.389 A  
HETATM   13  C   UNL     1     -10.340  13.366  65.657  1.00  0.00    -0.290 A  
HETATM   14  C   UNL     1     -12.651  12.928  65.092  1.00  0.00    -0.536 A  
ENDBRANCH   2   4
BRANCH   2  15
HETATM   15  C   UNL     1      -7.449  13.975  68.278  1.00  0.00    -0.123 C  
BRANCH  15  16
HETATM   16  N   UNL     1      -7.733  12.731  69.015  1.00  0.00    -0.326 NA 
HETATM   17  H   UNL     1      -8.696  12.691  69.349  1.00  0.00     0.000 HD 
BRANCH  16  18
HETATM   18  C   UNL     1      -7.385  11.576  68.169  1.00  0.00    -0.094 C  
BRANCH  18  19
HETATM   19  C   UNL     1      -8.641  10.782  67.758  1.00  0.00    -0.127 C  
HETATM   20  H   UNL     1      -9.035   9.282  66.552  1.00  0.00     0.000 HD 
HETATM   21  O   UNL     1      -8.261   9.771  66.805  1.00  0.00    -0.119 OA 
BRANCH  19  22
HETATM   22  C   UNL     1      -9.341  10.109  68.962  1.00  0.00    -0.188 C  
HETATM   23  C   UNL     1     -10.353   8.046  69.897  1.00  0.00    -0.221 C  
HETATM   24  C   UNL     1      -9.775   8.678  68.643  1.00  0.00    -0.171 C  
HETATM   25  C   UNL     1     -11.341   8.980  70.530  1.00  0.00    -0.282 A  
HETATM   26  C   UNL     1     -11.335  10.350  70.232  1.00  0.00    -0.328 A  
HETATM   27  O   UNL     1     -10.470  10.927  69.338  1.00  0.00    -0.219 OA 
HETATM   28  C   UNL     1     -12.271  11.205  70.819  1.00  0.00    -0.484 A  
HETATM   29  C   UNL     1     -13.206  10.703  71.724  1.00  0.00    -0.526 A  
HETATM   30  C   UNL     1     -13.199   9.348  72.031  1.00  0.00    -0.449 A  
HETATM   31  F   UNL     1     -14.096   8.861  72.899  1.00  0.00    -0.461 F  
HETATM   32  C   UNL     1     -12.277   8.485  71.448  1.00  0.00    -0.343 A  
ENDBRANCH  19  22
ENDBRANCH  18  19
ENDBRANCH  16  18
ENDBRANCH  15  16
ENDBRANCH   2  15
TORSDOF 6
ENDMDL
MODEL       44
REMARK 921   NORMALIZED FREE ENERGY PREDICTED BY IDOCK:   -7.19 KCAL/MOL
REMARK 922        TOTAL FREE ENERGY PREDICTED BY IDOCK:  -10.90 KCAL/MOL
REMARK 923 INTER-LIGAND FREE ENERGY PREDICTED BY IDOCK:   -9.79 KCAL/MOL
REMARK 924 INTRA-LIGAND FREE ENERGY PREDICTED BY IDOCK:   -1.11 KCAL/MOL
REMARK 927      BINDING AFFINITY PREDICTED BY RF-SCORE:    0.00 PKD
ROOT
HETATM    1  O   UNL     1     -13.059   7.459  70.948  1.00  0.00    -0.594 OA 
HETATM    2  C   UNL     1     -12.864   8.524  71.889  1.00  0.00    -0.363 C  
HETATM    3  H   UNL     1     -13.852   7.615  70.450  1.00  0.00     0.000 HD 
ENDROOT
BRANCH   2   4
HETATM    4  C   UNL     1     -12.841   9.879  71.146  1.00  0.00    -0.368 C  
HETATM    5  C   UNL     1     -12.815  14.858  70.862  1.00  0.00    -0.373 A  
HETATM    6  C   UNL     1     -13.598  14.531  71.962  1.00  0.00    -0.509 A  
HETATM    7  C   UNL     1     -11.471  10.191  70.535  1.00  0.00    -0.417 C  
HETATM    8  C   UNL     1     -11.577  11.466  69.716  1.00  0.00    -0.407 C  
HETATM    9  F   UNL     1     -12.682  16.142  70.503  1.00  0.00    -0.344 F  
HETATM   10  C   UNL     1     -13.730  13.191  72.335  1.00  0.00    -0.640 A  
HETATM   11  O   UNL     1     -13.254  10.913  72.058  1.00  0.00    -0.492 OA 
HETATM   12  C   UNL     1     -12.284  12.528  70.505  1.00  0.00    -0.382 A  
HETATM   13  C   UNL     1     -13.086  12.194  71.604  1.00  0.00    -0.310 A  
HETATM   14  C   UNL     1     -12.161  13.873  70.129  1.00  0.00    -0.425 A  
ENDBRANCH   2   4
BRANCH   2  15
HETATM   15  C   UNL     1     -11.576   8.270  72.699  1.00  0.00    -0.349 C  
BRANCH  15  16
HETATM   16  N   UNL     1     -11.495   6.884  73.194  1.00  0.00    -0.509 NA 
HETATM   17  H   UNL     1     -12.085   6.247  72.659  1.00  0.00     0.000 HD 
BRANCH  16  18
HETATM   18  C   UNL     1     -10.084   6.457  73.212  1.00  0.00    -0.200 C  
BRANCH  18  19
HETATM   19  C   UNL     1      -9.959   4.924  73.109  1.00  0.00    -0.156 C  
HETATM   20  H   UNL     1     -10.937   3.374  73.818  1.00  0.00     0.000 HD 
HETATM   21  O   UNL     1     -11.014   4.319  73.881  1.00  0.00    -0.252 OA 
BRANCH  19  22
HETATM   22  C   UNL     1     -10.041   4.416  71.651  1.00  0.00    -0.160 C  
HETATM   23  C   UNL     1      -8.898   3.247  69.786  1.00  0.00    -0.154 C  
HETATM   24  C   UNL     1      -8.714   3.821  71.179  1.00  0.00    -0.123 C  
HETATM   25  C   UNL     1      -9.597   4.245  68.911  1.00  0.00    -0.227 A  
HETATM   26  C   UNL     1     -10.333   5.301  69.465  1.00  0.00    -0.263 A  
HETATM   27  O   UNL     1     -10.446   5.520  70.813  1.00  0.00    -0.240 OA 
HETATM   28  C   UNL     1     -10.968   6.230  68.637  1.00  0.00    -0.423 A  
HETATM   29  C   UNL     1     -10.889   6.100  67.250  1.00  0.00    -0.438 A  
HETATM   30  C   UNL     1     -10.173   5.042  66.704  1.00  0.00    -0.263 A  
HETATM   31  F   UNL     1     -10.093   4.915  65.372  1.00  0.00    -0.180 F  
HETATM   32  C   UNL     1      -9.530   4.115  67.517  1.00  0.00    -0.225 A  
ENDBRANCH  19  22
ENDBRANCH  18  19
ENDBRANCH  16  18
ENDBRANCH  15  16
ENDBRANCH   2  15
TORSDOF 6
ENDMDL
MODEL       45
REMARK 921   NORMALIZED FREE ENERGY PREDICTED BY IDOCK:   -7.17 KCAL/MOL
REMARK 922        TOTAL FREE ENERGY PREDICTED BY IDOCK:  -10.88 KCAL/MOL
REMARK 923 INTER-LIGAND FREE ENERGY PREDICTED BY IDOCK:   -9.71 KCAL/MOL
REMARK 924 INTRA-LIGAND FREE ENERGY PREDICTED BY IDOCK:   -1.17 KCAL/MOL
REMARK 927      BINDING AFFINITY PREDICTED BY RF-SCORE:    0.00 PKD
ROOT
HETATM    1  O   UNL     1      -8.825  12.342  68.610  1.00  0.00    -0.345 OA 
HETATM    2  C   UNL     1      -9.632  11.476  67.798  1.00  0.00    -0.175 C  
HETATM    3  H   UNL     1      -9.211  12.420  69.474  1.00  0.00     0.000 HD 
ENDROOT
BRANCH   2   4
HETATM    4  C   UNL     1      -9.800  10.109  68.501  1.00  0.00    -0.154 C  
HETATM    5  C   UNL     1     -11.941   6.910  71.670  1.00  0.00    -0.339 A  
HETATM    6  C   UNL     1     -12.010   8.161  72.269  1.00  0.00    -0.434 A  
HETATM    7  C   UNL     1     -10.397   9.043  67.577  1.00  0.00    -0.328 C  
HETATM    8  C   UNL     1     -10.400   7.710  68.303  1.00  0.00    -0.238 C  
HETATM    9  F   UNL     1     -12.388   5.834  72.333  1.00  0.00    -0.352 F  
HETATM   10  C   UNL     1     -11.546   9.280  71.573  1.00  0.00    -0.452 A  
HETATM   11  O   UNL     1     -10.607  10.291  69.678  1.00  0.00    -0.224 OA 
HETATM   12  C   UNL     1     -10.961   7.876  69.685  1.00  0.00    -0.114 A  
HETATM   13  C   UNL     1     -11.014   9.137  70.292  1.00  0.00    -0.245 A  
HETATM   14  C   UNL     1     -11.420   6.755  70.390  1.00  0.00    -0.419 A  
ENDBRANCH   2   4
BRANCH   2  15
HETATM   15  C   UNL     1      -9.004  11.349  66.395  1.00  0.00    -0.191 C  
BRANCH  15  16
HETATM   16  N   UNL     1      -9.453  12.419  65.487  1.00  0.00    -0.439 NA 
HETATM   17  H   UNL     1      -8.978  12.384  64.584  1.00  0.00     0.000 HD 
BRANCH  16  18
HETATM   18  C   UNL     1     -10.919  12.356  65.351  1.00  0.00    -0.299 C  
BRANCH  18  19
HETATM   19  C   UNL     1     -11.510  13.737  65.000  1.00  0.00    -0.332 C  
HETATM   20  H   UNL     1     -13.168  14.399  64.181  1.00  0.00     0.000 HD 
HETATM   21  O   UNL     1     -12.804  13.549  64.397  1.00  0.00    -0.638 OA 
BRANCH  19  22
HETATM   22  C   UNL     1     -11.653  14.655  66.236  1.00  0.00    -0.342 C  
HETATM   23  C   UNL     1     -10.694  16.511  67.574  1.00  0.00    -0.283 C  
HETATM   24  C   UNL     1     -10.438  15.566  66.413  1.00  0.00    -0.310 C  
HETATM   25  C   UNL     1     -11.201  15.740  68.757  1.00  0.00    -0.342 A  
HETATM   26  C   UNL     1     -11.758  14.463  68.602  1.00  0.00    -0.332 A  
HETATM   27  O   UNL     1     -11.853  13.819  67.396  1.00  0.00    -0.357 OA 
HETATM   28  C   UNL     1     -12.214  13.751  69.715  1.00  0.00    -0.368 A  
HETATM   29  C   UNL     1     -12.137  14.319  70.987  1.00  0.00    -0.416 A  
HETATM   30  C   UNL     1     -11.600  15.591  71.135  1.00  0.00    -0.397 A  
HETATM   31  F   UNL     1     -11.523  16.139  72.356  1.00  0.00    -0.493 F  
HETATM   32  C   UNL     1     -11.136  16.306  70.037  1.00  0.00    -0.351 A  
ENDBRANCH  19  22
ENDBRANCH  18  19
ENDBRANCH  16  18
ENDBRANCH  15  16
ENDBRANCH   2  15
TORSDOF 6
ENDMDL
MODEL       46
REMARK 921   NORMALIZED FREE ENERGY PREDICTED BY IDOCK:   -7.17 KCAL/MOL
REMARK 922        TOTAL FREE ENERGY PREDICTED BY IDOCK:  -10.87 KCAL/MOL
REMARK 923 INTER-LIGAND FREE ENERGY PREDICTED BY IDOCK:   -9.89 KCAL/MOL
REMARK 924 INTRA-LIGAND FREE ENERGY PREDICTED BY IDOCK:   -0.98 KCAL/MOL
REMARK 927      BINDING AFFINITY PREDICTED BY RF-SCORE:    0.00 PKD
ROOT
HETATM    1  O   UNL     1     -12.114  14.162  63.470  1.00  0.00    -0.894 OA 
HETATM    2  C   UNL     1     -11.524  13.889  64.749  1.00  0.00    -0.362 C  
HETATM    3  H   UNL     1     -11.432  14.355  62.838  1.00  0.00     0.000 HD 
ENDROOT
BRANCH   2   4
HETATM    4  C   UNL     1     -10.497  12.741  64.615  1.00  0.00    -0.350 C  
HETATM    5  C   UNL     1      -8.713   8.170  65.505  1.00  0.00    -0.120 A  
HETATM    6  C   UNL     1      -9.353   8.575  66.669  1.00  0.00    -0.243 A  
HETATM    7  C   UNL     1     -10.541  12.070  63.238  1.00  0.00    -0.399 C  
HETATM    8  C   UNL     1      -9.416  11.053  63.151  1.00  0.00    -0.363 C  
HETATM    9  F   UNL     1      -8.077   6.991  65.476  1.00  0.00    -0.103 F  
HETATM   10  C   UNL     1     -10.019   9.803  66.693  1.00  0.00    -0.292 A  
HETATM   11  O   UNL     1     -10.730  11.788  65.668  1.00  0.00    -0.265 OA 
HETATM   12  C   UNL     1      -9.400  10.195  64.381  1.00  0.00    -0.348 A  
HETATM   13  C   UNL     1     -10.033  10.614  65.559  1.00  0.00    -0.272 A  
HETATM   14  C   UNL     1      -8.726   8.966  64.365  1.00  0.00    -0.099 A  
ENDBRANCH   2   4
BRANCH   2  15
HETATM   15  C   UNL     1     -12.632  13.575  65.775  1.00  0.00    -0.434 C  
BRANCH  15  16
HETATM   16  N   UNL     1     -12.626  14.520  66.906  1.00  0.00    -0.374 NA 
HETATM   17  H   UNL     1     -13.297  14.262  67.629  1.00  0.00     0.000 HD 
BRANCH  16  18
HETATM   18  C   UNL     1     -11.254  14.638  67.431  1.00  0.00    -0.342 C  
BRANCH  18  19
HETATM   19  C   UNL     1     -11.245  14.688  68.972  1.00  0.00    -0.269 C  
HETATM   20  H   UNL     1     -11.804  15.972  70.349  1.00  0.00     0.000 HD 
HETATM   21  O   UNL     1     -11.810  15.941  69.400  1.00  0.00    -0.362 OA 
BRANCH  19  22
HETATM   22  C   UNL     1     -12.042  13.526  69.611  1.00  0.00    -0.306 C  
HETATM   23  C   UNL     1     -13.269  12.685  71.595  1.00  0.00    -0.394 C  
HETATM   24  C   UNL     1     -12.399  13.812  71.069  1.00  0.00    -0.452 C  
HETATM   25  C   UNL     1     -12.655  11.361  71.245  1.00  0.00    -0.480 A  
HETATM   26  C   UNL     1     -11.707  11.253  70.219  1.00  0.00    -0.324 A  
HETATM   27  O   UNL     1     -11.252  12.323  69.492  1.00  0.00    -0.208 OA 
HETATM   28  C   UNL     1     -11.135  10.016  69.913  1.00  0.00    -0.336 A  
HETATM   29  C   UNL     1     -11.521   8.874  70.616  1.00  0.00    -0.280 A  
HETATM   30  C   UNL     1     -12.473   8.981  71.622  1.00  0.00    -0.351 A  
HETATM   31  F   UNL     1     -12.845   7.888  72.300  1.00  0.00    -0.297 F  
HETATM   32  C   UNL     1     -13.045  10.209  71.940  1.00  0.00    -0.571 A  
ENDBRANCH  19  22
ENDBRANCH  18  19
ENDBRANCH  16  18
ENDBRANCH  15  16
ENDBRANCH   2  15
TORSDOF 6
ENDMDL
MODEL       47
REMARK 921   NORMALIZED FREE ENERGY PREDICTED BY IDOCK:   -7.10 KCAL/MOL
REMARK 922        TOTAL FREE ENERGY PREDICTED BY IDOCK:  -10.78 KCAL/MOL
REMARK 923 INTER-LIGAND FREE ENERGY PREDICTED BY IDOCK:   -9.56 KCAL/MOL
REMARK 924 INTRA-LIGAND FREE ENERGY PREDICTED BY IDOCK:   -1.22 KCAL/MOL
REMARK 927      BINDING AFFINITY PREDICTED BY RF-SCORE:    0.00 PKD
ROOT
HETATM    1  O   UNL     1     -14.343   8.897  72.900  1.00  0.00    -1.050 OA 
HETATM    2  C   UNL     1     -13.546   8.707  71.722  1.00  0.00    -0.403 C  
HETATM    3  H   UNL     1     -14.781   8.084  73.123  1.00  0.00     0.000 HD 
ENDROOT
BRANCH   2   4
HETATM    4  C   UNL     1     -12.556   7.541  71.945  1.00  0.00    -0.294 C  
HETATM    5  C   UNL     1      -8.946   4.380  70.586  1.00  0.00    -0.107 A  
HETATM    6  C   UNL     1      -9.718   4.605  69.453  1.00  0.00    -0.272 A  
HETATM    7  C   UNL     1     -11.386   7.928  72.854  1.00  0.00    -0.399 C  
HETATM    8  C   UNL     1     -10.544   6.694  73.124  1.00  0.00    -0.299 C  
HETATM    9  F   UNL     1      -7.929   3.508  70.531  1.00  0.00    -0.051 F  
HETATM   10  C   UNL     1     -10.774   5.517  69.514  1.00  0.00    -0.332 A  
HETATM   11  O   UNL     1     -12.091   7.080  70.663  1.00  0.00    -0.341 OA 
HETATM   12  C   UNL     1     -10.262   5.971  71.841  1.00  0.00    -0.237 A  
HETATM   13  C   UNL     1     -11.052   6.188  70.704  1.00  0.00    -0.317 A  
HETATM   14  C   UNL     1      -9.208   5.049  71.777  1.00  0.00    -0.171 A  
ENDBRANCH   2   4
BRANCH   2  15
HETATM   15  C   UNL     1     -12.835  10.027  71.360  1.00  0.00    -0.417 C  
BRANCH  15  16
HETATM   16  N   UNL     1     -12.090   9.927  70.093  1.00  0.00    -0.472 NA 
HETATM   17  H   UNL     1     -12.591  10.355  69.314  1.00  0.00     0.000 HD 
BRANCH  16  18
HETATM   18  C   UNL     1     -10.744  10.501  70.275  1.00  0.00    -0.100 C  
BRANCH  18  19
HETATM   19  C   UNL     1      -9.796  10.084  69.133  1.00  0.00    -0.205 C  
HETATM   20  H   UNL     1      -8.900   8.428  68.571  1.00  0.00     0.000 HD 
HETATM   21  O   UNL     1      -9.484   8.685  69.275  1.00  0.00    -0.156 OA 
BRANCH  19  22
HETATM   22  C   UNL     1     -10.405  10.331  67.733  1.00  0.00    -0.204 C  
HETATM   23  C   UNL     1     -10.084  10.235  65.276  1.00  0.00    -0.359 C  
HETATM   24  C   UNL     1      -9.390  10.081  66.617  1.00  0.00    -0.202 C  
HETATM   25  C   UNL     1     -10.884  11.504  65.258  1.00  0.00    -0.319 A  
HETATM   26  C   UNL     1     -11.257  12.140  66.450  1.00  0.00    -0.331 A  
HETATM   27  O   UNL     1     -10.903  11.686  67.694  1.00  0.00    -0.203 OA 
HETATM   28  C   UNL     1     -11.990  13.329  66.417  1.00  0.00    -0.465 A  
HETATM   29  C   UNL     1     -12.375  13.879  65.194  1.00  0.00    -0.471 A  
HETATM   30  C   UNL     1     -12.020  13.237  64.014  1.00  0.00    -0.465 A  
HETATM   31  F   UNL     1     -12.386  13.763  62.838  1.00  0.00    -0.449 F  
HETATM   32  C   UNL     1     -11.283  12.058  64.034  1.00  0.00    -0.468 A  
ENDBRANCH  19  22
ENDBRANCH  18  19
ENDBRANCH  16  18
ENDBRANCH  15  16
ENDBRANCH   2  15
TORSDOF 6
ENDMDL
MODEL       48
REMARK 921   NORMALIZED FREE ENERGY PREDICTED BY IDOCK:   -7.10 KCAL/MOL
REMARK 922        TOTAL FREE ENERGY PREDICTED BY IDOCK:  -10.78 KCAL/MOL
REMARK 923 INTER-LIGAND FREE ENERGY PREDICTED BY IDOCK:   -9.16 KCAL/MOL
REMARK 924 INTRA-LIGAND FREE ENERGY PREDICTED BY IDOCK:   -1.62 KCAL/MOL
REMARK 927      BINDING AFFINITY PREDICTED BY RF-SCORE:    0.00 PKD
ROOT
HETATM    1  O   UNL     1     -14.306  14.903  70.934  1.00  0.00    -0.611 OA 
HETATM    2  C   UNL     1     -12.993  14.426  70.609  1.00  0.00    -0.289 C  
HETATM    3  H   UNL     1     -14.939  14.531  70.331  1.00  0.00     0.000 HD 
ENDROOT
BRANCH   2   4
HETATM    4  C   UNL     1     -12.983  12.879  70.616  1.00  0.00     0.149 C  
HETATM    5  C   UNL     1     -10.864   8.390  70.146  1.00  0.00    -0.236 A  
HETATM    6  C   UNL     1     -10.242   9.216  69.219  1.00  0.00    -0.215 A  
HETATM    7  C   UNL     1     -13.070  12.297  72.031  1.00  0.00    -0.461 C  
HETATM    8  C   UNL     1     -13.189  10.787  71.934  1.00  0.00    -0.524 C  
HETATM    9  F   UNL     1     -10.536   7.091  70.199  1.00  0.00    -0.201 F  
HETATM   10  C   UNL     1     -10.584  10.570  69.170  1.00  0.00    -0.258 A  
HETATM   11  O   UNL     1     -11.800  12.423  69.936  1.00  0.00    -0.322 OA 
HETATM   12  C   UNL     1     -12.160  10.248  70.985  1.00  0.00    -0.487 A  
HETATM   13  C   UNL     1     -11.546  11.081  70.041  1.00  0.00    -0.344 A  
HETATM   14  C   UNL     1     -11.820   8.889  71.024  1.00  0.00    -0.324 A  
ENDBRANCH   2   4
BRANCH   2  15
HETATM   15  C   UNL     1     -11.966  15.029  71.589  1.00  0.00    -0.366 C  
BRANCH  15  16
HETATM   16  N   UNL     1     -10.652  15.242  70.955  1.00  0.00    -0.440 NA 
HETATM   17  H   UNL     1     -10.311  14.405  70.481  1.00  0.00     0.000 HD 
BRANCH  16  18
HETATM   18  C   UNL     1     -10.732  16.404  70.052  1.00  0.00    -0.258 C  
BRANCH  18  19
HETATM   19  C   UNL     1      -9.820  16.223  68.822  1.00  0.00    -0.238 C  
HETATM   20  H   UNL     1      -7.885  16.147  68.494  1.00  0.00     0.000 HD 
HETATM   21  O   UNL     1      -8.446  16.258  69.252  1.00  0.00    -0.238 OA 
BRANCH  19  22
HETATM   22  C   UNL     1     -10.085  14.896  68.074  1.00  0.00    -0.221 C  
HETATM   23  C   UNL     1      -9.131  13.009  66.776  1.00  0.00    -0.212 C  
HETATM   24  C   UNL     1      -8.824  14.361  67.394  1.00  0.00    -0.211 C  
HETATM   25  C   UNL     1     -10.403  13.088  65.985  1.00  0.00    -0.293 A  
HETATM   26  C   UNL     1     -11.329  14.116  66.205  1.00  0.00    -0.337 A  
HETATM   27  O   UNL     1     -11.139  15.125  67.114  1.00  0.00    -0.329 OA 
HETATM   28  C   UNL     1     -12.504  14.184  65.450  1.00  0.00    -0.488 A  
HETATM   29  C   UNL     1     -12.771  13.212  64.486  1.00  0.00    -0.270 A  
HETATM   30  C   UNL     1     -11.860  12.184  64.282  1.00  0.00    -0.378 A  
HETATM   31  F   UNL     1     -12.113  11.250  63.355  1.00  0.00    -0.416 F  
HETATM   32  C   UNL     1     -10.684  12.110  65.021  1.00  0.00    -0.338 A  
ENDBRANCH  19  22
ENDBRANCH  18  19
ENDBRANCH  16  18
ENDBRANCH  15  16
ENDBRANCH   2  15
TORSDOF 6
ENDMDL
MODEL       49
REMARK 921   NORMALIZED FREE ENERGY PREDICTED BY IDOCK:   -7.09 KCAL/MOL
REMARK 922        TOTAL FREE ENERGY PREDICTED BY IDOCK:  -10.76 KCAL/MOL
REMARK 923 INTER-LIGAND FREE ENERGY PREDICTED BY IDOCK:   -8.79 KCAL/MOL
REMARK 924 INTRA-LIGAND FREE ENERGY PREDICTED BY IDOCK:   -1.97 KCAL/MOL
REMARK 927      BINDING AFFINITY PREDICTED BY RF-SCORE:    0.00 PKD
ROOT
HETATM    1  O   UNL     1      -9.973  12.974  63.654  1.00  0.00    -0.717 OA 
HETATM    2  C   UNL     1     -10.296  12.870  65.048  1.00  0.00    -0.315 C  
HETATM    3  H   UNL     1      -9.030  13.001  63.547  1.00  0.00     0.000 HD 
ENDROOT
BRANCH   2   4
HETATM    4  C   UNL     1      -9.593  11.634  65.656  1.00  0.00    -0.229 C  
HETATM    5  C   UNL     1      -7.881   8.818  69.398  1.00  0.00    -0.095 A  
HETATM    6  C   UNL     1      -7.722  10.138  69.796  1.00  0.00    -0.176 A  
HETATM    7  C   UNL     1     -10.450  10.367  65.566  1.00  0.00    -0.192 C  
HETATM    8  C   UNL     1      -9.634   9.186  66.060  1.00  0.00    -0.342 C  
HETATM    9  F   UNL     1      -7.441   7.830  70.190  1.00  0.00    -0.074 F  
HETATM   10  C   UNL     1      -8.186  11.165  68.969  1.00  0.00    -0.066 A  
HETATM   11  O   UNL     1      -9.240  11.929  67.020  1.00  0.00    -0.180 OA 
HETATM   12  C   UNL     1      -8.969   9.527  67.361  1.00  0.00    -0.141 A  
HETATM   13  C   UNL     1      -8.796  10.861  67.753  1.00  0.00    -0.135 A  
HETATM   14  C   UNL     1      -8.495   8.502  68.191  1.00  0.00    -0.134 A  
ENDBRANCH   2   4
BRANCH   2  15
HETATM   15  C   UNL     1     -11.828  12.827  65.222  1.00  0.00    -0.403 C  
BRANCH  15  16
HETATM   16  N   UNL     1     -12.267  13.515  66.449  1.00  0.00    -0.415 NA 
HETATM   17  H   UNL     1     -12.294  12.891  67.255  1.00  0.00     0.000 HD 
BRANCH  16  18
HETATM   18  C   UNL     1     -11.408  14.690  66.680  1.00  0.00    -0.356 C  
BRANCH  18  19
HETATM   19  C   UNL     1     -11.138  14.903  68.183  1.00  0.00    -0.283 C  
HETATM   20  H   UNL     1     -11.219  16.414  69.435  1.00  0.00     0.000 HD 
HETATM   21  O   UNL     1     -11.385  16.283  68.509  1.00  0.00    -0.367 OA 
BRANCH  19  22
HETATM   22  C   UNL     1     -12.021  14.002  69.080  1.00  0.00    -0.357 C  
HETATM   23  C   UNL     1     -13.160  13.715  71.264  1.00  0.00    -0.357 C  
HETATM   24  C   UNL     1     -12.199  14.591  70.479  1.00  0.00    -0.399 C  
HETATM   25  C   UNL     1     -12.763  12.274  71.128  1.00  0.00    -0.340 A  
HETATM   26  C   UNL     1     -11.938  11.848  70.079  1.00  0.00    -0.332 A  
HETATM   27  O   UNL     1     -11.413  12.693  69.136  1.00  0.00    -0.271 OA 
HETATM   28  C   UNL     1     -11.567  10.505  69.973  1.00  0.00    -0.392 A  
HETATM   29  C   UNL     1     -12.035   9.575  70.901  1.00  0.00    -0.372 A  
HETATM   30  C   UNL     1     -12.867   9.998  71.931  1.00  0.00    -0.426 A  
HETATM   31  F   UNL     1     -13.317   9.108  72.825  1.00  0.00    -0.487 F  
HETATM   32  C   UNL     1     -13.237  11.332  72.051  1.00  0.00    -0.437 A  
ENDBRANCH  19  22
ENDBRANCH  18  19
ENDBRANCH  16  18
ENDBRANCH  15  16
ENDBRANCH   2  15
TORSDOF 6
ENDMDL
MODEL       50
REMARK 921   NORMALIZED FREE ENERGY PREDICTED BY IDOCK:   -7.09 KCAL/MOL
REMARK 922        TOTAL FREE ENERGY PREDICTED BY IDOCK:  -10.76 KCAL/MOL
REMARK 923 INTER-LIGAND FREE ENERGY PREDICTED BY IDOCK:   -9.72 KCAL/MOL
REMARK 924 INTRA-LIGAND FREE ENERGY PREDICTED BY IDOCK:   -1.04 KCAL/MOL
REMARK 927      BINDING AFFINITY PREDICTED BY RF-SCORE:    0.00 PKD
ROOT
HETATM    1  O   UNL     1     -12.924  10.468  71.938  1.00  0.00    -0.450 OA 
HETATM    2  C   UNL     1     -12.489   9.724  70.791  1.00  0.00    -0.213 C  
HETATM    3  H   UNL     1     -13.650  10.019  72.353  1.00  0.00     0.000 HD 
ENDROOT
BRANCH   2   4
HETATM    4  C   UNL     1     -12.132   8.279  71.211  1.00  0.00    -0.280 C  
HETATM    5  C   UNL     1      -9.692   3.949  70.810  1.00  0.00    -0.185 A  
HETATM    6  C   UNL     1      -9.891   4.408  69.515  1.00  0.00    -0.258 A  
HETATM    7  C   UNL     1     -11.289   8.229  72.488  1.00  0.00    -0.455 C  
HETATM    8  C   UNL     1     -11.102   6.779  72.897  1.00  0.00    -0.277 C  
HETATM    9  F   UNL     1      -9.110   2.757  71.007  1.00  0.00    -0.125 F  
HETATM   10  C   UNL     1     -10.495   5.652  69.314  1.00  0.00    -0.356 A  
HETATM   11  O   UNL     1     -11.459   7.634  70.115  1.00  0.00    -0.199 OA 
HETATM   12  C   UNL     1     -10.682   5.959  71.713  1.00  0.00    -0.299 A  
HETATM   13  C   UNL     1     -10.898   6.419  70.407  1.00  0.00    -0.286 A  
HETATM   14  C   UNL     1     -10.083   4.707  71.909  1.00  0.00    -0.266 A  
ENDBRANCH   2   4
BRANCH   2  15
HETATM   15  C   UNL     1     -11.309  10.454  70.118  1.00  0.00    -0.323 C  
BRANCH  15  16
HETATM   16  N   UNL     1     -11.500  10.594  68.663  1.00  0.00    -0.391 NA 
HETATM   17  H   UNL     1     -12.440  10.910  68.425  1.00  0.00     0.000 HD 
BRANCH  16  18
HETATM   18  C   UNL     1     -10.456  11.482  68.120  1.00  0.00    -0.193 C  
BRANCH  18  19
HETATM   19  C   UNL     1     -11.072  12.704  67.410  1.00  0.00    -0.273 C  
HETATM   20  H   UNL     1     -12.659  13.047  66.304  1.00  0.00     0.000 HD 
HETATM   21  O   UNL     1     -12.279  12.294  66.741  1.00  0.00    -0.558 OA 
BRANCH  19  22
HETATM   22  C   UNL     1     -11.398  13.859  68.386  1.00  0.00    -0.285 C  
HETATM   23  C   UNL     1     -10.521  15.664  69.844  1.00  0.00    -0.327 C  
HETATM   24  C   UNL     1     -10.133  14.473  68.986  1.00  0.00    -0.187 C  
HETATM   25  C   UNL     1     -11.649  15.288  70.759  1.00  0.00    -0.371 A  
HETATM   26  C   UNL     1     -12.457  14.175  70.490  1.00  0.00    -0.361 A  
HETATM   27  O   UNL     1     -12.268  13.343  69.416  1.00  0.00    -0.288 OA 
HETATM   28  C   UNL     1     -13.495  13.829  71.359  1.00  0.00    -0.296 A  
HETATM   29  C   UNL     1     -13.747  14.605  72.490  1.00  0.00    -0.572 A  
HETATM   30  C   UNL     1     -12.956  15.718  72.745  1.00  0.00    -0.490 A  
HETATM   31  F   UNL     1     -13.193  16.464  73.832  1.00  0.00    -0.552 F  
HETATM   32  C   UNL     1     -11.914  16.068  71.892  1.00  0.00    -0.606 A  
ENDBRANCH  19  22
ENDBRANCH  18  19
ENDBRANCH  16  18
ENDBRANCH  15  16
ENDBRANCH   2  15
TORSDOF 6
ENDMDL
MODEL       51
REMARK 921   NORMALIZED FREE ENERGY PREDICTED BY IDOCK:   -7.06 KCAL/MOL
REMARK 922        TOTAL FREE ENERGY PREDICTED BY IDOCK:  -10.73 KCAL/MOL
REMARK 923 INTER-LIGAND FREE ENERGY PREDICTED BY IDOCK:   -9.47 KCAL/MOL
REMARK 924 INTRA-LIGAND FREE ENERGY PREDICTED BY IDOCK:   -1.25 KCAL/MOL
REMARK 927      BINDING AFFINITY PREDICTED BY RF-SCORE:    0.00 PKD
ROOT
HETATM    1  O   UNL     1     -12.062  12.970  70.839  1.00  0.00    -0.463 OA 
HETATM    2  C   UNL     1     -11.956  11.556  70.619  1.00  0.00    -0.292 C  
HETATM    3  H   UNL     1     -11.335  13.414  70.419  1.00  0.00     0.000 HD 
ENDROOT
BRANCH   2   4
HETATM    4  C   UNL     1     -11.880  11.269  69.102  1.00  0.00    -0.355 C  
HETATM    5  C   UNL     1     -11.280  12.510  64.310  1.00  0.00    -0.355 A  
HETATM    6  C   UNL     1     -11.916  13.585  64.916  1.00  0.00    -0.410 A  
HETATM    7  C   UNL     1     -10.595  10.537  68.705  1.00  0.00    -0.233 C  
HETATM    8  C   UNL     1     -10.668  10.178  67.231  1.00  0.00    -0.316 C  
HETATM    9  F   UNL     1     -11.047  12.539  62.990  1.00  0.00    -0.464 F  
HETATM   10  C   UNL     1     -12.154  13.552  66.293  1.00  0.00    -0.476 A  
HETATM   11  O   UNL     1     -12.014  12.512  68.389  1.00  0.00    -0.322 OA 
HETATM   12  C   UNL     1     -11.105  11.370  66.432  1.00  0.00    -0.301 A  
HETATM   13  C   UNL     1     -11.761  12.446  67.045  1.00  0.00    -0.353 A  
HETATM   14  C   UNL     1     -10.876  11.404  65.050  1.00  0.00    -0.311 A  
ENDBRANCH   2   4
BRANCH   2  15
HETATM   15  C   UNL     1     -13.137  10.836  71.301  1.00  0.00    -0.330 C  
BRANCH  15  16
HETATM   16  N   UNL     1     -13.310   9.460  70.803  1.00  0.00    -0.562 NA 
HETATM   17  H   UNL     1     -12.717   9.262  69.998  1.00  0.00     0.000 HD 
BRANCH  16  18
HETATM   18  C   UNL     1     -13.087   8.512  71.909  1.00  0.00    -0.362 C  
BRANCH  18  19
HETATM   19  C   UNL     1     -11.621   8.039  71.956  1.00  0.00    -0.316 C  
HETATM   20  H   UNL     1     -10.368   7.450  73.350  1.00  0.00     0.000 HD 
HETATM   21  O   UNL     1     -11.271   7.742  73.321  1.00  0.00    -0.350 OA 
BRANCH  19  22
HETATM   22  C   UNL     1     -11.371   6.787  71.083  1.00  0.00    -0.296 C  
HETATM   23  C   UNL     1     -10.011   4.747  70.707  1.00  0.00    -0.291 C  
HETATM   24  C   UNL     1     -10.131   6.014  71.534  1.00  0.00    -0.232 C  
HETATM   25  C   UNL     1     -10.173   5.071  69.252  1.00  0.00    -0.245 A  
HETATM   26  C   UNL     1     -10.788   6.261  68.840  1.00  0.00    -0.333 A  
HETATM   27  O   UNL     1     -11.248   7.216  69.710  1.00  0.00    -0.243 OA 
HETATM   28  C   UNL     1     -10.920   6.555  67.480  1.00  0.00    -0.444 A  
HETATM   29  C   UNL     1     -10.459   5.652  66.522  1.00  0.00    -0.309 A  
HETATM   30  C   UNL     1      -9.866   4.464  66.933  1.00  0.00    -0.207 A  
HETATM   31  F   UNL     1      -9.421   3.596  66.015  1.00  0.00    -0.155 F  
HETATM   32  C   UNL     1      -9.722   4.164  68.283  1.00  0.00    -0.148 A  
ENDBRANCH  19  22
ENDBRANCH  18  19
ENDBRANCH  16  18
ENDBRANCH  15  16
ENDBRANCH   2  15
TORSDOF 6
ENDMDL
MODEL       52
REMARK 921   NORMALIZED FREE ENERGY PREDICTED BY IDOCK:   -7.03 KCAL/MOL
REMARK 922        TOTAL FREE ENERGY PREDICTED BY IDOCK:  -10.68 KCAL/MOL
REMARK 923 INTER-LIGAND FREE ENERGY PREDICTED BY IDOCK:   -9.69 KCAL/MOL
REMARK 924 INTRA-LIGAND FREE ENERGY PREDICTED BY IDOCK:   -0.99 KCAL/MOL
REMARK 927      BINDING AFFINITY PREDICTED BY RF-SCORE:    0.00 PKD
ROOT
HETATM    1  O   UNL     1     -11.392   5.992  66.356  1.00  0.00    -0.732 OA 
HETATM    2  C   UNL     1     -10.038   6.307  66.712  1.00  0.00    -0.180 C  
HETATM    3  H   UNL     1     -11.551   5.067  66.494  1.00  0.00     0.000 HD 
ENDROOT
BRANCH   2   4
HETATM    4  C   UNL     1      -9.767   5.870  68.170  1.00  0.00    -0.127 C  
HETATM    5  C   UNL     1     -11.019   5.032  72.924  1.00  0.00    -0.277 A  
HETATM    6  C   UNL     1     -11.749   6.140  72.516  1.00  0.00    -0.259 A  
HETATM    7  C   UNL     1      -9.623   4.351  68.312  1.00  0.00    -0.199 C  
HETATM    8  C   UNL     1      -9.228   4.026  69.741  1.00  0.00    -0.212 C  
HETATM    9  F   UNL     1     -11.107   4.614  74.195  1.00  0.00    -0.329 F  
HETATM   10  C   UNL     1     -11.657   6.571  71.190  1.00  0.00    -0.390 A  
HETATM   11  O   UNL     1     -10.824   6.374  69.007  1.00  0.00    -0.261 OA 
HETATM   12  C   UNL     1     -10.110   4.768  70.701  1.00  0.00    -0.288 A  
HETATM   13  C   UNL     1     -10.833   5.895  70.290  1.00  0.00    -0.320 A  
HETATM   14  C   UNL     1     -10.199   4.345  72.035  1.00  0.00    -0.233 A  
ENDBRANCH   2   4
BRANCH   2  15
HETATM   15  C   UNL     1      -9.780   7.811  66.487  1.00  0.00    -0.195 C  
BRANCH  15  16
HETATM   16  N   UNL     1     -10.725   8.656  67.240  1.00  0.00    -0.427 NA 
HETATM   17  H   UNL     1     -11.394   8.104  67.776  1.00  0.00     0.000 HD 
BRANCH  16  18
HETATM   18  C   UNL     1      -9.967   9.594  68.087  1.00  0.00    -0.159 C  
BRANCH  18  19
HETATM   19  C   UNL     1     -10.502  11.033  67.949  1.00  0.00    -0.192 C  
HETATM   20  H   UNL     1     -11.900  11.928  66.897  1.00  0.00     0.000 HD 
HETATM   21  O   UNL     1     -11.570  11.042  66.982  1.00  0.00    -0.427 OA 
BRANCH  19  22
HETATM   22  C   UNL     1     -11.023  11.606  69.288  1.00  0.00    -0.192 C  
HETATM   23  C   UNL     1     -12.579  11.344  71.201  1.00  0.00    -0.490 C  
HETATM   24  C   UNL     1     -12.193  10.793  69.840  1.00  0.00    -0.384 C  
HETATM   25  C   UNL     1     -12.704  12.837  71.130  1.00  0.00    -0.355 A  
HETATM   26  C   UNL     1     -12.104  13.564  70.093  1.00  0.00    -0.354 A  
HETATM   27  O   UNL     1     -11.400  12.983  69.069  1.00  0.00    -0.260 OA 
HETATM   28  C   UNL     1     -12.240  14.953  70.033  1.00  0.00    -0.381 A  
HETATM   29  C   UNL     1     -12.958  15.628  71.020  1.00  0.00    -0.518 A  
HETATM   30  C   UNL     1     -13.537  14.907  72.057  1.00  0.00    -0.407 A  
HETATM   31  F   UNL     1     -14.229  15.552  73.005  1.00  0.00    -0.507 F  
HETATM   32  C   UNL     1     -13.415  13.524  72.123  1.00  0.00    -0.631 A  
ENDBRANCH  19  22
ENDBRANCH  18  19
ENDBRANCH  16  18
ENDBRANCH  15  16
ENDBRANCH   2  15
TORSDOF 6
ENDMDL
MODEL       53
REMARK 921   NORMALIZED FREE ENERGY PREDICTED BY IDOCK:   -6.99 KCAL/MOL
REMARK 922        TOTAL FREE ENERGY PREDICTED BY IDOCK:  -10.63 KCAL/MOL
REMARK 923 INTER-LIGAND FREE ENERGY PREDICTED BY IDOCK:   -9.48 KCAL/MOL
REMARK 924 INTRA-LIGAND FREE ENERGY PREDICTED BY IDOCK:   -1.14 KCAL/MOL
REMARK 927      BINDING AFFINITY PREDICTED BY RF-SCORE:    0.00 PKD
ROOT
HETATM    1  O   UNL     1     -14.126   9.022  73.232  1.00  0.00    -1.218 OA 
HETATM    2  C   UNL     1     -13.511   8.953  71.938  1.00  0.00    -0.414 C  
HETATM    3  H   UNL     1     -14.641   8.239  73.382  1.00  0.00     0.000 HD 
ENDROOT
BRANCH   2   4
HETATM    4  C   UNL     1     -12.671   7.659  71.828  1.00  0.00    -0.330 C  
HETATM    5  C   UNL     1      -9.362   4.610  69.678  1.00  0.00    -0.143 A  
HETATM    6  C   UNL     1     -10.036   5.249  68.645  1.00  0.00    -0.234 A  
HETATM    7  C   UNL     1     -11.521   7.617  72.838  1.00  0.00    -0.342 C  
HETATM    8  C   UNL     1     -10.839   6.263  72.750  1.00  0.00    -0.281 C  
HETATM    9  F   UNL     1      -8.447   3.674  69.391  1.00  0.00    -0.070 F  
HETATM   10  C   UNL     1     -10.986   6.227  68.949  1.00  0.00    -0.435 A  
HETATM   11  O   UNL     1     -12.185   7.538  70.478  1.00  0.00    -0.103 OA 
HETATM   12  C   UNL     1     -10.564   5.916  71.317  1.00  0.00    -0.311 A  
HETATM   13  C   UNL     1     -11.257   6.551  70.278  1.00  0.00    -0.374 A  
HETATM   14  C   UNL     1      -9.618   4.930  71.007  1.00  0.00    -0.238 A  
ENDBRANCH   2   4
BRANCH   2  15
HETATM   15  C   UNL     1     -12.674  10.225  71.694  1.00  0.00    -0.456 C  
BRANCH  15  16
HETATM   16  N   UNL     1     -12.460  10.482  70.258  1.00  0.00    -0.440 NA 
HETATM   17  H   UNL     1     -13.328  10.701  69.771  1.00  0.00     0.000 HD 
BRANCH  16  18
HETATM   18  C   UNL     1     -11.447  11.541  70.101  1.00  0.00    -0.170 C  
BRANCH  18  19
HETATM   19  C   UNL     1     -11.975  12.698  69.229  1.00  0.00    -0.246 C  
HETATM   20  H   UNL     1     -12.039  14.657  69.364  1.00  0.00     0.000 HD 
HETATM   21  O   UNL     1     -11.714  13.944  69.901  1.00  0.00    -0.280 OA 
BRANCH  19  22
HETATM   22  C   UNL     1     -11.324  12.731  67.826  1.00  0.00    -0.294 C  
HETATM   23  C   UNL     1     -11.547  13.374  65.441  1.00  0.00    -0.335 C  
HETATM   24  C   UNL     1     -12.284  13.269  66.764  1.00  0.00    -0.340 C  
HETATM   25  C   UNL     1     -10.804  12.101  65.168  1.00  0.00    -0.343 A  
HETATM   26  C   UNL     1     -10.505  11.202  66.201  1.00  0.00    -0.253 A  
HETATM   27  O   UNL     1     -10.885  11.393  67.504  1.00  0.00    -0.214 OA 
HETATM   28  C   UNL     1      -9.824  10.013  65.929  1.00  0.00    -0.330 A  
HETATM   29  C   UNL     1      -9.417   9.723  64.626  1.00  0.00    -0.295 A  
HETATM   30  C   UNL     1      -9.699  10.624  63.606  1.00  0.00    -0.330 A  
HETATM   31  F   UNL     1      -9.312  10.348  62.354  1.00  0.00    -0.236 F  
HETATM   32  C   UNL     1     -10.384  11.807  63.864  1.00  0.00    -0.428 A  
ENDBRANCH  19  22
ENDBRANCH  18  19
ENDBRANCH  16  18
ENDBRANCH  15  16
ENDBRANCH   2  15
TORSDOF 6
ENDMDL
MODEL       54
REMARK 921   NORMALIZED FREE ENERGY PREDICTED BY IDOCK:   -6.99 KCAL/MOL
REMARK 922        TOTAL FREE ENERGY PREDICTED BY IDOCK:  -10.62 KCAL/MOL
REMARK 923 INTER-LIGAND FREE ENERGY PREDICTED BY IDOCK:   -9.87 KCAL/MOL
REMARK 924 INTRA-LIGAND FREE ENERGY PREDICTED BY IDOCK:   -0.75 KCAL/MOL
REMARK 927      BINDING AFFINITY PREDICTED BY RF-SCORE:    0.00 PKD
ROOT
HETATM    1  O   UNL     1     -14.146   8.965  73.257  1.00  0.00    -1.211 OA 
HETATM    2  C   UNL     1     -13.572   8.896  71.944  1.00  0.00    -0.425 C  
HETATM    3  H   UNL     1     -14.626   8.166  73.437  1.00  0.00     0.000 HD 
ENDROOT
BRANCH   2   4
HETATM    4  C   UNL     1     -12.689   7.632  71.826  1.00  0.00    -0.330 C  
HETATM    5  C   UNL     1      -9.379   4.647  69.590  1.00  0.00    -0.143 A  
HETATM    6  C   UNL     1     -10.131   5.228  68.577  1.00  0.00    -0.232 A  
HETATM    7  C   UNL     1     -11.486   7.665  72.775  1.00  0.00    -0.384 C  
HETATM    8  C   UNL     1     -10.757   6.336  72.688  1.00  0.00    -0.260 C  
HETATM    9  F   UNL     1      -8.444   3.737  69.281  1.00  0.00    -0.073 F  
HETATM   10  C   UNL     1     -11.102   6.179  68.903  1.00  0.00    -0.417 A  
HETATM   11  O   UNL     1     -12.270   7.489  70.457  1.00  0.00    -0.103 OA 
HETATM   12  C   UNL     1     -10.544   5.956  71.253  1.00  0.00    -0.311 A  
HETATM   13  C   UNL     1     -11.315   6.533  70.235  1.00  0.00    -0.395 A  
HETATM   14  C   UNL     1      -9.577   4.997  70.921  1.00  0.00    -0.242 A  
ENDBRANCH   2   4
BRANCH   2  15
HETATM   15  C   UNL     1     -12.791  10.194  71.652  1.00  0.00    -0.454 C  
BRANCH  15  16
HETATM   16  N   UNL     1     -12.519  10.367  70.214  1.00  0.00    -0.471 NA 
HETATM   17  H   UNL     1     -13.346  10.200  69.641  1.00  0.00     0.000 HD 
BRANCH  16  18
HETATM   18  C   UNL     1     -11.941  11.704  69.987  1.00  0.00    -0.351 C  
BRANCH  18  19
HETATM   19  C   UNL     1     -11.261  11.795  68.607  1.00  0.00    -0.257 C  
HETATM   20  H   UNL     1     -11.409  10.850  66.891  1.00  0.00     0.000 HD 
HETATM   21  O   UNL     1     -11.828  10.794  67.741  1.00  0.00    -0.538 OA 
BRANCH  19  22
HETATM   22  C   UNL     1     -11.425  13.186  67.952  1.00  0.00    -0.308 C  
HETATM   23  C   UNL     1     -11.013  14.618  65.969  1.00  0.00    -0.325 C  
HETATM   24  C   UNL     1     -10.718  13.268  66.599  1.00  0.00    -0.284 C  
HETATM   25  C   UNL     1     -10.786  15.709  66.972  1.00  0.00    -0.294 A  
HETATM   26  C   UNL     1     -10.765  15.435  68.346  1.00  0.00    -0.256 A  
HETATM   27  O   UNL     1     -10.914  14.177  68.870  1.00  0.00    -0.244 OA 
HETATM   28  C   UNL     1     -10.540  16.461  69.268  1.00  0.00    -0.311 A  
HETATM   29  C   UNL     1     -10.356  17.770  68.825  1.00  0.00    -0.332 A  
HETATM   30  C   UNL     1     -10.395  18.043  67.464  1.00  0.00    -0.385 A  
HETATM   31  F   UNL     1     -10.216  19.299  67.034  1.00  0.00    -0.361 F  
HETATM   32  C   UNL     1     -10.610  17.029  66.536  1.00  0.00    -0.172 A  
ENDBRANCH  19  22
ENDBRANCH  18  19
ENDBRANCH  16  18
ENDBRANCH  15  16
ENDBRANCH   2  15
TORSDOF 6
ENDMDL
MODEL       55
REMARK 921   NORMALIZED FREE ENERGY PREDICTED BY IDOCK:   -6.96 KCAL/MOL
REMARK 922        TOTAL FREE ENERGY PREDICTED BY IDOCK:  -10.58 KCAL/MOL
REMARK 923 INTER-LIGAND FREE ENERGY PREDICTED BY IDOCK:   -8.67 KCAL/MOL
REMARK 924 INTRA-LIGAND FREE ENERGY PREDICTED BY IDOCK:   -1.91 KCAL/MOL
REMARK 927      BINDING AFFINITY PREDICTED BY RF-SCORE:    0.00 PKD
ROOT
HETATM    1  O   UNL     1     -13.278   9.762  70.151  1.00  0.00    -0.338 OA 
HETATM    2  C   UNL     1     -13.534  10.318  71.449  1.00  0.00    -0.218 C  
HETATM    3  H   UNL     1     -13.568  10.369  69.481  1.00  0.00     0.000 HD 
ENDROOT
BRANCH   2   4
HETATM    4  C   UNL     1     -12.855  11.702  71.567  1.00  0.00    -0.364 C  
HETATM    5  C   UNL     1     -11.205  16.069  69.815  1.00  0.00    -0.344 A  
HETATM    6  C   UNL     1     -11.024  15.144  68.795  1.00  0.00    -0.257 A  
HETATM    7  C   UNL     1     -13.733  12.728  72.290  1.00  0.00    -0.495 C  
HETATM    8  C   UNL     1     -12.939  14.008  72.478  1.00  0.00    -0.480 C  
HETATM    9  F   UNL     1     -10.784  17.331  69.645  1.00  0.00    -0.318 F  
HETATM   10  C   UNL     1     -11.467  13.831  68.975  1.00  0.00    -0.349 A  
HETATM   11  O   UNL     1     -12.501  12.156  70.248  1.00  0.00    -0.198 OA 
HETATM   12  C   UNL     1     -12.274  14.396  71.191  1.00  0.00    -0.420 A  
HETATM   13  C   UNL     1     -12.079  13.456  70.171  1.00  0.00    -0.344 A  
HETATM   14  C   UNL     1     -11.820  15.710  71.009  1.00  0.00    -0.442 A  
ENDBRANCH   2   4
BRANCH   2  15
HETATM   15  C   UNL     1     -13.062   9.332  72.537  1.00  0.00    -0.343 C  
BRANCH  15  16
HETATM   16  N   UNL     1     -12.802   7.987  71.993  1.00  0.00    -0.413 NA 
HETATM   17  H   UNL     1     -12.988   7.932  70.992  1.00  0.00     0.000 HD 
BRANCH  16  18
HETATM   18  C   UNL     1     -11.425   7.585  72.330  1.00  0.00    -0.315 C  
BRANCH  18  19
HETATM   19  C   UNL     1     -10.740   6.877  71.145  1.00  0.00    -0.225 C  
HETATM   20  H   UNL     1     -11.329   5.835  69.587  1.00  0.00     0.000 HD 
HETATM   21  O   UNL     1     -11.751   6.271  70.317  1.00  0.00    -0.384 OA 
BRANCH  19  22
HETATM   22  C   UNL     1      -9.889   7.841  70.285  1.00  0.00    -0.184 C  
HETATM   23  C   UNL     1      -8.237   9.691  70.247  1.00  0.00    -0.217 C  
HETATM   24  C   UNL     1      -9.130   8.853  71.144  1.00  0.00    -0.315 C  
HETATM   25  C   UNL     1      -9.019  10.185  69.067  1.00  0.00    -0.168 A  
HETATM   26  C   UNL     1     -10.215   9.564  68.681  1.00  0.00    -0.195 A  
HETATM   27  O   UNL     1     -10.769   8.504  69.351  1.00  0.00    -0.222 OA 
HETATM   28  C   UNL     1     -10.940  10.044  67.587  1.00  0.00    -0.297 A  
HETATM   29  C   UNL     1     -10.464  11.133  66.857  1.00  0.00    -0.289 A  
HETATM   30  C   UNL     1      -9.270  11.736  67.231  1.00  0.00    -0.173 A  
HETATM   31  F   UNL     1      -8.811  12.784  66.534  1.00  0.00    -0.209 F  
HETATM   32  C   UNL     1      -8.544  11.273  68.323  1.00  0.00    -0.153 A  
ENDBRANCH  19  22
ENDBRANCH  18  19
ENDBRANCH  16  18
ENDBRANCH  15  16
ENDBRANCH   2  15
TORSDOF 6
ENDMDL
MODEL       56
REMARK 921   NORMALIZED FREE ENERGY PREDICTED BY IDOCK:   -6.95 KCAL/MOL
REMARK 922        TOTAL FREE ENERGY PREDICTED BY IDOCK:  -10.58 KCAL/MOL
REMARK 923 INTER-LIGAND FREE ENERGY PREDICTED BY IDOCK:   -8.51 KCAL/MOL
REMARK 924 INTRA-LIGAND FREE ENERGY PREDICTED BY IDOCK:   -2.07 KCAL/MOL
REMARK 927      BINDING AFFINITY PREDICTED BY RF-SCORE:    0.00 PKD
ROOT
HETATM    1  O   UNL     1      -6.583  12.558  66.759  1.00  0.00    -0.444 OA 
HETATM    2  C   UNL     1      -7.941  12.627  67.217  1.00  0.00    -0.166 C  
HETATM    3  H   UNL     1      -6.452  13.182  66.055  1.00  0.00     0.000 HD 
ENDROOT
BRANCH   2   4
HETATM    4  C   UNL     1      -8.276  14.077  67.639  1.00  0.00    -0.180 C  
HETATM    5  C   UNL     1     -10.645  18.446  67.239  1.00  0.00    -0.402 A  
HETATM    6  C   UNL     1     -10.449  17.986  65.944  1.00  0.00    -0.268 A  
HETATM    7  C   UNL     1      -9.124  14.137  68.914  1.00  0.00     0.008 C  
HETATM    8  C   UNL     1      -9.289  15.590  69.325  1.00  0.00    -0.266 C  
HETATM    9  F   UNL     1     -11.209  19.646  67.437  1.00  0.00    -0.554 F  
HETATM   10  C   UNL     1      -9.865  16.733  65.742  1.00  0.00    -0.209 A  
HETATM   11  O   UNL     1      -8.936  14.735  66.542  1.00  0.00    -0.266 OA 
HETATM   12  C   UNL     1      -9.691  16.418  68.141  1.00  0.00    -0.229 A  
HETATM   13  C   UNL     1      -9.478  15.958  66.835  1.00  0.00    -0.227 A  
HETATM   14  C   UNL     1     -10.271  17.679  68.337  1.00  0.00    -0.381 A  
ENDBRANCH   2   4
BRANCH   2  15
HETATM   15  C   UNL     1      -8.153  11.614  68.361  1.00  0.00    -0.153 C  
BRANCH  15  16
HETATM   16  N   UNL     1      -8.012  10.220  67.901  1.00  0.00    -0.101 NA 
HETATM   17  H   UNL     1      -7.185   9.767  68.288  1.00  0.00     0.000 HD 
BRANCH  16  18
HETATM   18  C   UNL     1      -9.250   9.482  68.207  1.00  0.00    -0.130 C  
BRANCH  18  19
HETATM   19  C   UNL     1      -9.815   8.787  66.951  1.00  0.00    -0.229 C  
HETATM   20  H   UNL     1     -11.102   7.349  66.587  1.00  0.00     0.000 HD 
HETATM   21  O   UNL     1     -10.755   7.777  67.361  1.00  0.00    -0.278 OA 
BRANCH  19  22
HETATM   22  C   UNL     1     -10.517   9.775  65.989  1.00  0.00    -0.006 C  
HETATM   23  C   UNL     1     -10.401  11.052  63.866  1.00  0.00    -0.436 C  
HETATM   24  C   UNL     1      -9.614  10.173  64.821  1.00  0.00    -0.378 C  
HETATM   25  C   UNL     1     -11.114  12.127  64.631  1.00  0.00    -0.366 A  
HETATM   26  C   UNL     1     -11.346  12.002  66.008  1.00  0.00    -0.343 A  
HETATM   27  O   UNL     1     -10.925  10.930  66.752  1.00  0.00    -0.254 OA 
HETATM   28  C   UNL     1     -11.999  13.018  66.710  1.00  0.00    -0.434 A  
HETATM   29  C   UNL     1     -12.444  14.157  66.038  1.00  0.00    -0.454 A  
HETATM   30  C   UNL     1     -12.228  14.271  64.670  1.00  0.00    -0.454 A  
HETATM   31  F   UNL     1     -12.652  15.364  64.022  1.00  0.00    -0.453 F  
HETATM   32  C   UNL     1     -11.572  13.270  63.962  1.00  0.00    -0.458 A  
ENDBRANCH  19  22
ENDBRANCH  18  19
ENDBRANCH  16  18
ENDBRANCH  15  16
ENDBRANCH   2  15
TORSDOF 6
ENDMDL
MODEL       57
REMARK 921   NORMALIZED FREE ENERGY PREDICTED BY IDOCK:   -6.95 KCAL/MOL
REMARK 922        TOTAL FREE ENERGY PREDICTED BY IDOCK:  -10.58 KCAL/MOL
REMARK 923 INTER-LIGAND FREE ENERGY PREDICTED BY IDOCK:  -10.15 KCAL/MOL
REMARK 924 INTRA-LIGAND FREE ENERGY PREDICTED BY IDOCK:   -0.43 KCAL/MOL
REMARK 927      BINDING AFFINITY PREDICTED BY RF-SCORE:    0.00 PKD
ROOT
HETATM    1  O   UNL     1     -12.014  11.969  66.979  1.00  0.00    -0.609 OA 
HETATM    2  C   UNL     1     -11.456  12.225  68.275  1.00  0.00    -0.315 C  
HETATM    3  H   UNL     1     -11.698  11.135  66.654  1.00  0.00     0.000 HD 
ENDROOT
BRANCH   2   4
HETATM    4  C   UNL     1     -11.788  11.053  69.227  1.00  0.00    -0.340 C  
HETATM    5  C   UNL     1     -10.799   7.792  72.868  1.00  0.00    -0.392 A  
HETATM    6  C   UNL     1      -9.608   7.988  72.183  1.00  0.00    -0.277 A  
HETATM    7  C   UNL     1     -12.764  11.455  70.337  1.00  0.00    -0.171 C  
HETATM    8  C   UNL     1     -13.136  10.219  71.136  1.00  0.00    -0.481 C  
HETATM    9  F   UNL     1     -10.847   6.904  73.871  1.00  0.00    -0.355 F  
HETATM   10  C   UNL     1      -9.561   8.917  71.140  1.00  0.00    -0.342 A  
HETATM   11  O   UNL     1     -10.560  10.540  69.774  1.00  0.00    -0.247 OA 
HETATM   12  C   UNL     1     -11.902   9.446  71.495  1.00  0.00    -0.456 A  
HETATM   13  C   UNL     1     -10.705   9.635  70.791  1.00  0.00    -0.331 A  
HETATM   14  C   UNL     1     -11.945   8.507  72.534  1.00  0.00    -0.401 A  
ENDBRANCH   2   4
BRANCH   2  15
HETATM   15  C   UNL     1     -11.970  13.580  68.802  1.00  0.00    -0.339 C  
BRANCH  15  16
HETATM   16  N   UNL     1     -12.048  14.597  67.738  1.00  0.00    -0.587 NA 
HETATM   17  H   UNL     1     -12.901  15.152  67.796  1.00  0.00     0.000 HD 
BRANCH  16  18
HETATM   18  C   UNL     1     -10.833  15.430  67.773  1.00  0.00    -0.302 C  
BRANCH  18  19
HETATM   19  C   UNL     1     -11.085  16.760  68.512  1.00  0.00    -0.260 C  
HETATM   20  H   UNL     1     -11.129  17.351  70.385  1.00  0.00     0.000 HD 
HETATM   21  O   UNL     1     -10.973  16.532  69.930  1.00  0.00    -0.349 OA 
BRANCH  19  22
HETATM   22  C   UNL     1     -10.093  17.871  68.095  1.00  0.00    -0.366 C  
HETATM   23  C   UNL     1      -9.777  20.088  67.030  1.00  0.00    -0.555 C  
HETATM   24  C   UNL     1     -10.783  18.986  67.309  1.00  0.00    -0.556 C  
HETATM   25  C   UNL     1      -8.510  19.496  66.488  1.00  0.00    -0.365 A  
HETATM   26  C   UNL     1      -8.208  18.140  66.674  1.00  0.00    -0.262 A  
HETATM   27  O   UNL     1      -9.038  17.261  67.321  1.00  0.00    -0.223 OA 
HETATM   28  C   UNL     1      -7.030  17.600  66.151  1.00  0.00    -0.338 A  
HETATM   29  C   UNL     1      -6.135  18.415  65.458  1.00  0.00    -0.281 A  
HETATM   30  C   UNL     1      -6.428  19.763  65.290  1.00  0.00    -0.276 A  
HETATM   31  F   UNL     1      -5.572  20.548  64.623  1.00  0.00    -0.198 F  
HETATM   32  C   UNL     1      -7.601  20.310  65.798  1.00  0.00    -0.173 A  
ENDBRANCH  19  22
ENDBRANCH  18  19
ENDBRANCH  16  18
ENDBRANCH  15  16
ENDBRANCH   2  15
TORSDOF 6
ENDMDL
MODEL       58
REMARK 921   NORMALIZED FREE ENERGY PREDICTED BY IDOCK:   -6.94 KCAL/MOL
REMARK 922        TOTAL FREE ENERGY PREDICTED BY IDOCK:  -10.57 KCAL/MOL
REMARK 923 INTER-LIGAND FREE ENERGY PREDICTED BY IDOCK:   -8.89 KCAL/MOL
REMARK 924 INTRA-LIGAND FREE ENERGY PREDICTED BY IDOCK:   -1.68 KCAL/MOL
REMARK 927      BINDING AFFINITY PREDICTED BY RF-SCORE:    0.00 PKD
ROOT
HETATM    1  O   UNL     1      -8.272  10.097  67.119  1.00  0.00    -0.120 OA 
HETATM    2  C   UNL     1      -7.491  10.073  68.321  1.00  0.00    -0.079 C  
HETATM    3  H   UNL     1      -8.769   9.292  67.045  1.00  0.00     0.000 HD 
ENDROOT
BRANCH   2   4
HETATM    4  C   UNL     1      -8.413   9.831  69.538  1.00  0.00    -0.170 C  
HETATM    5  C   UNL     1     -12.802   9.694  71.903  1.00  0.00    -0.425 A  
HETATM    6  C   UNL     1     -12.868  10.759  71.013  1.00  0.00    -0.480 A  
HETATM    7  C   UNL     1      -8.603   8.343  69.846  1.00  0.00    -0.131 C  
HETATM    8  C   UNL     1      -9.406   8.204  71.127  1.00  0.00    -0.187 C  
HETATM    9  F   UNL     1     -13.831   9.457  72.728  1.00  0.00    -0.449 F  
HETATM   10  C   UNL     1     -11.795  11.000  70.152  1.00  0.00    -0.441 A  
HETATM   11  O   UNL     1      -9.676  10.479  69.296  1.00  0.00    -0.214 OA 
HETATM   12  C   UNL     1     -10.610   9.099  71.080  1.00  0.00    -0.379 A  
HETATM   13  C   UNL     1     -10.667  10.181  70.193  1.00  0.00    -0.300 A  
HETATM   14  C   UNL     1     -11.686   8.866  71.948  1.00  0.00    -0.439 A  
ENDBRANCH   2   4
BRANCH   2  15
HETATM   15  C   UNL     1      -6.684  11.382  68.441  1.00  0.00    -0.065 C  
BRANCH  15  16
HETATM   16  N   UNL     1      -7.399  12.406  69.223  1.00  0.00    -0.322 NA 
HETATM   17  H   UNL     1      -6.995  12.538  70.150  1.00  0.00     0.000 HD 
BRANCH  16  18
HETATM   18  C   UNL     1      -7.447  13.660  68.450  1.00  0.00    -0.123 C  
BRANCH  18  19
HETATM   19  C   UNL     1      -8.740  14.449  68.739  1.00  0.00    -0.129 C  
HETATM   20  H   UNL     1      -9.198  16.315  69.149  1.00  0.00     0.000 HD 
HETATM   21  O   UNL     1      -8.401  15.829  68.971  1.00  0.00    -0.201 OA 
BRANCH  19  22
HETATM   22  C   UNL     1      -9.762  14.364  67.581  1.00  0.00    -0.219 C  
HETATM   23  C   UNL     1     -12.149  14.287  66.910  1.00  0.00    -0.440 C  
HETATM   24  C   UNL     1     -11.199  14.257  68.094  1.00  0.00    -0.295 C  
HETATM   25  C   UNL     1     -11.682  13.327  65.856  1.00  0.00    -0.403 A  
HETATM   26  C   UNL     1     -10.357  12.870  65.831  1.00  0.00    -0.285 A  
HETATM   27  O   UNL     1      -9.414  13.228  66.760  1.00  0.00    -0.243 OA 
HETATM   28  C   UNL     1      -9.941  11.965  64.851  1.00  0.00    -0.269 A  
HETATM   29  C   UNL     1     -10.838  11.528  63.877  1.00  0.00    -0.469 A  
HETATM   30  C   UNL     1     -12.146  11.996  63.894  1.00  0.00    -0.457 A  
HETATM   31  F   UNL     1     -13.012  11.576  62.961  1.00  0.00    -0.628 F  
HETATM   32  C   UNL     1     -12.575  12.890  64.869  1.00  0.00    -0.525 A  
ENDBRANCH  19  22
ENDBRANCH  18  19
ENDBRANCH  16  18
ENDBRANCH  15  16
ENDBRANCH   2  15
TORSDOF 6
ENDMDL
MODEL       59
REMARK 921   NORMALIZED FREE ENERGY PREDICTED BY IDOCK:   -6.93 KCAL/MOL
REMARK 922        TOTAL FREE ENERGY PREDICTED BY IDOCK:  -10.55 KCAL/MOL
REMARK 923 INTER-LIGAND FREE ENERGY PREDICTED BY IDOCK:   -8.54 KCAL/MOL
REMARK 924 INTRA-LIGAND FREE ENERGY PREDICTED BY IDOCK:   -2.01 KCAL/MOL
REMARK 927      BINDING AFFINITY PREDICTED BY RF-SCORE:    0.00 PKD
ROOT
HETATM    1  O   UNL     1     -10.115   5.629  70.971  1.00  0.00    -0.189 OA 
HETATM    2  C   UNL     1     -11.302   6.327  70.568  1.00  0.00    -0.361 C  
HETATM    3  H   UNL     1      -9.860   5.015  70.293  1.00  0.00     0.000 HD 
ENDROOT
BRANCH   2   4
HETATM    4  C   UNL     1     -11.065   7.014  69.204  1.00  0.00    -0.101 C  
HETATM    5  C   UNL     1      -8.553   9.868  65.977  1.00  0.00    -0.136 A  
HETATM    6  C   UNL     1      -8.362  10.433  67.231  1.00  0.00    -0.122 A  
HETATM    7  C   UNL     1     -10.641   6.026  68.113  1.00  0.00    -0.328 C  
HETATM    8  C   UNL     1     -10.563   6.761  66.787  1.00  0.00    -0.311 C  
HETATM    9  F   UNL     1      -8.039  10.471  64.895  1.00  0.00    -0.156 F  
HETATM   10  C   UNL     1      -8.897   9.800  68.356  1.00  0.00    -0.120 A  
HETATM   11  O   UNL     1     -10.085   8.054  69.375  1.00  0.00    -0.187 OA 
HETATM   12  C   UNL     1      -9.797   8.040  66.951  1.00  0.00    -0.318 A  
HETATM   13  C   UNL     1      -9.620   8.615  68.216  1.00  0.00    -0.147 A  
HETATM   14  C   UNL     1      -9.266   8.684  65.824  1.00  0.00    -0.245 A  
ENDBRANCH   2   4
BRANCH   2  15
HETATM   15  C   UNL     1     -11.714   7.324  71.670  1.00  0.00    -0.284 C  
BRANCH  15  16
HETATM   16  N   UNL     1     -12.544   8.422  71.143  1.00  0.00    -0.478 NA 
HETATM   17  H   UNL     1     -13.526   8.324  71.401  1.00  0.00     0.000 HD 
BRANCH  16  18
HETATM   18  C   UNL     1     -11.977   9.711  71.580  1.00  0.00    -0.406 C  
BRANCH  18  19
HETATM   19  C   UNL     1     -12.758  10.899  70.983  1.00  0.00    -0.407 C  
HETATM   20  H   UNL     1     -13.767  12.428  71.692  1.00  0.00     0.000 HD 
HETATM   21  O   UNL     1     -13.286  11.696  72.059  1.00  0.00    -0.481 OA 
BRANCH  19  22
HETATM   22  C   UNL     1     -11.881  11.791  70.073  1.00  0.00    -0.342 C  
HETATM   23  C   UNL     1     -11.186  14.090  69.454  1.00  0.00    -0.283 C  
HETATM   24  C   UNL     1     -12.154  13.278  70.297  1.00  0.00    -0.405 C  
HETATM   25  C   UNL     1     -11.163  13.560  68.051  1.00  0.00    -0.300 A  
HETATM   26  C   UNL     1     -11.615  12.266  67.759  1.00  0.00    -0.351 A  
HETATM   27  O   UNL     1     -12.131  11.414  68.701  1.00  0.00    -0.518 OA 
HETATM   28  C   UNL     1     -11.599  11.792  66.445  1.00  0.00    -0.237 A  
HETATM   29  C   UNL     1     -11.112  12.598  65.417  1.00  0.00    -0.327 A  
HETATM   30  C   UNL     1     -10.649  13.874  65.711  1.00  0.00    -0.297 A  
HETATM   31  F   UNL     1     -10.183  14.653  64.725  1.00  0.00    -0.416 F  
HETATM   32  C   UNL     1     -10.667  14.361  67.014  1.00  0.00    -0.285 A  
ENDBRANCH  19  22
ENDBRANCH  18  19
ENDBRANCH  16  18
ENDBRANCH  15  16
ENDBRANCH   2  15
TORSDOF 6
ENDMDL
MODEL       60
REMARK 921   NORMALIZED FREE ENERGY PREDICTED BY IDOCK:   -6.92 KCAL/MOL
REMARK 922        TOTAL FREE ENERGY PREDICTED BY IDOCK:  -10.54 KCAL/MOL
REMARK 923 INTER-LIGAND FREE ENERGY PREDICTED BY IDOCK:   -8.69 KCAL/MOL
REMARK 924 INTRA-LIGAND FREE ENERGY PREDICTED BY IDOCK:   -1.85 KCAL/MOL
REMARK 927      BINDING AFFINITY PREDICTED BY RF-SCORE:    0.00 PKD
ROOT
HETATM    1  O   UNL     1      -8.110   5.484  71.899  1.00  0.00    -0.112 OA 
HETATM    2  C   UNL     1      -9.235   6.155  71.313  1.00  0.00    -0.150 C  
HETATM    3  H   UNL     1      -7.523   5.188  71.214  1.00  0.00     0.000 HD 
ENDROOT
BRANCH   2   4
HETATM    4  C   UNL     1      -8.742   7.311  70.413  1.00  0.00    -0.146 C  
HETATM    5  C   UNL     1      -9.277  10.870  66.962  1.00  0.00    -0.152 A  
HETATM    6  C   UNL     1     -10.116   9.830  66.586  1.00  0.00    -0.303 A  
HETATM    7  C   UNL     1      -8.497   8.604  71.197  1.00  0.00    -0.211 C  
HETATM    8  C   UNL     1      -7.891   9.637  70.264  1.00  0.00    -0.193 C  
HETATM    9  F   UNL     1      -9.166  11.948  66.173  1.00  0.00    -0.213 F  
HETATM   10  C   UNL     1     -10.232   8.709  67.413  1.00  0.00    -0.329 A  
HETATM   11  O   UNL     1      -9.699   7.514  69.358  1.00  0.00    -0.162 OA 
HETATM   12  C   UNL     1      -8.671   9.697  68.984  1.00  0.00    -0.142 A  
HETATM   13  C   UNL     1      -9.504   8.638  68.601  1.00  0.00    -0.142 A  
HETATM   14  C   UNL     1      -8.552  10.815  68.147  1.00  0.00    -0.129 A  
ENDBRANCH   2   4
BRANCH   2  15
HETATM   15  C   UNL     1     -10.188   6.636  72.427  1.00  0.00    -0.180 C  
BRANCH  15  16
HETATM   16  N   UNL     1     -11.532   6.950  71.910  1.00  0.00    -0.261 NA 
HETATM   17  H   UNL     1     -12.180   6.171  72.019  1.00  0.00     0.000 HD 
BRANCH  16  18
HETATM   18  C   UNL     1     -12.022   8.182  72.553  1.00  0.00    -0.350 C  
BRANCH  18  19
HETATM   19  C   UNL     1     -13.343   8.661  71.917  1.00  0.00    -0.382 C  
HETATM   20  H   UNL     1     -15.160   9.051  72.553  1.00  0.00     0.000 HD 
HETATM   21  O   UNL     1     -14.347   8.756  72.945  1.00  0.00    -0.520 OA 
BRANCH  19  22
HETATM   22  C   UNL     1     -13.202  10.031  71.214  1.00  0.00    -0.383 C  
HETATM   23  C   UNL     1     -11.781  11.536  69.848  1.00  0.00    -0.420 C  
HETATM   24  C   UNL     1     -11.811  10.224  70.611  1.00  0.00    -0.439 C  
HETATM   25  C   UNL     1     -12.363  12.631  70.692  1.00  0.00    -0.375 A  
HETATM   26  C   UNL     1     -13.191  12.339  71.784  1.00  0.00    -0.326 A  
HETATM   27  O   UNL     1     -13.501  11.063  72.179  1.00  0.00    -0.377 OA 
HETATM   28  C   UNL     1     -13.714  13.369  72.569  1.00  0.00    -0.636 A  
HETATM   29  C   UNL     1     -13.433  14.698  72.256  1.00  0.00    -0.507 A  
HETATM   30  C   UNL     1     -12.626  14.986  71.162  1.00  0.00    -0.348 A  
HETATM   31  F   UNL     1     -12.352  16.262  70.859  1.00  0.00    -0.371 F  
HETATM   32  C   UNL     1     -12.093  13.969  70.378  1.00  0.00    -0.426 A  
ENDBRANCH  19  22
ENDBRANCH  18  19
ENDBRANCH  16  18
ENDBRANCH  15  16
ENDBRANCH   2  15
TORSDOF 6
ENDMDL
MODEL       61
REMARK 921   NORMALIZED FREE ENERGY PREDICTED BY IDOCK:   -6.91 KCAL/MOL
REMARK 922        TOTAL FREE ENERGY PREDICTED BY IDOCK:  -10.52 KCAL/MOL
REMARK 923 INTER-LIGAND FREE ENERGY PREDICTED BY IDOCK:   -9.20 KCAL/MOL
REMARK 924 INTRA-LIGAND FREE ENERGY PREDICTED BY IDOCK:   -1.32 KCAL/MOL
REMARK 927      BINDING AFFINITY PREDICTED BY RF-SCORE:    0.00 PKD
ROOT
HETATM    1  O   UNL     1     -12.992  14.114  65.055  1.00  0.00    -0.721 OA 
HETATM    2  C   UNL     1     -11.622  14.368  64.713  1.00  0.00    -0.408 C  
HETATM    3  H   UNL     1     -13.319  13.385  64.542  1.00  0.00     0.000 HD 
ENDROOT
BRANCH   2   4
HETATM    4  C   UNL     1     -10.788  13.081  64.909  1.00  0.00    -0.323 C  
HETATM    5  C   UNL     1      -9.880   8.546  66.775  1.00  0.00    -0.257 A  
HETATM    6  C   UNL     1     -10.565   9.246  67.759  1.00  0.00    -0.307 A  
HETATM    7  C   UNL     1     -10.794  12.181  63.670  1.00  0.00    -0.523 C  
HETATM    8  C   UNL     1      -9.848  11.017  63.903  1.00  0.00    -0.368 C  
HETATM    9  F   UNL     1      -9.445   7.304  67.027  1.00  0.00    -0.144 F  
HETATM   10  C   UNL     1     -11.020  10.539  67.490  1.00  0.00    -0.365 A  
HETATM   11  O   UNL     1     -11.284  12.381  66.065  1.00  0.00    -0.304 OA 
HETATM   12  C   UNL     1     -10.103  10.406  65.249  1.00  0.00    -0.370 A  
HETATM   13  C   UNL     1     -10.781  11.121  66.246  1.00  0.00    -0.240 A  
HETATM   14  C   UNL     1      -9.641   9.112  65.527  1.00  0.00    -0.239 A  
ENDBRANCH   2   4
BRANCH   2  15
HETATM   15  C   UNL     1     -11.091  15.551  65.547  1.00  0.00    -0.262 C  
BRANCH  15  16
HETATM   16  N   UNL     1     -10.480  15.109  66.813  1.00  0.00    -0.277 NA 
HETATM   17  H   UNL     1      -9.496  15.369  66.880  1.00  0.00     0.000 HD 
BRANCH  16  18
HETATM   18  C   UNL     1     -11.275  15.626  67.941  1.00  0.00    -0.328 C  
BRANCH  18  19
HETATM   19  C   UNL     1     -10.371  16.238  69.031  1.00  0.00    -0.264 C  
HETATM   20  H   UNL     1      -8.899  15.605  70.167  1.00  0.00     0.000 HD 
HETATM   21  O   UNL     1      -9.456  15.228  69.496  1.00  0.00    -0.239 OA 
BRANCH  19  22
HETATM   22  C   UNL     1      -9.569  17.459  68.524  1.00  0.00    -0.298 C  
HETATM   23  C   UNL     1      -9.635  19.701  67.466  1.00  0.00    -0.446 C  
HETATM   24  C   UNL     1     -10.468  18.488  67.839  1.00  0.00    -0.419 C  
HETATM   25  C   UNL     1      -8.377  19.264  66.776  1.00  0.00    -0.311 A  
HETATM   26  C   UNL     1      -7.900  17.952  66.906  1.00  0.00    -0.221 A  
HETATM   27  O   UNL     1      -8.544  16.980  67.627  1.00  0.00    -0.206 OA 
HETATM   28  C   UNL     1      -6.734  17.556  66.246  1.00  0.00    -0.309 A  
HETATM   29  C   UNL     1      -6.024  18.473  65.471  1.00  0.00    -0.272 A  
HETATM   30  C   UNL     1      -6.489  19.777  65.358  1.00  0.00    -0.268 A  
HETATM   31  F   UNL     1      -5.811  20.660  64.613  1.00  0.00    -0.226 F  
HETATM   32  C   UNL     1      -7.652  20.181  66.003  1.00  0.00    -0.283 A  
ENDBRANCH  19  22
ENDBRANCH  18  19
ENDBRANCH  16  18
ENDBRANCH  15  16
ENDBRANCH   2  15
TORSDOF 6
ENDMDL
MODEL       62
REMARK 921   NORMALIZED FREE ENERGY PREDICTED BY IDOCK:   -6.89 KCAL/MOL
REMARK 922        TOTAL FREE ENERGY PREDICTED BY IDOCK:  -10.50 KCAL/MOL
REMARK 923 INTER-LIGAND FREE ENERGY PREDICTED BY IDOCK:   -8.92 KCAL/MOL
REMARK 924 INTRA-LIGAND FREE ENERGY PREDICTED BY IDOCK:   -1.58 KCAL/MOL
REMARK 927      BINDING AFFINITY PREDICTED BY RF-SCORE:    0.00 PKD
ROOT
HETATM    1  O   UNL     1      -5.483  12.834  68.442  1.00  0.00    -0.054 OA 
HETATM    2  C   UNL     1      -6.537  13.422  67.666  1.00  0.00    -0.167 C  
HETATM    3  H   UNL     1      -4.655  13.240  68.215  1.00  0.00     0.000 HD 
ENDROOT
BRANCH   2   4
HETATM    4  C   UNL     1      -6.548  14.953  67.876  1.00  0.00    -0.158 C  
HETATM    5  C   UNL     1      -8.509  19.527  67.549  1.00  0.00    -0.302 A  
HETATM    6  C   UNL     1      -8.908  18.846  66.406  1.00  0.00    -0.310 A  
HETATM    7  C   UNL     1      -6.779  15.344  69.339  1.00  0.00    -0.166 C  
HETATM    8  C   UNL     1      -6.641  16.851  69.473  1.00  0.00    -0.203 C  
HETATM    9  F   UNL     1      -8.841  20.817  67.700  1.00  0.00    -0.368 F  
HETATM   10  C   UNL     1      -8.563  17.501  66.255  1.00  0.00    -0.234 A  
HETATM   11  O   UNL     1      -7.549  15.529  67.018  1.00  0.00    -0.215 OA 
HETATM   12  C   UNL     1      -7.432  17.538  68.400  1.00  0.00    -0.247 A  
HETATM   13  C   UNL     1      -7.820  16.853  67.241  1.00  0.00    -0.178 A  
HETATM   14  C   UNL     1      -7.774  18.890  68.543  1.00  0.00    -0.365 A  
ENDBRANCH   2   4
BRANCH   2  15
HETATM   15  C   UNL     1      -7.881  12.763  68.036  1.00  0.00    -0.150 C  
BRANCH  15  16
HETATM   16  N   UNL     1      -8.794  12.676  66.882  1.00  0.00    -0.247 NA 
HETATM   17  H   UNL     1      -8.417  12.093  66.134  1.00  0.00     0.000 HD 
BRANCH  16  18
HETATM   18  C   UNL     1     -10.115  12.212  67.342  1.00  0.00    -0.199 C  
BRANCH  18  19
HETATM   19  C   UNL     1     -11.238  13.157  66.870  1.00  0.00    -0.296 C  
HETATM   20  H   UNL     1     -13.014  12.948  66.057  1.00  0.00     0.000 HD 
HETATM   21  O   UNL     1     -12.322  12.366  66.348  1.00  0.00    -0.539 OA 
BRANCH  19  22
HETATM   22  C   UNL     1     -11.770  14.064  68.004  1.00  0.00    -0.359 C  
HETATM   23  C   UNL     1     -11.373  16.040  69.450  1.00  0.00    -0.355 C  
HETATM   24  C   UNL     1     -10.746  15.122  68.416  1.00  0.00    -0.248 C  
HETATM   25  C   UNL     1     -12.042  15.225  70.516  1.00  0.00    -0.395 A  
HETATM   26  C   UNL     1     -12.392  13.886  70.291  1.00  0.00    -0.345 A  
HETATM   27  O   UNL     1     -12.129  13.222  69.120  1.00  0.00    -0.306 OA 
HETATM   28  C   UNL     1     -13.003  13.136  71.298  1.00  0.00    -0.339 A  
HETATM   29  C   UNL     1     -13.288  13.723  72.531  1.00  0.00    -0.656 A  
HETATM   30  C   UNL     1     -12.956  15.054  72.747  1.00  0.00    -0.433 A  
HETATM   31  F   UNL     1     -13.227  15.621  73.930  1.00  0.00    -0.560 F  
HETATM   32  C   UNL     1     -12.341  15.809  71.754  1.00  0.00    -0.523 A  
ENDBRANCH  19  22
ENDBRANCH  18  19
ENDBRANCH  16  18
ENDBRANCH  15  16
ENDBRANCH   2  15
TORSDOF 6
ENDMDL
MODEL       63
REMARK 921   NORMALIZED FREE ENERGY PREDICTED BY IDOCK:   -6.85 KCAL/MOL
REMARK 922        TOTAL FREE ENERGY PREDICTED BY IDOCK:  -10.44 KCAL/MOL
REMARK 923 INTER-LIGAND FREE ENERGY PREDICTED BY IDOCK:   -9.20 KCAL/MOL
REMARK 924 INTRA-LIGAND FREE ENERGY PREDICTED BY IDOCK:   -1.25 KCAL/MOL
REMARK 927      BINDING AFFINITY PREDICTED BY RF-SCORE:    0.00 PKD
ROOT
HETATM    1  O   UNL     1     -11.389  13.468  63.937  1.00  0.00    -0.571 OA 
HETATM    2  C   UNL     1     -11.436  12.887  65.248  1.00  0.00    -0.313 C  
HETATM    3  H   UNL     1     -11.882  14.279  63.930  1.00  0.00     0.000 HD 
ENDROOT
BRANCH   2   4
HETATM    4  C   UNL     1     -10.919  13.906  66.289  1.00  0.00    -0.298 C  
HETATM    5  C   UNL     1     -10.263  18.477  68.172  1.00  0.00    -0.378 A  
HETATM    6  C   UNL     1     -10.219  18.612  66.791  1.00  0.00    -0.431 A  
HETATM    7  C   UNL     1     -11.717  13.868  67.596  1.00  0.00    -0.403 C  
HETATM    8  C   UNL     1     -11.060  14.798  68.600  1.00  0.00    -0.274 C  
HETATM    9  F   UNL     1     -10.049  19.548  68.948  1.00  0.00    -0.458 F  
HETATM   10  C   UNL     1     -10.447  17.493  65.985  1.00  0.00    -0.274 A  
HETATM   11  O   UNL     1     -10.943  15.219  65.701  1.00  0.00    -0.334 OA 
HETATM   12  C   UNL     1     -10.768  16.124  67.961  1.00  0.00    -0.321 A  
HETATM   13  C   UNL     1     -10.709  16.253  66.568  1.00  0.00    -0.187 A  
HETATM   14  C   UNL     1     -10.531  17.248  68.765  1.00  0.00    -0.340 A  
ENDBRANCH   2   4
BRANCH   2  15
HETATM   15  C   UNL     1     -10.633  11.569  65.260  1.00  0.00    -0.283 C  
BRANCH  15  16
HETATM   16  N   UNL     1      -9.238  11.772  65.690  1.00  0.00    -0.392 NA 
HETATM   17  H   UNL     1      -9.126  12.615  66.253  1.00  0.00     0.000 HD 
BRANCH  16  18
HETATM   18  C   UNL     1      -8.766  10.564  66.390  1.00  0.00    -0.145 C  
BRANCH  18  19
HETATM   19  C   UNL     1      -7.956  10.926  67.651  1.00  0.00    -0.114 C  
HETATM   20  H   UNL     1      -7.248  12.572  68.454  1.00  0.00     0.000 HD 
HETATM   21  O   UNL     1      -7.747  12.350  67.677  1.00  0.00    -0.128 OA 
BRANCH  19  22
HETATM   22  C   UNL     1      -8.661  10.490  68.957  1.00  0.00    -0.157 C  
HETATM   23  C   UNL     1      -9.319   8.617  70.444  1.00  0.00    -0.191 C  
HETATM   24  C   UNL     1      -8.715   8.968  69.096  1.00  0.00    -0.135 C  
HETATM   25  C   UNL     1     -10.572   9.411  70.664  1.00  0.00    -0.354 A  
HETATM   26  C   UNL     1     -10.825  10.580  69.935  1.00  0.00    -0.276 A  
HETATM   27  O   UNL     1      -9.986  11.064  68.964  1.00  0.00    -0.205 OA 
HETATM   28  C   UNL     1     -12.004  11.302  70.141  1.00  0.00    -0.452 A  
HETATM   29  C   UNL     1     -12.928  10.872  71.094  1.00  0.00    -0.449 A  
HETATM   30  C   UNL     1     -12.667   9.722  71.828  1.00  0.00    -0.426 A  
HETATM   31  F   UNL     1     -13.553   9.305  72.743  1.00  0.00    -0.476 F  
HETATM   32  C   UNL     1     -11.501   8.991  71.626  1.00  0.00    -0.431 A  
ENDBRANCH  19  22
ENDBRANCH  18  19
ENDBRANCH  16  18
ENDBRANCH  15  16
ENDBRANCH   2  15
TORSDOF 6
ENDMDL
MODEL       64
REMARK 921   NORMALIZED FREE ENERGY PREDICTED BY IDOCK:   -6.85 KCAL/MOL
REMARK 922        TOTAL FREE ENERGY PREDICTED BY IDOCK:  -10.44 KCAL/MOL
REMARK 923 INTER-LIGAND FREE ENERGY PREDICTED BY IDOCK:   -9.01 KCAL/MOL
REMARK 924 INTRA-LIGAND FREE ENERGY PREDICTED BY IDOCK:   -1.43 KCAL/MOL
REMARK 927      BINDING AFFINITY PREDICTED BY RF-SCORE:    0.00 PKD
ROOT
HETATM    1  O   UNL     1      -9.625   9.573  62.914  1.00  0.00    -0.531 OA 
HETATM    2  C   UNL     1      -9.318  10.808  63.576  1.00  0.00    -0.279 C  
HETATM    3  H   UNL     1      -8.885   8.982  62.982  1.00  0.00     0.000 HD 
ENDROOT
BRANCH   2   4
HETATM    4  C   UNL     1      -8.915  10.528  65.042  1.00  0.00    -0.201 C  
HETATM    5  C   UNL     1      -9.036   7.999  69.338  1.00  0.00    -0.148 A  
HETATM    6  C   UNL     1     -10.316   7.926  68.804  1.00  0.00    -0.220 A  
HETATM    7  C   UNL     1      -7.493   9.972  65.166  1.00  0.00    -0.139 C  
HETATM    8  C   UNL     1      -7.137   9.856  66.637  1.00  0.00    -0.087 C  
HETATM    9  F   UNL     1      -8.788   7.455  70.538  1.00  0.00    -0.142 F  
HETATM   10  C   UNL     1     -10.569   8.491  67.552  1.00  0.00    -0.284 A  
HETATM   11  O   UNL     1      -9.879   9.629  65.622  1.00  0.00    -0.290 OA 
HETATM   12  C   UNL     1      -8.250   9.184  67.385  1.00  0.00    -0.107 A  
HETATM   13  C   UNL     1      -9.544   9.126  66.851  1.00  0.00    -0.178 A  
HETATM   14  C   UNL     1      -8.004   8.623  68.646  1.00  0.00    -0.115 A  
ENDBRANCH   2   4
BRANCH   2  15
HETATM   15  C   UNL     1     -10.520  11.768  63.465  1.00  0.00    -0.449 C  
BRANCH  15  16
HETATM   16  N   UNL     1     -10.136  13.170  63.710  1.00  0.00    -0.710 NA 
HETATM   17  H   UNL     1     -10.123  13.723  62.854  1.00  0.00     0.000 HD 
BRANCH  16  18
HETATM   18  C   UNL     1     -11.027  13.744  64.734  1.00  0.00    -0.392 C  
BRANCH  18  19
HETATM   19  C   UNL     1     -10.224  14.439  65.852  1.00  0.00    -0.325 C  
HETATM   20  H   UNL     1     -10.048  16.271  66.538  1.00  0.00     0.000 HD 
HETATM   21  O   UNL     1     -10.542  15.843  65.849  1.00  0.00    -0.323 OA 
BRANCH  19  22
HETATM   22  C   UNL     1     -10.522  13.853  67.252  1.00  0.00    -0.271 C  
HETATM   23  C   UNL     1     -11.480  11.979  68.565  1.00  0.00    -0.345 C  
HETATM   24  C   UNL     1     -11.320  12.551  67.168  1.00  0.00    -0.381 C  
HETATM   25  C   UNL     1     -11.941  13.052  69.506  1.00  0.00    -0.350 A  
HETATM   26  C   UNL     1     -11.780  14.408  69.191  1.00  0.00    -0.317 A  
HETATM   27  O   UNL     1     -11.232  14.852  68.015  1.00  0.00    -0.282 OA 
HETATM   28  C   UNL     1     -12.227  15.396  70.071  1.00  0.00    -0.392 A  
HETATM   29  C   UNL     1     -12.818  15.038  71.283  1.00  0.00    -0.438 A  
HETATM   30  C   UNL     1     -12.961  13.693  71.601  1.00  0.00    -0.362 A  
HETATM   31  F   UNL     1     -13.530  13.344  72.762  1.00  0.00    -0.601 F  
HETATM   32  C   UNL     1     -12.527  12.700  70.729  1.00  0.00    -0.357 A  
ENDBRANCH  19  22
ENDBRANCH  18  19
ENDBRANCH  16  18
ENDBRANCH  15  16
ENDBRANCH   2  15
TORSDOF 6
ENDMDL
MODEL       65
REMARK 921   NORMALIZED FREE ENERGY PREDICTED BY IDOCK:   -6.84 KCAL/MOL
REMARK 922        TOTAL FREE ENERGY PREDICTED BY IDOCK:  -10.42 KCAL/MOL
REMARK 923 INTER-LIGAND FREE ENERGY PREDICTED BY IDOCK:   -9.18 KCAL/MOL
REMARK 924 INTRA-LIGAND FREE ENERGY PREDICTED BY IDOCK:   -1.24 KCAL/MOL
REMARK 927      BINDING AFFINITY PREDICTED BY RF-SCORE:    0.00 PKD
ROOT
HETATM    1  O   UNL     1     -10.864  14.191  70.169  1.00  0.00    -0.454 OA 
HETATM    2  C   UNL     1     -10.616  14.152  68.757  1.00  0.00    -0.253 C  
HETATM    3  H   UNL     1     -10.040  14.152  70.639  1.00  0.00     0.000 HD 
ENDROOT
BRANCH   2   4
HETATM    4  C   UNL     1      -9.654  15.298  68.365  1.00  0.00    -0.206 C  
HETATM    5  C   UNL     1      -8.414  20.063  67.580  1.00  0.00    -0.339 A  
HETATM    6  C   UNL     1      -9.745  19.938  67.207  1.00  0.00    -0.517 A  
HETATM    7  C   UNL     1      -8.594  15.568  69.437  1.00  0.00    -0.259 C  
HETATM    8  C   UNL     1      -7.619  16.607  68.912  1.00  0.00    -0.240 C  
HETATM    9  F   UNL     1      -7.788  21.237  67.413  1.00  0.00    -0.379 F  
HETATM   10  C   UNL     1     -10.395  18.714  67.386  1.00  0.00    -0.447 A  
HETATM   11  O   UNL     1     -10.430  16.478  68.089  1.00  0.00    -0.285 OA 
HETATM   12  C   UNL     1      -8.368  17.763  68.318  1.00  0.00    -0.276 A  
HETATM   13  C   UNL     1      -9.707  17.629  67.929  1.00  0.00    -0.295 A  
HETATM   14  C   UNL     1      -7.718  18.991  68.128  1.00  0.00    -0.326 A  
ENDBRANCH   2   4
BRANCH   2  15
HETATM   15  C   UNL     1     -11.955  14.216  67.994  1.00  0.00    -0.337 C  
BRANCH  15  16
HETATM   16  N   UNL     1     -11.761  14.428  66.549  1.00  0.00    -0.383 NA 
HETATM   17  H   UNL     1     -10.911  13.983  66.203  1.00  0.00     0.000 HD 
BRANCH  16  18
HETATM   18  C   UNL     1     -12.964  13.975  65.827  1.00  0.00    -0.254 C  
BRANCH  18  19
HETATM   19  C   UNL     1     -12.597  13.043  64.654  1.00  0.00    -0.362 C  
HETATM   20  H   UNL     1     -12.177  13.264  62.748  1.00  0.00     0.000 HD 
HETATM   21  O   UNL     1     -12.403  13.839  63.470  1.00  0.00    -0.706 OA 
BRANCH  19  22
HETATM   22  C   UNL     1     -11.319  12.216  64.928  1.00  0.00    -0.326 C  
HETATM   23  C   UNL     1      -9.614  10.657  64.025  1.00  0.00    -0.351 C  
HETATM   24  C   UNL     1     -10.930  11.353  63.727  1.00  0.00    -0.448 C  
HETATM   25  C   UNL     1      -9.667  10.026  65.385  1.00  0.00    -0.368 A  
HETATM   26  C   UNL     1     -10.608  10.440  66.338  1.00  0.00    -0.127 A  
HETATM   27  O   UNL     1     -11.551  11.407  66.101  1.00  0.00    -0.286 OA 
HETATM   28  C   UNL     1     -10.654   9.834  67.596  1.00  0.00    -0.333 A  
HETATM   29  C   UNL     1      -9.747   8.825  67.919  1.00  0.00    -0.188 A  
HETATM   30  C   UNL     1      -8.804   8.428  66.979  1.00  0.00    -0.134 A  
HETATM   31  F   UNL     1      -7.932   7.458  67.285  1.00  0.00    -0.106 F  
HETATM   32  C   UNL     1      -8.753   9.018  65.721  1.00  0.00    -0.197 A  
ENDBRANCH  19  22
ENDBRANCH  18  19
ENDBRANCH  16  18
ENDBRANCH  15  16
ENDBRANCH   2  15
TORSDOF 6
ENDMDL
MODEL       66
REMARK 921   NORMALIZED FREE ENERGY PREDICTED BY IDOCK:   -6.84 KCAL/MOL
REMARK 922        TOTAL FREE ENERGY PREDICTED BY IDOCK:  -10.42 KCAL/MOL
REMARK 923 INTER-LIGAND FREE ENERGY PREDICTED BY IDOCK:   -7.27 KCAL/MOL
REMARK 924 INTRA-LIGAND FREE ENERGY PREDICTED BY IDOCK:   -3.15 KCAL/MOL
REMARK 927      BINDING AFFINITY PREDICTED BY RF-SCORE:    0.00 PKD
ROOT
HETATM    1  O   UNL     1     -13.620   9.057  73.292  1.00  0.00    -0.992 OA 
HETATM    2  C   UNL     1     -13.333   9.146  71.889  1.00  0.00    -0.427 C  
HETATM    3  H   UNL     1     -13.730   8.147  73.538  1.00  0.00     0.000 HD 
ENDROOT
BRANCH   2   4
HETATM    4  C   UNL     1     -12.092   8.285  71.555  1.00  0.00    -0.299 C  
HETATM    5  C   UNL     1      -8.155   5.438  72.675  1.00  0.00    -0.106 A  
HETATM    6  C   UNL     1      -8.258   6.382  73.689  1.00  0.00    -0.113 A  
HETATM    7  C   UNL     1     -12.464   6.921  70.967  1.00  0.00    -0.364 C  
HETATM    8  C   UNL     1     -11.193   6.204  70.546  1.00  0.00    -0.403 C  
HETATM    9  F   UNL     1      -7.134   4.570  72.681  1.00  0.00    -0.060 F  
HETATM   10  C   UNL     1      -9.326   7.283  73.680  1.00  0.00    -0.278 A  
HETATM   11  O   UNL     1     -11.297   8.142  72.745  1.00  0.00    -0.397 OA 
HETATM   12  C   UNL     1     -10.175   6.273  71.646  1.00  0.00    -0.225 A  
HETATM   13  C   UNL     1     -10.273   7.236  72.658  1.00  0.00    -0.212 A  
HETATM   14  C   UNL     1      -9.097   5.376  71.654  1.00  0.00    -0.154 A  
ENDBRANCH   2   4
BRANCH   2  15
HETATM   15  C   UNL     1     -13.154  10.625  71.490  1.00  0.00    -0.424 C  
BRANCH  15  16
HETATM   16  N   UNL     1     -11.748  10.954  71.198  1.00  0.00    -0.222 NA 
HETATM   17  H   UNL     1     -11.147  10.130  71.205  1.00  0.00     0.000 HD 
BRANCH  16  18
HETATM   18  C   UNL     1     -11.677  11.687  69.921  1.00  0.00    -0.337 C  
BRANCH  18  19
HETATM   19  C   UNL     1     -11.737  10.725  68.717  1.00  0.00    -0.245 C  
HETATM   20  H   UNL     1     -12.095  10.888  66.792  1.00  0.00     0.000 HD 
HETATM   21  O   UNL     1     -12.058  11.481  67.534  1.00  0.00    -0.614 OA 
BRANCH  19  22
HETATM   22  C   UNL     1     -10.407   9.968  68.493  1.00  0.00    -0.193 C  
HETATM   23  C   UNL     1      -9.291   7.933  67.618  1.00  0.00    -0.161 C  
HETATM   24  C   UNL     1     -10.636   8.572  67.913  1.00  0.00    -0.219 C  
HETATM   25  C   UNL     1      -8.383   8.086  68.802  1.00  0.00    -0.127 A  
HETATM   26  C   UNL     1      -8.630   9.058  69.782  1.00  0.00    -0.138 A  
HETATM   27  O   UNL     1      -9.710   9.902  69.756  1.00  0.00    -0.214 OA 
HETATM   28  C   UNL     1      -7.783   9.179  70.886  1.00  0.00    -0.152 A  
HETATM   29  C   UNL     1      -6.671   8.347  71.009  1.00  0.00    -0.049 A  
HETATM   30  C   UNL     1      -6.418   7.397  70.028  1.00  0.00    -0.038 A  
HETATM   31  F   UNL     1      -5.351   6.594  70.143  1.00  0.00    -0.013 F  
HETATM   32  C   UNL     1      -7.258   7.260  68.928  1.00  0.00    -0.090 A  
ENDBRANCH  19  22
ENDBRANCH  18  19
ENDBRANCH  16  18
ENDBRANCH  15  16
ENDBRANCH   2  15
TORSDOF 6
ENDMDL
MODEL       67
REMARK 921   NORMALIZED FREE ENERGY PREDICTED BY IDOCK:   -6.82 KCAL/MOL
REMARK 922        TOTAL FREE ENERGY PREDICTED BY IDOCK:  -10.41 KCAL/MOL
REMARK 923 INTER-LIGAND FREE ENERGY PREDICTED BY IDOCK:   -9.35 KCAL/MOL
REMARK 924 INTRA-LIGAND FREE ENERGY PREDICTED BY IDOCK:   -1.05 KCAL/MOL
REMARK 927      BINDING AFFINITY PREDICTED BY RF-SCORE:    0.00 PKD
ROOT
HETATM    1  O   UNL     1     -12.505  14.310  66.000  1.00  0.00    -0.442 OA 
HETATM    2  C   UNL     1     -11.433  14.123  66.935  1.00  0.00    -0.357 C  
HETATM    3  H   UNL     1     -13.329  14.069  66.406  1.00  0.00     0.000 HD 
ENDROOT
BRANCH   2   4
HETATM    4  C   UNL     1     -11.718  14.931  68.223  1.00  0.00    -0.315 C  
HETATM    5  C   UNL     1     -12.698  15.452  73.084  1.00  0.00    -0.479 A  
HETATM    6  C   UNL     1     -13.342  14.291  72.676  1.00  0.00    -0.619 A  
HETATM    7  C   UNL     1     -10.471  15.639  68.761  1.00  0.00    -0.225 C  
HETATM    8  C   UNL     1     -10.870  16.509  69.939  1.00  0.00    -0.285 C  
HETATM    9  F   UNL     1     -12.842  15.879  74.347  1.00  0.00    -0.586 F  
HETATM   10  C   UNL     1     -13.186  13.847  71.361  1.00  0.00    -0.392 A  
HETATM   11  O   UNL     1     -12.281  14.045  69.207  1.00  0.00    -0.344 OA 
HETATM   12  C   UNL     1     -11.733  15.730  70.887  1.00  0.00    -0.441 A  
HETATM   13  C   UNL     1     -12.395  14.568  70.468  1.00  0.00    -0.337 A  
HETATM   14  C   UNL     1     -11.900  16.176  72.205  1.00  0.00    -0.631 A  
ENDBRANCH   2   4
BRANCH   2  15
HETATM   15  C   UNL     1     -10.095  14.515  66.274  1.00  0.00    -0.295 C  
BRANCH  15  16
HETATM   16  N   UNL     1      -9.190  13.361  66.127  1.00  0.00    -0.476 NA 
HETATM   17  H   UNL     1      -8.283  13.627  65.745  1.00  0.00     0.000 HD 
BRANCH  16  18
HETATM   18  C   UNL     1      -9.072  12.669  67.422  1.00  0.00    -0.191 C  
BRANCH  18  19
HETATM   19  C   UNL     1      -8.747  11.173  67.233  1.00  0.00    -0.139 C  
HETATM   20  H   UNL     1      -7.118  10.088  67.075  1.00  0.00     0.000 HD 
HETATM   21  O   UNL     1      -7.317  11.009  67.191  1.00  0.00    -0.103 OA 
BRANCH  19  22
HETATM   22  C   UNL     1      -9.328  10.290  68.362  1.00  0.00    -0.143 C  
HETATM   23  C   UNL     1     -11.105   9.990  70.067  1.00  0.00    -0.350 C  
HETATM   24  C   UNL     1     -10.522  10.954  69.049  1.00  0.00    -0.244 C  
HETATM   25  C   UNL     1     -10.008   9.416  70.914  1.00  0.00    -0.353 A  
HETATM   26  C   UNL     1      -8.673   9.446  70.485  1.00  0.00    -0.231 A  
HETATM   27  O   UNL     1      -8.269  10.014  69.305  1.00  0.00    -0.122 OA 
HETATM   28  C   UNL     1      -7.661   8.920  71.292  1.00  0.00    -0.132 A  
HETATM   29  C   UNL     1      -7.976   8.341  72.521  1.00  0.00    -0.192 A  
HETATM   30  C   UNL     1      -9.301   8.298  72.935  1.00  0.00    -0.254 A  
HETATM   31  F   UNL     1      -9.607   7.744  74.117  1.00  0.00    -0.294 F  
HETATM   32  C   UNL     1     -10.317   8.825  72.146  1.00  0.00    -0.378 A  
ENDBRANCH  19  22
ENDBRANCH  18  19
ENDBRANCH  16  18
ENDBRANCH  15  16
ENDBRANCH   2  15
TORSDOF 6
ENDMDL
MODEL       68
REMARK 921   NORMALIZED FREE ENERGY PREDICTED BY IDOCK:   -6.80 KCAL/MOL
REMARK 922        TOTAL FREE ENERGY PREDICTED BY IDOCK:  -10.37 KCAL/MOL
REMARK 923 INTER-LIGAND FREE ENERGY PREDICTED BY IDOCK:   -8.21 KCAL/MOL
REMARK 924 INTRA-LIGAND FREE ENERGY PREDICTED BY IDOCK:   -2.16 KCAL/MOL
REMARK 927      BINDING AFFINITY PREDICTED BY RF-SCORE:    0.00 PKD
ROOT
HETATM    1  O   UNL     1     -10.977  10.722  66.592  1.00  0.00    -0.209 OA 
HETATM    2  C   UNL     1      -9.729  10.192  66.126  1.00  0.00    -0.218 C  
HETATM    3  H   UNL     1     -11.044  10.600  67.532  1.00  0.00     0.000 HD 
ENDROOT
BRANCH   2   4
HETATM    4  C   UNL     1      -8.561  10.853  66.894  1.00  0.00    -0.136 C  
HETATM    5  C   UNL     1      -6.240  14.634  69.170  1.00  0.00    -0.105 A  
HETATM    6  C   UNL     1      -6.957  15.190  68.119  1.00  0.00    -0.132 A  
HETATM    7  C   UNL     1      -8.482  10.393  68.353  1.00  0.00    -0.124 C  
HETATM    8  C   UNL     1      -7.236  10.984  68.988  1.00  0.00    -0.111 C  
HETATM    9  F   UNL     1      -5.458  15.419  69.925  1.00  0.00    -0.100 F  
HETATM   10  C   UNL     1      -7.774  14.369  67.337  1.00  0.00    -0.207 A  
HETATM   11  O   UNL     1      -8.701  12.282  66.805  1.00  0.00    -0.199 OA 
HETATM   12  C   UNL     1      -7.145  12.449  68.679  1.00  0.00    -0.103 A  
HETATM   13  C   UNL     1      -7.859  13.003  67.608  1.00  0.00    -0.166 A  
HETATM   14  C   UNL     1      -6.322  13.276  69.456  1.00  0.00    -0.104 A  
ENDBRANCH   2   4
BRANCH   2  15
HETATM   15  C   UNL     1      -9.620  10.389  64.600  1.00  0.00    -0.300 C  
BRANCH  15  16
HETATM   16  N   UNL     1     -10.872  10.905  64.016  1.00  0.00    -0.437 NA 
HETATM   17  H   UNL     1     -11.666  10.795  64.646  1.00  0.00     0.000 HD 
BRANCH  16  18
HETATM   18  C   UNL     1     -10.673  12.306  63.604  1.00  0.00    -0.467 C  
BRANCH  18  19
HETATM   19  C   UNL     1     -11.973  13.123  63.744  1.00  0.00    -0.508 C  
HETATM   20  H   UNL     1     -13.876  12.718  64.013  1.00  0.00     0.000 HD 
HETATM   21  O   UNL     1     -13.075  12.214  63.926  1.00  0.00    -0.749 OA 
BRANCH  19  22
HETATM   22  C   UNL     1     -11.929  14.114  64.931  1.00  0.00    -0.417 C  
HETATM   23  C   UNL     1     -10.760  16.014  66.016  1.00  0.00    -0.271 C  
HETATM   24  C   UNL     1     -10.682  14.998  64.890  1.00  0.00    -0.420 C  
HETATM   25  C   UNL     1     -11.119  15.326  67.299  1.00  0.00    -0.325 A  
HETATM   26  C   UNL     1     -11.719  14.059  67.298  1.00  0.00    -0.389 A  
HETATM   27  O   UNL     1     -11.988  13.350  66.155  1.00  0.00    -0.371 OA 
HETATM   28  C   UNL     1     -12.035  13.425  68.502  1.00  0.00    -0.363 A  
HETATM   29  C   UNL     1     -11.775  14.061  69.716  1.00  0.00    -0.375 A  
HETATM   30  C   UNL     1     -11.197  15.324  69.715  1.00  0.00    -0.286 A  
HETATM   31  F   UNL     1     -10.945  15.938  70.879  1.00  0.00    -0.316 F  
HETATM   32  C   UNL     1     -10.870  15.962  68.523  1.00  0.00    -0.298 A  
ENDBRANCH  19  22
ENDBRANCH  18  19
ENDBRANCH  16  18
ENDBRANCH  15  16
ENDBRANCH   2  15
TORSDOF 6
ENDMDL
MODEL       69
REMARK 921   NORMALIZED FREE ENERGY PREDICTED BY IDOCK:   -6.79 KCAL/MOL
REMARK 922        TOTAL FREE ENERGY PREDICTED BY IDOCK:  -10.36 KCAL/MOL
REMARK 923 INTER-LIGAND FREE ENERGY PREDICTED BY IDOCK:   -8.90 KCAL/MOL
REMARK 924 INTRA-LIGAND FREE ENERGY PREDICTED BY IDOCK:   -1.46 KCAL/MOL
REMARK 927      BINDING AFFINITY PREDICTED BY RF-SCORE:    0.00 PKD
ROOT
HETATM    1  O   UNL     1      -7.860  14.073  69.516  1.00  0.00    -0.331 OA 
HETATM    2  C   UNL     1      -7.085  14.075  68.309  1.00  0.00    -0.110 C  
HETATM    3  H   UNL     1      -7.735  14.894  69.977  1.00  0.00     0.000 HD 
ENDROOT
BRANCH   2   4
HETATM    4  C   UNL     1      -7.465  15.302  67.448  1.00  0.00    -0.209 C  
HETATM    5  C   UNL     1      -9.890  19.552  66.492  1.00  0.00    -0.404 A  
HETATM    6  C   UNL     1     -10.758  18.765  67.237  1.00  0.00    -0.490 A  
HETATM    7  C   UNL     1      -6.342  16.341  67.377  1.00  0.00    -0.206 C  
HETATM    8  C   UNL     1      -6.748  17.438  66.409  1.00  0.00    -0.297 C  
HETATM    9  F   UNL     1     -10.306  20.742  66.033  1.00  0.00    -0.277 F  
HETATM   10  C   UNL     1     -10.320  17.528  67.716  1.00  0.00    -0.367 A  
HETATM   11  O   UNL     1      -8.676  15.876  67.972  1.00  0.00    -0.167 OA 
HETATM   12  C   UNL     1      -8.147  17.893  66.703  1.00  0.00    -0.281 A  
HETATM   13  C   UNL     1      -9.025  17.089  67.442  1.00  0.00    -0.211 A  
HETATM   14  C   UNL     1      -8.594  19.130  66.217  1.00  0.00    -0.303 A  
ENDBRANCH   2   4
BRANCH   2  15
HETATM   15  C   UNL     1      -7.288  12.741  67.562  1.00  0.00    -0.153 C  
BRANCH  15  16
HETATM   16  N   UNL     1      -8.336  11.910  68.182  1.00  0.00    -0.154 NA 
HETATM   17  H   UNL     1      -8.727  12.342  69.019  1.00  0.00     0.000 HD 
BRANCH  16  18
HETATM   18  C   UNL     1      -9.368  11.601  67.177  1.00  0.00    -0.174 C  
BRANCH  18  19
HETATM   19  C   UNL     1     -10.606  12.505  67.346  1.00  0.00    -0.223 C  
HETATM   20  H   UNL     1     -12.483  12.456  66.768  1.00  0.00     0.000 HD 
HETATM   21  O   UNL     1     -11.720  11.900  66.664  1.00  0.00    -0.546 OA 
BRANCH  19  22
HETATM   22  C   UNL     1     -10.980  12.731  68.830  1.00  0.00    -0.250 C  
HETATM   23  C   UNL     1     -12.495  12.156  70.707  1.00  0.00    -0.362 C  
HETATM   24  C   UNL     1     -12.252  11.978  69.219  1.00  0.00    -0.135 C  
HETATM   25  C   UNL     1     -12.369  13.605  71.074  1.00  0.00    -0.436 A  
HETATM   26  C   UNL     1     -11.689  14.505  70.243  1.00  0.00    -0.293 A  
HETATM   27  O   UNL     1     -11.126  14.151  69.043  1.00  0.00    -0.247 OA 
HETATM   28  C   UNL     1     -11.591  15.855  70.592  1.00  0.00    -0.426 A  
HETATM   29  C   UNL     1     -12.153  16.310  71.784  1.00  0.00    -0.408 A  
HETATM   30  C   UNL     1     -12.812  15.413  72.615  1.00  0.00    -0.402 A  
HETATM   31  F   UNL     1     -13.355  15.848  73.760  1.00  0.00    -0.571 F  
HETATM   32  C   UNL     1     -12.923  14.069  72.275  1.00  0.00    -0.463 A  
ENDBRANCH  19  22
ENDBRANCH  18  19
ENDBRANCH  16  18
ENDBRANCH  15  16
ENDBRANCH   2  15
TORSDOF 6
ENDMDL
MODEL       70
REMARK 921   NORMALIZED FREE ENERGY PREDICTED BY IDOCK:   -6.78 KCAL/MOL
REMARK 922        TOTAL FREE ENERGY PREDICTED BY IDOCK:  -10.35 KCAL/MOL
REMARK 923 INTER-LIGAND FREE ENERGY PREDICTED BY IDOCK:   -9.70 KCAL/MOL
REMARK 924 INTRA-LIGAND FREE ENERGY PREDICTED BY IDOCK:   -0.65 KCAL/MOL
REMARK 927      BINDING AFFINITY PREDICTED BY RF-SCORE:    0.00 PKD
ROOT
HETATM    1  O   UNL     1     -11.128  16.917  64.285  1.00  0.00    -1.281 OA 
HETATM    2  C   UNL     1     -11.097  16.175  65.512  1.00  0.00    -0.069 C  
HETATM    3  H   UNL     1     -11.223  17.843  64.474  1.00  0.00     0.000 HD 
ENDROOT
BRANCH   2   4
HETATM    4  C   UNL     1      -9.967  16.714  66.419  1.00  0.00    -0.302 C  
HETATM    5  C   UNL     1      -6.861  20.214  68.141  1.00  0.00    -0.291 A  
HETATM    6  C   UNL     1      -7.025  20.468  66.786  1.00  0.00    -0.330 A  
HETATM    7  C   UNL     1     -10.418  16.903  67.871  1.00  0.00    -0.344 C  
HETATM    8  C   UNL     1      -9.217  17.303  68.710  1.00  0.00    -0.238 C  
HETATM    9  F   UNL     1      -6.016  20.969  68.858  1.00  0.00    -0.371 F  
HETATM   10  C   UNL     1      -7.909  19.681  66.044  1.00  0.00    -0.335 A  
HETATM   11  O   UNL     1      -9.475  17.945  65.861  1.00  0.00    -0.522 OA 
HETATM   12  C   UNL     1      -8.458  18.405  68.032  1.00  0.00    -0.291 A  
HETATM   13  C   UNL     1      -8.614  18.648  66.661  1.00  0.00    -0.297 A  
HETATM   14  C   UNL     1      -7.563  19.192  68.770  1.00  0.00    -0.388 A  
ENDBRANCH   2   4
BRANCH   2  15
HETATM   15  C   UNL     1     -10.944  14.671  65.205  1.00  0.00    -0.386 C  
BRANCH  15  16
HETATM   16  N   UNL     1     -11.218  13.832  66.385  1.00  0.00    -0.311 NA 
HETATM   17  H   UNL     1     -12.203  13.846  66.649  1.00  0.00     0.000 HD 
BRANCH  16  18
HETATM   18  C   UNL     1     -10.725  12.466  66.133  1.00  0.00    -0.260 C  
BRANCH  18  19
HETATM   19  C   UNL     1      -9.380  12.215  66.844  1.00  0.00    -0.203 C  
HETATM   20  H   UNL     1      -7.823  13.300  67.351  1.00  0.00     0.000 HD 
HETATM   21  O   UNL     1      -8.651  13.455  66.913  1.00  0.00    -0.189 OA 
BRANCH  19  22
HETATM   22  C   UNL     1      -9.557  11.648  68.272  1.00  0.00    -0.198 C  
HETATM   23  C   UNL     1      -8.926   9.898  69.913  1.00  0.00    -0.231 C  
HETATM   24  C   UNL     1      -8.797  10.336  68.465  1.00  0.00    -0.127 C  
HETATM   25  C   UNL     1     -10.361   9.974  70.342  1.00  0.00    -0.268 A  
HETATM   26  C   UNL     1     -11.286  10.758  69.639  1.00  0.00    -0.294 A  
HETATM   27  O   UNL     1     -10.970  11.474  68.513  1.00  0.00    -0.194 OA 
HETATM   28  C   UNL     1     -12.623  10.808  70.043  1.00  0.00    -0.247 A  
HETATM   29  C   UNL     1     -13.040  10.093  71.165  1.00  0.00    -0.480 A  
HETATM   30  C   UNL     1     -12.118   9.331  71.871  1.00  0.00    -0.370 A  
HETATM   31  F   UNL     1     -12.516   8.641  72.949  1.00  0.00    -0.440 F  
HETATM   32  C   UNL     1     -10.787   9.267  71.474  1.00  0.00    -0.442 A  
ENDBRANCH  19  22
ENDBRANCH  18  19
ENDBRANCH  16  18
ENDBRANCH  15  16
ENDBRANCH   2  15
TORSDOF 6
ENDMDL
MODEL       71
REMARK 921   NORMALIZED FREE ENERGY PREDICTED BY IDOCK:   -6.76 KCAL/MOL
REMARK 922        TOTAL FREE ENERGY PREDICTED BY IDOCK:  -10.31 KCAL/MOL
REMARK 923 INTER-LIGAND FREE ENERGY PREDICTED BY IDOCK:   -7.91 KCAL/MOL
REMARK 924 INTRA-LIGAND FREE ENERGY PREDICTED BY IDOCK:   -2.40 KCAL/MOL
REMARK 927      BINDING AFFINITY PREDICTED BY RF-SCORE:    0.00 PKD
ROOT
HETATM    1  O   UNL     1     -10.222  15.048  70.155  1.00  0.00    -0.482 OA 
HETATM    2  C   UNL     1     -11.630  15.246  69.971  1.00  0.00    -0.305 C  
HETATM    3  H   UNL     1     -10.053  14.768  71.047  1.00  0.00     0.000 HD 
ENDROOT
BRANCH   2   4
HETATM    4  C   UNL     1     -12.392  13.952  70.342  1.00  0.00    -0.363 C  
HETATM    5  C   UNL     1     -12.762   9.094  71.404  1.00  0.00    -0.318 A  
HETATM    6  C   UNL     1     -11.745   9.215  70.466  1.00  0.00    -0.193 A  
HETATM    7  C   UNL     1     -12.861  13.944  71.800  1.00  0.00    -0.421 C  
HETATM    8  C   UNL     1     -13.710  12.707  72.036  1.00  0.00    -0.301 C  
HETATM    9  F   UNL     1     -13.130   7.877  71.829  1.00  0.00    -0.310 F  
HETATM   10  C   UNL     1     -11.363  10.485  70.029  1.00  0.00    -0.392 A  
HETATM   11  O   UNL     1     -11.547  12.822  70.059  1.00  0.00    -0.236 OA 
HETATM   12  C   UNL     1     -13.019  11.495  71.484  1.00  0.00    -0.485 A  
HETATM   13  C   UNL     1     -12.004  11.619  70.527  1.00  0.00    -0.319 A  
HETATM   14  C   UNL     1     -13.405  10.218  71.914  1.00  0.00    -0.487 A  
ENDBRANCH   2   4
BRANCH   2  15
HETATM   15  C   UNL     1     -11.904  15.700  68.523  1.00  0.00    -0.237 C  
BRANCH  15  16
HETATM   16  N   UNL     1     -11.547  14.663  67.538  1.00  0.00    -0.364 NA 
HETATM   17  H   UNL     1     -12.369  14.236  67.111  1.00  0.00     0.000 HD 
BRANCH  16  18
HETATM   18  C   UNL     1     -10.631  15.239  66.538  1.00  0.00    -0.304 C  
BRANCH  18  19
HETATM   19  C   UNL     1      -9.173  14.811  66.799  1.00  0.00    -0.260 C  
HETATM   20  H   UNL     1      -7.648  15.526  67.811  1.00  0.00     0.000 HD 
HETATM   21  O   UNL     1      -8.547  15.789  67.650  1.00  0.00    -0.159 OA 
BRANCH  19  22
HETATM   22  C   UNL     1      -9.071  13.418  67.464  1.00  0.00    -0.215 C  
HETATM   23  C   UNL     1      -7.602  11.698  68.481  1.00  0.00    -0.127 C  
HETATM   24  C   UNL     1      -7.620  13.019  67.733  1.00  0.00    -0.152 C  
HETATM   25  C   UNL     1      -8.510  10.716  67.804  1.00  0.00    -0.116 A  
HETATM   26  C   UNL     1      -9.516  11.146  66.928  1.00  0.00    -0.185 A  
HETATM   27  O   UNL     1      -9.725  12.461  66.603  1.00  0.00    -0.214 OA 
HETATM   28  C   UNL     1     -10.346  10.218  66.294  1.00  0.00    -0.256 A  
HETATM   29  C   UNL     1     -10.191   8.855  66.547  1.00  0.00    -0.319 A  
HETATM   30  C   UNL     1      -9.205   8.432  67.429  1.00  0.00    -0.140 A  
HETATM   31  F   UNL     1      -9.052   7.123  67.673  1.00  0.00    -0.127 F  
HETATM   32  C   UNL     1      -8.367   9.345  68.060  1.00  0.00    -0.119 A  
ENDBRANCH  19  22
ENDBRANCH  18  19
ENDBRANCH  16  18
ENDBRANCH  15  16
ENDBRANCH   2  15
TORSDOF 6
ENDMDL
MODEL       72
REMARK 921   NORMALIZED FREE ENERGY PREDICTED BY IDOCK:   -6.75 KCAL/MOL
REMARK 922        TOTAL FREE ENERGY PREDICTED BY IDOCK:  -10.30 KCAL/MOL
REMARK 923 INTER-LIGAND FREE ENERGY PREDICTED BY IDOCK:   -8.36 KCAL/MOL
REMARK 924 INTRA-LIGAND FREE ENERGY PREDICTED BY IDOCK:   -1.94 KCAL/MOL
REMARK 927      BINDING AFFINITY PREDICTED BY RF-SCORE:    0.00 PKD
ROOT
HETATM    1  O   UNL     1      -8.933  13.293  66.347  1.00  0.00    -0.442 OA 
HETATM    2  C   UNL     1      -8.094  12.933  67.454  1.00  0.00    -0.181 C  
HETATM    3  H   UNL     1      -9.035  12.547  65.769  1.00  0.00     0.000 HD 
ENDROOT
BRANCH   2   4
HETATM    4  C   UNL     1      -8.683  11.699  68.176  1.00  0.00    -0.159 C  
HETATM    5  C   UNL     1     -10.224   6.965  68.466  1.00  0.00    -0.177 A  
HETATM    6  C   UNL     1     -10.537   7.402  67.186  1.00  0.00    -0.413 A  
HETATM    7  C   UNL     1      -7.695  11.065  69.159  1.00  0.00    -0.102 C  
HETATM    8  C   UNL     1      -8.398   9.952  69.915  1.00  0.00    -0.200 C  
HETATM    9  F   UNL     1     -10.585   5.734  68.852  1.00  0.00    -0.243 F  
HETATM   10  C   UNL     1     -10.154   8.685  66.787  1.00  0.00    -0.366 A  
HETATM   11  O   UNL     1      -9.116  10.749  67.185  1.00  0.00    -0.144 OA 
HETATM   12  C   UNL     1      -9.143   9.069  68.957  1.00  0.00    -0.143 A  
HETATM   13  C   UNL     1      -9.470   9.519  67.671  1.00  0.00    -0.131 A  
HETATM   14  C   UNL     1      -9.536   7.784  69.355  1.00  0.00    -0.156 A  
ENDBRANCH   2   4
BRANCH   2  15
HETATM   15  C   UNL     1      -7.928  14.146  68.393  1.00  0.00    -0.142 C  
BRANCH  15  16
HETATM   16  N   UNL     1      -8.430  15.391  67.786  1.00  0.00    -0.146 NA 
HETATM   17  H   UNL     1      -8.875  15.230  66.883  1.00  0.00     0.000 HD 
BRANCH  16  18
HETATM   18  C   UNL     1      -9.327  16.068  68.740  1.00  0.00    -0.222 C  
BRANCH  18  19
HETATM   19  C   UNL     1     -10.786  16.059  68.242  1.00  0.00    -0.319 C  
HETATM   20  H   UNL     1     -11.718  15.517  66.600  1.00  0.00     0.000 HD 
HETATM   21  O   UNL     1     -10.819  15.522  66.906  1.00  0.00    -0.314 OA 
BRANCH  19  22
HETATM   22  C   UNL     1     -11.720  15.224  69.149  1.00  0.00    -0.335 C  
HETATM   23  C   UNL     1     -12.649  14.873  71.422  1.00  0.00    -0.402 C  
HETATM   24  C   UNL     1     -11.631  15.657  70.613  1.00  0.00    -0.394 C  
HETATM   25  C   UNL     1     -12.550  13.414  71.090  1.00  0.00    -0.430 A  
HETATM   26  C   UNL     1     -11.939  12.982  69.905  1.00  0.00    -0.311 A  
HETATM   27  O   UNL     1     -11.369  13.832  68.993  1.00  0.00    -0.258 OA 
HETATM   28  C   UNL     1     -11.842  11.618  69.617  1.00  0.00    -0.419 A  
HETATM   29  C   UNL     1     -12.374  10.678  70.499  1.00  0.00    -0.448 A  
HETATM   30  C   UNL     1     -12.995  11.109  71.664  1.00  0.00    -0.443 A  
HETATM   31  F   UNL     1     -13.505  10.209  72.515  1.00  0.00    -0.453 F  
HETATM   32  C   UNL     1     -13.090  12.463  71.967  1.00  0.00    -0.470 A  
ENDBRANCH  19  22
ENDBRANCH  18  19
ENDBRANCH  16  18
ENDBRANCH  15  16
ENDBRANCH   2  15
TORSDOF 6
ENDMDL
MODEL       73
REMARK 921   NORMALIZED FREE ENERGY PREDICTED BY IDOCK:   -6.75 KCAL/MOL
REMARK 922        TOTAL FREE ENERGY PREDICTED BY IDOCK:  -10.30 KCAL/MOL
REMARK 923 INTER-LIGAND FREE ENERGY PREDICTED BY IDOCK:   -9.46 KCAL/MOL
REMARK 924 INTRA-LIGAND FREE ENERGY PREDICTED BY IDOCK:   -0.84 KCAL/MOL
REMARK 927      BINDING AFFINITY PREDICTED BY RF-SCORE:    0.00 PKD
ROOT
HETATM    1  O   UNL     1     -13.752   9.617  72.715  1.00  0.00    -0.692 OA 
HETATM    2  C   UNL     1     -13.168   9.237  71.461  1.00  0.00    -0.367 C  
HETATM    3  H   UNL     1     -14.362   8.947  72.998  1.00  0.00     0.000 HD 
ENDROOT
BRANCH   2   4
HETATM    4  C   UNL     1     -12.504   7.847  71.594  1.00  0.00    -0.319 C  
HETATM    5  C   UNL     1      -9.429   4.176  70.203  1.00  0.00    -0.184 A  
HETATM    6  C   UNL     1      -9.898   4.759  69.034  1.00  0.00    -0.239 A  
HETATM    7  C   UNL     1     -11.482   7.791  72.734  1.00  0.00    -0.415 C  
HETATM    8  C   UNL     1     -10.984   6.364  72.877  1.00  0.00    -0.281 C  
HETATM    9  F   UNL     1      -8.624   3.107  70.132  1.00  0.00    -0.074 F  
HETATM   10  C   UNL     1     -10.734   5.876  69.112  1.00  0.00    -0.394 A  
HETATM   11  O   UNL     1     -11.900   7.502  70.334  1.00  0.00    -0.176 OA 
HETATM   12  C   UNL     1     -10.610   5.812  71.533  1.00  0.00    -0.304 A  
HETATM   13  C   UNL     1     -11.097   6.393  70.356  1.00  0.00    -0.339 A  
HETATM   14  C   UNL     1      -9.778   4.686  71.449  1.00  0.00    -0.246 A  
ENDBRANCH   2   4
BRANCH   2  15
HETATM   15  C   UNL     1     -12.177  10.326  71.000  1.00  0.00    -0.384 C  
BRANCH  15  16
HETATM   16  N   UNL     1     -12.029  10.358  69.534  1.00  0.00    -0.497 NA 
HETATM   17  H   UNL     1     -12.787  10.866  69.079  1.00  0.00     0.000 HD 
BRANCH  16  18
HETATM   18  C   UNL     1     -10.704  10.906  69.193  1.00  0.00    -0.226 C  
BRANCH  18  19
HETATM   19  C   UNL     1     -10.772  11.802  67.940  1.00  0.00    -0.204 C  
HETATM   20  H   UNL     1     -12.121  12.228  66.577  1.00  0.00     0.000 HD 
HETATM   21  O   UNL     1     -12.079  11.676  67.349  1.00  0.00    -0.605 OA 
BRANCH  19  22
HETATM   22  C   UNL     1     -10.499  13.291  68.258  1.00  0.00    -0.250 C  
HETATM   23  C   UNL     1     -11.112  15.280  69.606  1.00  0.00    -0.284 C  
HETATM   24  C   UNL     1     -11.506  13.855  69.261  1.00  0.00    -0.348 C  
HETATM   25  C   UNL     1     -10.831  16.051  68.351  1.00  0.00    -0.310 A  
HETATM   26  C   UNL     1     -10.544  15.392  67.147  1.00  0.00    -0.305 A  
HETATM   27  O   UNL     1     -10.530  14.027  67.016  1.00  0.00    -0.271 OA 
HETATM   28  C   UNL     1     -10.297  16.123  65.982  1.00  0.00    -0.372 A  
HETATM   29  C   UNL     1     -10.313  17.517  66.016  1.00  0.00    -0.309 A  
HETATM   30  C   UNL     1     -10.581  18.169  67.214  1.00  0.00    -0.367 A  
HETATM   31  F   UNL     1     -10.599  19.508  67.250  1.00  0.00    -0.470 F  
HETATM   32  C   UNL     1     -10.836  17.452  68.378  1.00  0.00    -0.234 A  
ENDBRANCH  19  22
ENDBRANCH  18  19
ENDBRANCH  16  18
ENDBRANCH  15  16
ENDBRANCH   2  15
TORSDOF 6
ENDMDL
MODEL       74
REMARK 921   NORMALIZED FREE ENERGY PREDICTED BY IDOCK:   -6.74 KCAL/MOL
REMARK 922        TOTAL FREE ENERGY PREDICTED BY IDOCK:  -10.29 KCAL/MOL
REMARK 923 INTER-LIGAND FREE ENERGY PREDICTED BY IDOCK:   -8.41 KCAL/MOL
REMARK 924 INTRA-LIGAND FREE ENERGY PREDICTED BY IDOCK:   -1.89 KCAL/MOL
REMARK 927      BINDING AFFINITY PREDICTED BY RF-SCORE:    0.00 PKD
ROOT
HETATM    1  O   UNL     1     -12.495  12.305  65.328  1.00  0.00    -0.585 OA 
HETATM    2  C   UNL     1     -11.434  13.075  65.911  1.00  0.00    -0.337 C  
HETATM    3  H   UNL     1     -12.132  11.555  64.872  1.00  0.00     0.000 HD 
ENDROOT
BRANCH   2   4
HETATM    4  C   UNL     1     -10.582  12.174  66.835  1.00  0.00    -0.229 C  
HETATM    5  C   UNL     1      -8.318   7.926  68.137  1.00  0.00    -0.124 A  
HETATM    6  C   UNL     1      -9.481   7.562  67.471  1.00  0.00    -0.165 A  
HETATM    7  C   UNL     1      -9.096  12.543  66.808  1.00  0.00    -0.214 C  
HETATM    8  C   UNL     1      -8.362  11.702  67.838  1.00  0.00    -0.143 C  
HETATM    9  F   UNL     1      -7.533   6.975  68.663  1.00  0.00    -0.090 F  
HETATM   10  C   UNL     1     -10.295   8.556  66.920  1.00  0.00    -0.367 A  
HETATM   11  O   UNL     1     -10.786  10.801  66.455  1.00  0.00    -0.234 OA 
HETATM   12  C   UNL     1      -8.759  10.261  67.705  1.00  0.00    -0.121 A  
HETATM   13  C   UNL     1      -9.941   9.899  67.046  1.00  0.00    -0.200 A  
HETATM   14  C   UNL     1      -7.951   9.261  68.262  1.00  0.00    -0.102 A  
ENDBRANCH   2   4
BRANCH   2  15
HETATM   15  C   UNL     1     -12.025  14.292  66.652  1.00  0.00    -0.430 C  
BRANCH  15  16
HETATM   16  N   UNL     1     -12.333  13.989  68.061  1.00  0.00    -0.500 NA 
HETATM   17  H   UNL     1     -12.095  13.029  68.311  1.00  0.00     0.000 HD 
BRANCH  16  18
HETATM   18  C   UNL     1     -11.663  14.976  68.927  1.00  0.00    -0.328 C  
BRANCH  18  19
HETATM   19  C   UNL     1     -12.117  14.836  70.394  1.00  0.00    -0.321 C  
HETATM   20  H   UNL     1     -13.374  15.768  71.581  1.00  0.00     0.000 HD 
HETATM   21  O   UNL     1     -13.095  15.854  70.677  1.00  0.00    -0.467 OA 
BRANCH  19  22
HETATM   22  C   UNL     1     -12.725  13.447  70.699  1.00  0.00    -0.176 C  
HETATM   23  C   UNL     1     -13.898  12.001  72.338  1.00  0.00     0.224 C  
HETATM   24  C   UNL     1     -13.219  13.345  72.142  1.00  0.00    -0.557 C  
HETATM   25  C   UNL     1     -13.031  10.907  71.790  1.00  0.00    -0.557 A  
HETATM   26  C   UNL     1     -12.017  11.184  70.863  1.00  0.00    -0.257 A  
HETATM   27  O   UNL     1     -11.721  12.447  70.419  1.00  0.00    -0.234 OA 
HETATM   28  C   UNL     1     -11.208  10.156  70.372  1.00  0.00    -0.402 A  
HETATM   29  C   UNL     1     -11.421   8.841  70.786  1.00  0.00    -0.309 A  
HETATM   30  C   UNL     1     -12.438   8.567  71.691  1.00  0.00    -0.330 A  
HETATM   31  F   UNL     1     -12.644   7.305  72.092  1.00  0.00    -0.314 F  
HETATM   32  C   UNL     1     -13.245   9.582  72.193  1.00  0.00    -0.539 A  
ENDBRANCH  19  22
ENDBRANCH  18  19
ENDBRANCH  16  18
ENDBRANCH  15  16
ENDBRANCH   2  15
TORSDOF 6
ENDMDL
MODEL       75
REMARK 921   NORMALIZED FREE ENERGY PREDICTED BY IDOCK:   -6.72 KCAL/MOL
REMARK 922        TOTAL FREE ENERGY PREDICTED BY IDOCK:  -10.26 KCAL/MOL
REMARK 923 INTER-LIGAND FREE ENERGY PREDICTED BY IDOCK:   -9.08 KCAL/MOL
REMARK 924 INTRA-LIGAND FREE ENERGY PREDICTED BY IDOCK:   -1.18 KCAL/MOL
REMARK 927      BINDING AFFINITY PREDICTED BY RF-SCORE:    0.00 PKD
ROOT
HETATM    1  O   UNL     1     -11.596  12.604  62.717  1.00  0.00    -0.617 OA 
HETATM    2  C   UNL     1     -11.343  12.628  64.129  1.00  0.00    -0.383 C  
HETATM    3  H   UNL     1     -10.808  12.344  62.256  1.00  0.00     0.000 HD 
ENDROOT
BRANCH   2   4
HETATM    4  C   UNL     1     -10.815  11.249  64.587  1.00  0.00    -0.265 C  
HETATM    5  C   UNL     1      -7.559   7.473  64.661  1.00  0.00    -0.111 A  
HETATM    6  C   UNL     1      -7.552   7.971  63.365  1.00  0.00    -0.130 A  
HETATM    7  C   UNL     1     -10.280  11.271  66.022  1.00  0.00    -0.295 C  
HETATM    8  C   UNL     1      -9.911   9.856  66.432  1.00  0.00    -0.309 C  
HETATM    9  F   UNL     1      -6.815   6.398  64.960  1.00  0.00    -0.042 F  
HETATM   10  C   UNL     1      -8.325   9.094  63.058  1.00  0.00    -0.196 A  
HETATM   11  O   UNL     1      -9.806  10.810  63.661  1.00  0.00    -0.295 OA 
HETATM   12  C   UNL     1      -9.091   9.206  65.357  1.00  0.00    -0.271 A  
HETATM   13  C   UNL     1      -9.099   9.702  64.047  1.00  0.00    -0.200 A  
HETATM   14  C   UNL     1      -8.320   8.074  65.657  1.00  0.00    -0.146 A  
ENDBRANCH   2   4
BRANCH   2  15
HETATM   15  C   UNL     1     -12.624  13.051  64.877  1.00  0.00    -0.428 C  
BRANCH  15  16
HETATM   16  N   UNL     1     -12.511  14.403  65.451  1.00  0.00    -0.386 NA 
HETATM   17  H   UNL     1     -12.931  14.467  66.378  1.00  0.00     0.000 HD 
BRANCH  16  18
HETATM   18  C   UNL     1     -11.095  14.814  65.449  1.00  0.00    -0.357 C  
BRANCH  18  19
HETATM   19  C   UNL     1     -10.658  15.331  66.834  1.00  0.00    -0.304 C  
HETATM   20  H   UNL     1     -10.432  17.088  67.683  1.00  0.00     0.000 HD 
HETATM   21  O   UNL     1     -10.702  16.770  66.829  1.00  0.00    -0.242 OA 
BRANCH  19  22
HETATM   22  C   UNL     1     -11.552  14.798  67.978  1.00  0.00    -0.343 C  
HETATM   23  C   UNL     1     -12.283  15.040  70.336  1.00  0.00    -0.393 C  
HETATM   24  C   UNL     1     -11.299  15.537  69.293  1.00  0.00    -0.330 C  
HETATM   25  C   UNL     1     -12.307  13.540  70.341  1.00  0.00    -0.397 A  
HETATM   26  C   UNL     1     -11.839  12.806  69.243  1.00  0.00    -0.303 A  
HETATM   27  O   UNL     1     -11.305  13.382  68.119  1.00  0.00    -0.255 OA 
HETATM   28  C   UNL     1     -11.855  11.410  69.267  1.00  0.00    -0.417 A  
HETATM   29  C   UNL     1     -12.360  10.736  70.380  1.00  0.00    -0.438 A  
HETATM   30  C   UNL     1     -12.839  11.466  71.460  1.00  0.00    -0.403 A  
HETATM   31  F   UNL     1     -13.322  10.823  72.531  1.00  0.00    -0.451 F  
HETATM   32  C   UNL     1     -12.821  12.856  71.451  1.00  0.00    -0.377 A  
ENDBRANCH  19  22
ENDBRANCH  18  19
ENDBRANCH  16  18
ENDBRANCH  15  16
ENDBRANCH   2  15
TORSDOF 6
ENDMDL
MODEL       76
REMARK 921   NORMALIZED FREE ENERGY PREDICTED BY IDOCK:   -6.66 KCAL/MOL
REMARK 922        TOTAL FREE ENERGY PREDICTED BY IDOCK:  -10.18 KCAL/MOL
REMARK 923 INTER-LIGAND FREE ENERGY PREDICTED BY IDOCK:   -9.19 KCAL/MOL
REMARK 924 INTRA-LIGAND FREE ENERGY PREDICTED BY IDOCK:   -0.99 KCAL/MOL
REMARK 927      BINDING AFFINITY PREDICTED BY RF-SCORE:    0.00 PKD
ROOT
HETATM    1  O   UNL     1      -9.994   7.209  66.187  1.00  0.00    -0.436 OA 
HETATM    2  C   UNL     1      -9.228   7.818  67.236  1.00  0.00    -0.139 C  
HETATM    3  H   UNL     1     -10.147   6.294  66.394  1.00  0.00     0.000 HD 
ENDROOT
BRANCH   2   4
HETATM    4  C   UNL     1      -9.952   7.628  68.589  1.00  0.00    -0.174 C  
HETATM    5  C   UNL     1     -13.222   8.841  72.152  1.00  0.00    -0.414 A  
HETATM    6  C   UNL     1     -12.754  10.038  71.626  1.00  0.00    -0.535 A  
HETATM    7  C   UNL     1     -10.949   6.466  68.564  1.00  0.00    -0.396 C  
HETATM    8  C   UNL     1     -11.509   6.269  69.962  1.00  0.00    -0.460 C  
HETATM    9  F   UNL     1     -14.077   8.862  73.185  1.00  0.00    -0.354 F  
HETATM   10  C   UNL     1     -11.866  10.011  70.548  1.00  0.00    -0.387 A  
HETATM   11  O   UNL     1     -10.600   8.864  68.942  1.00  0.00    -0.217 OA 
HETATM   12  C   UNL     1     -11.938   7.587  70.535  1.00  0.00    -0.088 A  
HETATM   13  C   UNL     1     -11.452   8.792  70.012  1.00  0.00     0.055 A  
HETATM   14  C   UNL     1     -12.823   7.619  71.622  1.00  0.00    -0.378 A  
ENDBRANCH   2   4
BRANCH   2  15
HETATM   15  C   UNL     1      -8.980   9.303  66.899  1.00  0.00    -0.130 C  
BRANCH  15  16
HETATM   16  N   UNL     1     -10.189   9.963  66.375  1.00  0.00    -0.239 NA 
HETATM   17  H   UNL     1     -11.001   9.815  66.973  1.00  0.00     0.000 HD 
BRANCH  16  18
HETATM   18  C   UNL     1      -9.905  11.393  66.159  1.00  0.00    -0.222 C  
BRANCH  18  19
HETATM   19  C   UNL     1     -11.112  12.270  66.550  1.00  0.00    -0.299 C  
HETATM   20  H   UNL     1     -12.698  12.067  67.691  1.00  0.00     0.000 HD 
HETATM   21  O   UNL     1     -11.955  11.527  67.450  1.00  0.00    -0.623 OA 
BRANCH  19  22
HETATM   22  C   UNL     1     -10.690  13.596  67.226  1.00  0.00    -0.279 C  
HETATM   23  C   UNL     1     -11.052  15.191  69.091  1.00  0.00    -0.263 C  
HETATM   24  C   UNL     1     -11.588  13.943  68.414  1.00  0.00    -0.368 C  
HETATM   25  C   UNL     1     -10.769  16.247  68.064  1.00  0.00    -0.331 A  
HETATM   26  C   UNL     1     -10.606  15.915  66.712  1.00  0.00    -0.309 A  
HETATM   27  O   UNL     1     -10.721  14.638  66.226  1.00  0.00    -0.303 OA 
HETATM   28  C   UNL     1     -10.357  16.911  65.764  1.00  0.00    -0.298 A  
HETATM   29  C   UNL     1     -10.246  18.243  66.164  1.00  0.00    -0.393 A  
HETATM   30  C   UNL     1     -10.391  18.568  67.507  1.00  0.00    -0.409 A  
HETATM   31  F   UNL     1     -10.288  19.846  67.894  1.00  0.00    -0.487 F  
HETATM   32  C   UNL     1     -10.647  17.586  68.458  1.00  0.00    -0.312 A  
ENDBRANCH  19  22
ENDBRANCH  18  19
ENDBRANCH  16  18
ENDBRANCH  15  16
ENDBRANCH   2  15
TORSDOF 6
ENDMDL
MODEL       77
REMARK 921   NORMALIZED FREE ENERGY PREDICTED BY IDOCK:   -6.66 KCAL/MOL
REMARK 922        TOTAL FREE ENERGY PREDICTED BY IDOCK:  -10.18 KCAL/MOL
REMARK 923 INTER-LIGAND FREE ENERGY PREDICTED BY IDOCK:   -8.27 KCAL/MOL
REMARK 924 INTRA-LIGAND FREE ENERGY PREDICTED BY IDOCK:   -1.91 KCAL/MOL
REMARK 927      BINDING AFFINITY PREDICTED BY RF-SCORE:    0.00 PKD
ROOT
HETATM    1  O   UNL     1      -9.420  16.265  69.336  1.00  0.00    -0.241 OA 
HETATM    2  C   UNL     1     -10.773  16.538  68.946  1.00  0.00    -0.337 C  
HETATM    3  H   UNL     1      -9.345  16.314  70.282  1.00  0.00     0.000 HD 
ENDROOT
BRANCH   2   4
HETATM    4  C   UNL     1     -11.732  15.564  69.669  1.00  0.00    -0.357 C  
HETATM    5  C   UNL     1     -13.049  11.174  71.632  1.00  0.00    -0.424 A  
HETATM    6  C   UNL     1     -12.259  10.888  70.527  1.00  0.00    -0.459 A  
HETATM    7  C   UNL     1     -11.864  15.871  71.164  1.00  0.00    -0.483 C  
HETATM    8  C   UNL     1     -12.920  14.957  71.761  1.00  0.00    -0.417 C  
HETATM    9  F   UNL     1     -13.604  10.170  72.326  1.00  0.00    -0.485 F  
HETATM   10  C   UNL     1     -11.679  11.937  69.809  1.00  0.00    -0.403 A  
HETATM   11  O   UNL     1     -11.272  14.218  69.451  1.00  0.00    -0.263 OA 
HETATM   12  C   UNL     1     -12.684  13.542  71.324  1.00  0.00    -0.432 A  
HETATM   13  C   UNL     1     -11.899  13.258  70.199  1.00  0.00    -0.263 A  
HETATM   14  C   UNL     1     -13.270  12.486  72.036  1.00  0.00    -0.524 A  
ENDBRANCH   2   4
BRANCH   2  15
HETATM   15  C   UNL     1     -10.894  16.458  67.410  1.00  0.00    -0.219 C  
BRANCH  15  16
HETATM   16  N   UNL     1     -11.412  15.153  66.961  1.00  0.00    -0.283 NA 
HETATM   17  H   UNL     1     -12.431  15.111  66.989  1.00  0.00     0.000 HD 
BRANCH  16  18
HETATM   18  C   UNL     1     -10.875  14.853  65.622  1.00  0.00    -0.341 C  
BRANCH  18  19
HETATM   19  C   UNL     1     -11.278  13.439  65.159  1.00  0.00    -0.305 C  
HETATM   20  H   UNL     1     -11.514  12.528  63.434  1.00  0.00     0.000 HD 
HETATM   21  O   UNL     1     -11.266  13.400  63.719  1.00  0.00    -0.289 OA 
BRANCH  19  22
HETATM   22  C   UNL     1     -10.334  12.342  65.705  1.00  0.00    -0.258 C  
HETATM   23  C   UNL     1     -10.125  10.076  66.692  1.00  0.00    -0.289 C  
HETATM   24  C   UNL     1     -11.110  11.154  66.276  1.00  0.00    -0.176 C  
HETATM   25  C   UNL     1      -9.021  10.680  67.507  1.00  0.00    -0.136 A  
HETATM   26  C   UNL     1      -8.755  12.055  67.458  1.00  0.00    -0.166 A  
HETATM   27  O   UNL     1      -9.483  12.941  66.707  1.00  0.00    -0.233 OA 
HETATM   28  C   UNL     1      -7.731  12.605  68.234  1.00  0.00    -0.135 A  
HETATM   29  C   UNL     1      -6.952  11.783  69.047  1.00  0.00    -0.107 A  
HETATM   30  C   UNL     1      -7.206  10.418  69.081  1.00  0.00    -0.089 A  
HETATM   31  F   UNL     1      -6.460   9.625  69.862  1.00  0.00    -0.042 F  
HETATM   32  C   UNL     1      -8.227   9.859  68.320  1.00  0.00    -0.109 A  
ENDBRANCH  19  22
ENDBRANCH  18  19
ENDBRANCH  16  18
ENDBRANCH  15  16
ENDBRANCH   2  15
TORSDOF 6
ENDMDL
MODEL       78
REMARK 921   NORMALIZED FREE ENERGY PREDICTED BY IDOCK:   -6.65 KCAL/MOL
REMARK 922        TOTAL FREE ENERGY PREDICTED BY IDOCK:  -10.17 KCAL/MOL
REMARK 923 INTER-LIGAND FREE ENERGY PREDICTED BY IDOCK:   -8.94 KCAL/MOL
REMARK 924 INTRA-LIGAND FREE ENERGY PREDICTED BY IDOCK:   -1.23 KCAL/MOL
REMARK 927      BINDING AFFINITY PREDICTED BY RF-SCORE:    0.00 PKD
ROOT
HETATM    1  O   UNL     1     -10.636  13.903  64.915  1.00  0.00    -0.372 OA 
HETATM    2  C   UNL     1     -11.650  13.419  65.807  1.00  0.00    -0.332 C  
HETATM    3  H   UNL     1     -10.857  14.780  64.626  1.00  0.00     0.000 HD 
ENDROOT
BRANCH   2   4
HETATM    4  C   UNL     1     -11.824  14.407  66.984  1.00  0.00    -0.412 C  
HETATM    5  C   UNL     1     -11.997  15.681  71.802  1.00  0.00    -0.440 A  
HETATM    6  C   UNL     1     -12.517  14.396  71.717  1.00  0.00    -0.414 A  
HETATM    7  C   UNL     1     -10.626  15.348  67.144  1.00  0.00    -0.305 C  
HETATM    8  C   UNL     1     -10.940  16.363  68.229  1.00  0.00    -0.355 C  
HETATM    9  F   UNL     1     -11.980  16.311  72.985  1.00  0.00    -0.522 F  
HETATM   10  C   UNL     1     -12.529  13.742  70.483  1.00  0.00    -0.409 A  
HETATM   11  O   UNL     1     -12.060  13.653  68.187  1.00  0.00    -0.359 OA 
HETATM   12  C   UNL     1     -11.491  15.670  69.440  1.00  0.00    -0.354 A  
HETATM   13  C   UNL     1     -12.029  14.380  69.348  1.00  0.00    -0.328 A  
HETATM   14  C   UNL     1     -11.488  16.325  70.679  1.00  0.00    -0.297 A  
ENDBRANCH   2   4
BRANCH   2  15
HETATM   15  C   UNL     1     -11.290  11.995  66.277  1.00  0.00    -0.357 C  
BRANCH  15  16
HETATM   16  N   UNL     1     -10.039  11.509  65.668  1.00  0.00    -0.226 NA 
HETATM   17  H   UNL     1      -9.244  11.587  66.301  1.00  0.00     0.000 HD 
BRANCH  16  18
HETATM   18  C   UNL     1     -10.239  10.130  65.187  1.00  0.00    -0.162 C  
BRANCH  18  19
HETATM   19  C   UNL     1      -9.100   9.201  65.654  1.00  0.00    -0.219 C  
HETATM   20  H   UNL     1      -7.199   9.410  66.104  1.00  0.00     0.000 HD 
HETATM   21  O   UNL     1      -7.901   9.982  65.816  1.00  0.00    -0.117 OA 
BRANCH  19  22
HETATM   22  C   UNL     1      -9.424   8.484  66.985  1.00  0.00    -0.173 C  
HETATM   23  C   UNL     1     -10.687   6.678  68.124  1.00  0.00    -0.320 C  
HETATM   24  C   UNL     1     -10.500   7.411  66.808  1.00  0.00    -0.316 C  
HETATM   25  C   UNL     1     -10.827   7.667  69.243  1.00  0.00    -0.111 A  
HETATM   26  C   UNL     1     -10.386   8.990  69.099  1.00  0.00    -0.219 A  
HETATM   27  O   UNL     1      -9.835   9.482  67.944  1.00  0.00    -0.147 OA 
HETATM   28  C   UNL     1     -10.535   9.903  70.146  1.00  0.00    -0.339 A  
HETATM   29  C   UNL     1     -11.106   9.496  71.351  1.00  0.00    -0.438 A  
HETATM   30  C   UNL     1     -11.527   8.181  71.498  1.00  0.00    -0.267 A  
HETATM   31  F   UNL     1     -12.078   7.787  72.654  1.00  0.00    -0.325 F  
HETATM   32  C   UNL     1     -11.391   7.264  70.461  1.00  0.00    -0.308 A  
ENDBRANCH  19  22
ENDBRANCH  18  19
ENDBRANCH  16  18
ENDBRANCH  15  16
ENDBRANCH   2  15
TORSDOF 6
ENDMDL
MODEL       79
REMARK 921   NORMALIZED FREE ENERGY PREDICTED BY IDOCK:   -6.65 KCAL/MOL
REMARK 922        TOTAL FREE ENERGY PREDICTED BY IDOCK:  -10.17 KCAL/MOL
REMARK 923 INTER-LIGAND FREE ENERGY PREDICTED BY IDOCK:   -9.22 KCAL/MOL
REMARK 924 INTRA-LIGAND FREE ENERGY PREDICTED BY IDOCK:   -0.95 KCAL/MOL
REMARK 927      BINDING AFFINITY PREDICTED BY RF-SCORE:    0.00 PKD
ROOT
HETATM    1  O   UNL     1      -9.256  11.461  64.800  1.00  0.00    -0.368 OA 
HETATM    2  C   UNL     1     -10.425  12.024  65.412  1.00  0.00    -0.275 C  
HETATM    3  H   UNL     1      -8.541  11.453  65.425  1.00  0.00     0.000 HD 
ENDROOT
BRANCH   2   4
HETATM    4  C   UNL     1     -10.770  11.238  66.699  1.00  0.00    -0.272 C  
HETATM    5  C   UNL     1      -9.751   9.178  71.124  1.00  0.00    -0.290 A  
HETATM    6  C   UNL     1      -8.604   9.040  70.354  1.00  0.00    -0.215 A  
HETATM    7  C   UNL     1     -11.626  12.052  67.673  1.00  0.00    -0.392 C  
HETATM    8  C   UNL     1     -12.027  11.162  68.837  1.00  0.00    -0.367 C  
HETATM    9  F   UNL     1      -9.788   8.650  72.356  1.00  0.00    -0.330 F  
HETATM   10  C   UNL     1      -8.568   9.595  69.072  1.00  0.00    -0.133 A  
HETATM   11  O   UNL     1      -9.545  10.805  67.317  1.00  0.00    -0.158 OA 
HETATM   12  C   UNL     1     -10.829  10.425  69.358  1.00  0.00    -0.287 A  
HETATM   13  C   UNL     1      -9.679  10.274  68.572  1.00  0.00    -0.161 A  
HETATM   14  C   UNL     1     -10.862   9.859  70.640  1.00  0.00    -0.400 A  
ENDBRANCH   2   4
BRANCH   2  15
HETATM   15  C   UNL     1     -11.586  12.037  64.397  1.00  0.00    -0.336 C  
BRANCH  15  16
HETATM   16  N   UNL     1     -11.669  13.313  63.665  1.00  0.00    -0.663 NA 
HETATM   17  H   UNL     1     -12.330  13.272  62.890  1.00  0.00     0.000 HD 
BRANCH  16  18
HETATM   18  C   UNL     1     -11.983  14.396  64.613  1.00  0.00    -0.464 C  
BRANCH  18  19
HETATM   19  C   UNL     1     -10.947  15.536  64.528  1.00  0.00    -0.206 C  
HETATM   20  H   UNL     1     -10.921  17.375  63.839  1.00  0.00     0.000 HD 
HETATM   21  O   UNL     1     -11.559  16.673  63.891  1.00  0.00    -1.204 OA 
BRANCH  19  22
HETATM   22  C   UNL     1     -10.410  15.957  65.916  1.00  0.00    -0.365 C  
HETATM   23  C   UNL     1     -10.007  17.804  67.521  1.00  0.00    -0.324 C  
HETATM   24  C   UNL     1     -10.444  17.474  66.105  1.00  0.00    -0.288 C  
HETATM   25  C   UNL     1      -8.748  17.060  67.854  1.00  0.00    -0.216 A  
HETATM   26  C   UNL     1      -8.362  15.929  67.122  1.00  0.00    -0.202 A  
HETATM   27  O   UNL     1      -9.067  15.443  66.051  1.00  0.00    -0.322 OA 
HETATM   28  C   UNL     1      -7.179  15.255  67.435  1.00  0.00    -0.235 A  
HETATM   29  C   UNL     1      -6.385  15.692  68.495  1.00  0.00    -0.104 A  
HETATM   30  C   UNL     1      -6.779  16.803  69.230  1.00  0.00    -0.229 A  
HETATM   31  F   UNL     1      -6.018  17.227  70.248  1.00  0.00    -0.234 F  
HETATM   32  C   UNL     1      -7.950  17.487  68.923  1.00  0.00    -0.180 A  
ENDBRANCH  19  22
ENDBRANCH  18  19
ENDBRANCH  16  18
ENDBRANCH  15  16
ENDBRANCH   2  15
TORSDOF 6
ENDMDL
MODEL       80
REMARK 921   NORMALIZED FREE ENERGY PREDICTED BY IDOCK:   -6.62 KCAL/MOL
REMARK 922        TOTAL FREE ENERGY PREDICTED BY IDOCK:  -10.13 KCAL/MOL
REMARK 923 INTER-LIGAND FREE ENERGY PREDICTED BY IDOCK:   -9.29 KCAL/MOL
REMARK 924 INTRA-LIGAND FREE ENERGY PREDICTED BY IDOCK:   -0.84 KCAL/MOL
REMARK 927      BINDING AFFINITY PREDICTED BY RF-SCORE:    0.00 PKD
ROOT
HETATM    1  O   UNL     1      -9.740   9.338  65.406  1.00  0.00    -0.428 OA 
HETATM    2  C   UNL     1      -9.288   9.683  66.723  1.00  0.00    -0.152 C  
HETATM    3  H   UNL     1      -9.337   8.523  65.134  1.00  0.00     0.000 HD 
ENDROOT
BRANCH   2   4
HETATM    4  C   UNL     1      -9.585   8.521  67.698  1.00  0.00    -0.153 C  
HETATM    5  C   UNL     1     -11.637   6.453  71.745  1.00  0.00    -0.316 A  
HETATM    6  C   UNL     1     -11.323   7.760  72.089  1.00  0.00    -0.353 A  
HETATM    7  C   UNL     1     -10.566   7.500  67.114  1.00  0.00    -0.415 C  
HETATM    8  C   UNL     1     -10.693   6.333  68.078  1.00  0.00    -0.369 C  
HETATM    9  F   UNL     1     -12.150   5.630  72.671  1.00  0.00    -0.348 F  
HETATM   10  C   UNL     1     -10.793   8.616  71.120  1.00  0.00    -0.320 A  
HETATM   11  O   UNL     1     -10.077   9.069  68.934  1.00  0.00    -0.184 OA 
HETATM   12  C   UNL     1     -10.910   6.839  69.474  1.00  0.00    -0.315 A  
HETATM   13  C   UNL     1     -10.577   8.154  69.822  1.00  0.00    -0.231 A  
HETATM   14  C   UNL     1     -11.434   5.983  70.452  1.00  0.00    -0.234 A  
ENDBRANCH   2   4
BRANCH   2  15
HETATM   15  C   UNL     1      -9.943  11.008  67.165  1.00  0.00    -0.187 C  
BRANCH  15  16
HETATM   16  N   UNL     1     -11.405  10.886  67.303  1.00  0.00    -0.444 NA 
HETATM   17  H   UNL     1     -11.673  10.368  68.140  1.00  0.00     0.000 HD 
BRANCH  16  18
HETATM   18  C   UNL     1     -12.010  12.229  67.259  1.00  0.00    -0.131 C  
BRANCH  18  19
HETATM   19  C   UNL     1     -11.869  12.863  65.860  1.00  0.00    -0.424 C  
HETATM   20  H   UNL     1     -12.922  12.880  64.201  1.00  0.00     0.000 HD 
HETATM   21  O   UNL     1     -13.009  12.489  65.063  1.00  0.00    -0.779 OA 
BRANCH  19  22
HETATM   22  C   UNL     1     -11.769  14.406  65.912  1.00  0.00    -0.369 C  
HETATM   23  C   UNL     1     -10.959  16.479  64.817  1.00  0.00    -0.192 C  
HETATM   24  C   UNL     1     -10.924  14.962  64.765  1.00  0.00    -0.390 C  
HETATM   25  C   UNL     1     -10.683  16.948  66.214  1.00  0.00    -0.096 A  
HETATM   26  C   UNL     1     -10.840  16.089  67.310  1.00  0.00    -0.255 A  
HETATM   27  O   UNL     1     -11.217  14.775  67.195  1.00  0.00    -0.324 OA 
HETATM   28  C   UNL     1     -10.567  16.537  68.605  1.00  0.00    -0.316 A  
HETATM   29  C   UNL     1     -10.155  17.853  68.816  1.00  0.00    -0.384 A  
HETATM   30  C   UNL     1     -10.017  18.708  67.730  1.00  0.00    -0.346 A  
HETATM   31  F   UNL     1      -9.620  19.972  67.929  1.00  0.00    -0.420 F  
HETATM   32  C   UNL     1     -10.279  18.272  66.436  1.00  0.00    -0.417 A  
ENDBRANCH  19  22
ENDBRANCH  18  19
ENDBRANCH  16  18
ENDBRANCH  15  16
ENDBRANCH   2  15
TORSDOF 6
ENDMDL
MODEL       81
REMARK 921   NORMALIZED FREE ENERGY PREDICTED BY IDOCK:   -6.61 KCAL/MOL
REMARK 922        TOTAL FREE ENERGY PREDICTED BY IDOCK:  -10.12 KCAL/MOL
REMARK 923 INTER-LIGAND FREE ENERGY PREDICTED BY IDOCK:   -8.84 KCAL/MOL
REMARK 924 INTRA-LIGAND FREE ENERGY PREDICTED BY IDOCK:   -1.27 KCAL/MOL
REMARK 927      BINDING AFFINITY PREDICTED BY RF-SCORE:    0.00 PKD
ROOT
HETATM    1  O   UNL     1      -7.370  12.501  68.753  1.00  0.00    -0.120 OA 
HETATM    2  C   UNL     1      -8.660  12.110  68.262  1.00  0.00    -0.175 C  
HETATM    3  H   UNL     1      -7.398  12.574  69.700  1.00  0.00     0.000 HD 
ENDROOT
BRANCH   2   4
HETATM    4  C   UNL     1      -9.102  10.796  68.946  1.00  0.00    -0.164 C  
HETATM    5  C   UNL     1     -10.250   5.944  69.055  1.00  0.00    -0.203 A  
HETATM    6  C   UNL     1     -10.682   6.422  67.825  1.00  0.00    -0.377 A  
HETATM    7  C   UNL     1      -8.003  10.192  69.826  1.00  0.00    -0.172 C  
HETATM    8  C   UNL     1      -8.566   8.987  70.558  1.00  0.00    -0.229 C  
HETATM    9  F   UNL     1     -10.489   4.668  69.390  1.00  0.00    -0.262 F  
HETATM   10  C   UNL     1     -10.427   7.751  67.478  1.00  0.00    -0.338 A  
HETATM   11  O   UNL     1      -9.526   9.868  67.931  1.00  0.00    -0.134 OA 
HETATM   12  C   UNL     1      -9.303   8.099  69.599  1.00  0.00    -0.159 A  
HETATM   13  C   UNL     1      -9.751   8.589  68.365  1.00  0.00    -0.155 A  
HETATM   14  C   UNL     1      -9.568   6.767  69.945  1.00  0.00    -0.159 A  
ENDBRANCH   2   4
BRANCH   2  15
HETATM   15  C   UNL     1      -8.614  11.992  66.725  1.00  0.00    -0.177 C  
BRANCH  15  16
HETATM   16  N   UNL     1      -9.920  12.278  66.106  1.00  0.00    -0.238 NA 
HETATM   17  H   UNL     1     -10.622  11.575  66.340  1.00  0.00     0.000 HD 
BRANCH  16  18
HETATM   18  C   UNL     1     -10.345  13.639  66.479  1.00  0.00    -0.282 C  
BRANCH  18  19
HETATM   19  C   UNL     1     -11.770  13.641  67.069  1.00  0.00    -0.384 C  
HETATM   20  H   UNL     1     -12.992  12.300  67.821  1.00  0.00     0.000 HD 
HETATM   21  O   UNL     1     -12.114  12.298  67.458  1.00  0.00    -0.514 OA 
BRANCH  19  22
HETATM   22  C   UNL     1     -11.907  14.577  68.293  1.00  0.00    -0.312 C  
HETATM   23  C   UNL     1     -10.789  16.162  69.839  1.00  0.00    -0.355 C  
HETATM   24  C   UNL     1     -10.563  15.175  68.708  1.00  0.00    -0.236 C  
HETATM   25  C   UNL     1     -11.662  15.542  70.890  1.00  0.00    -0.413 A  
HETATM   26  C   UNL     1     -12.468  14.433  70.598  1.00  0.00    -0.350 A  
HETATM   27  O   UNL     1     -12.499  13.820  69.371  1.00  0.00    -0.255 OA 
HETATM   28  C   UNL     1     -13.266  13.858  71.590  1.00  0.00    -0.446 A  
HETATM   29  C   UNL     1     -13.281  14.400  72.875  1.00  0.00    -0.613 A  
HETATM   30  C   UNL     1     -12.495  15.510  73.158  1.00  0.00    -0.460 A  
HETATM   31  F   UNL     1     -12.506  16.033  74.391  1.00  0.00    -0.576 F  
HETATM   32  C   UNL     1     -11.691  16.087  72.180  1.00  0.00    -0.587 A  
ENDBRANCH  19  22
ENDBRANCH  18  19
ENDBRANCH  16  18
ENDBRANCH  15  16
ENDBRANCH   2  15
TORSDOF 6
ENDMDL
MODEL       82
REMARK 921   NORMALIZED FREE ENERGY PREDICTED BY IDOCK:   -6.60 KCAL/MOL
REMARK 922        TOTAL FREE ENERGY PREDICTED BY IDOCK:  -10.11 KCAL/MOL
REMARK 923 INTER-LIGAND FREE ENERGY PREDICTED BY IDOCK:   -9.24 KCAL/MOL
REMARK 924 INTRA-LIGAND FREE ENERGY PREDICTED BY IDOCK:   -0.87 KCAL/MOL
REMARK 927      BINDING AFFINITY PREDICTED BY RF-SCORE:    0.00 PKD
ROOT
HETATM    1  O   UNL     1      -8.698  10.958  63.931  1.00  0.00    -0.326 OA 
HETATM    2  C   UNL     1      -9.803  11.518  64.653  1.00  0.00    -0.246 C  
HETATM    3  H   UNL     1      -7.922  10.966  64.479  1.00  0.00     0.000 HD 
ENDROOT
BRANCH   2   4
HETATM    4  C   UNL     1     -10.005  10.748  65.979  1.00  0.00    -0.242 C  
HETATM    5  C   UNL     1      -8.849   9.454  70.654  1.00  0.00    -0.220 A  
HETATM    6  C   UNL     1      -7.644   9.668  69.997  1.00  0.00    -0.151 A  
HETATM    7  C   UNL     1     -11.186  11.281  66.795  1.00  0.00    -0.265 C  
HETATM    8  C   UNL     1     -11.391  10.385  68.004  1.00  0.00    -0.277 C  
HETATM    9  F   UNL     1      -8.842   9.027  71.924  1.00  0.00    -0.268 F  
HETATM   10  C   UNL     1      -7.656  10.117  68.673  1.00  0.00    -0.086 A  
HETATM   11  O   UNL     1      -8.781  10.802  66.734  1.00  0.00    -0.138 OA 
HETATM   12  C   UNL     1     -10.081  10.139  68.692  1.00  0.00    -0.186 A  
HETATM   13  C   UNL     1      -8.868  10.340  68.021  1.00  0.00    -0.122 A  
HETATM   14  C   UNL     1     -10.064   9.681  70.016  1.00  0.00    -0.293 A  
ENDBRANCH   2   4
BRANCH   2  15
HETATM   15  C   UNL     1     -11.063  11.506  63.763  1.00  0.00    -0.390 C  
BRANCH  15  16
HETATM   16  N   UNL     1     -11.340  12.828  63.174  1.00  0.00    -0.757 NA 
HETATM   17  H   UNL     1     -11.931  12.766  62.345  1.00  0.00     0.000 HD 
BRANCH  16  18
HETATM   18  C   UNL     1     -11.915  13.708  64.207  1.00  0.00    -0.445 C  
BRANCH  18  19
HETATM   19  C   UNL     1     -11.439  15.165  64.032  1.00  0.00     0.210 C  
HETATM   20  H   UNL     1     -12.282  16.886  63.599  1.00  0.00     0.000 HD 
HETATM   21  O   UNL     1     -12.575  15.988  63.707  1.00  0.00    -0.665 OA 
BRANCH  19  22
HETATM   22  C   UNL     1     -10.752  15.723  65.300  1.00  0.00    -0.428 C  
HETATM   23  C   UNL     1     -10.555  15.641  67.771  1.00  0.00    -0.281 C  
HETATM   24  C   UNL     1     -11.347  15.134  66.579  1.00  0.00    -0.234 C  
HETATM   25  C   UNL     1     -10.378  17.127  67.671  1.00  0.00    -0.344 A  
HETATM   26  C   UNL     1     -10.530  17.793  66.447  1.00  0.00    -0.297 A  
HETATM   27  O   UNL     1     -10.875  17.162  65.280  1.00  0.00    -0.562 OA 
HETATM   28  C   UNL     1     -10.376  19.180  66.372  1.00  0.00    -0.536 A  
HETATM   29  C   UNL     1     -10.047  19.908  67.515  1.00  0.00    -0.566 A  
HETATM   30  C   UNL     1      -9.879  19.244  68.724  1.00  0.00    -0.447 A  
HETATM   31  F   UNL     1      -9.565  19.941  69.824  1.00  0.00    -0.290 F  
HETATM   32  C   UNL     1     -10.038  17.866  68.813  1.00  0.00    -0.384 A  
ENDBRANCH  19  22
ENDBRANCH  18  19
ENDBRANCH  16  18
ENDBRANCH  15  16
ENDBRANCH   2  15
TORSDOF 6
ENDMDL
MODEL       83
REMARK 921   NORMALIZED FREE ENERGY PREDICTED BY IDOCK:   -6.60 KCAL/MOL
REMARK 922        TOTAL FREE ENERGY PREDICTED BY IDOCK:  -10.10 KCAL/MOL
REMARK 923 INTER-LIGAND FREE ENERGY PREDICTED BY IDOCK:   -9.03 KCAL/MOL
REMARK 924 INTRA-LIGAND FREE ENERGY PREDICTED BY IDOCK:   -1.07 KCAL/MOL
REMARK 927      BINDING AFFINITY PREDICTED BY RF-SCORE:    0.00 PKD
ROOT
HETATM    1  O   UNL     1     -10.401  16.552  65.667  1.00  0.00    -0.438 OA 
HETATM    2  C   UNL     1     -10.861  15.398  66.385  1.00  0.00    -0.303 C  
HETATM    3  H   UNL     1     -11.070  17.226  65.684  1.00  0.00     0.000 HD 
ENDROOT
BRANCH   2   4
HETATM    4  C   UNL     1     -11.259  15.803  67.823  1.00  0.00    -0.286 C  
HETATM    5  C   UNL     1     -12.580  14.910  72.548  1.00  0.00    -0.357 A  
HETATM    6  C   UNL     1     -13.157  13.905  71.783  1.00  0.00    -0.458 A  
HETATM    7  C   UNL     1     -10.075  16.346  68.630  1.00  0.00    -0.244 C  
HETATM    8  C   UNL     1     -10.581  16.841  69.973  1.00  0.00    -0.028 C  
HETATM    9  F   UNL     1     -12.822  14.960  73.865  1.00  0.00    -0.580 F  
HETATM   10  C   UNL     1     -12.898  13.855  70.411  1.00  0.00    -0.200 A  
HETATM   11  O   UNL     1     -11.857  14.667  68.474  1.00  0.00    -0.325 OA 
HETATM   12  C   UNL     1     -11.479  15.813  70.596  1.00  0.00    -0.415 A  
HETATM   13  C   UNL     1     -12.072  14.810  69.818  1.00  0.00    -0.319 A  
HETATM   14  C   UNL     1     -11.749  15.865  71.971  1.00  0.00    -0.588 A  
ENDBRANCH   2   4
BRANCH   2  15
HETATM   15  C   UNL     1      -9.775  14.304  66.356  1.00  0.00    -0.299 C  
BRANCH  15  16
HETATM   16  N   UNL     1     -10.350  12.948  66.421  1.00  0.00    -0.263 NA 
HETATM   17  H   UNL     1     -10.253  12.444  65.540  1.00  0.00     0.000 HD 
BRANCH  16  18
HETATM   18  C   UNL     1      -9.750  12.220  67.552  1.00  0.00    -0.190 C  
BRANCH  18  19
HETATM   19  C   UNL     1     -10.829  11.547  68.424  1.00  0.00    -0.211 C  
HETATM   20  H   UNL     1     -12.689  10.966  68.176  1.00  0.00     0.000 HD 
HETATM   21  O   UNL     1     -12.024  11.381  67.639  1.00  0.00    -0.630 OA 
BRANCH  19  22
HETATM   22  C   UNL     1     -10.382  10.170  68.968  1.00  0.00    -0.212 C  
HETATM   23  C   UNL     1     -10.161   7.735  68.547  1.00  0.00    -0.216 C  
HETATM   24  C   UNL     1     -10.724   9.036  68.001  1.00  0.00    -0.184 C  
HETATM   25  C   UNL     1     -10.526   7.589  69.994  1.00  0.00    -0.231 A  
HETATM   26  C   UNL     1     -10.910   8.699  70.759  1.00  0.00    -0.230 A  
HETATM   27  O   UNL     1     -11.010   9.969  70.252  1.00  0.00    -0.271 OA 
HETATM   28  C   UNL     1     -11.260   8.545  72.103  1.00  0.00    -0.432 A  
HETATM   29  C   UNL     1     -11.209   7.285  72.698  1.00  0.00    -0.355 A  
HETATM   30  C   UNL     1     -10.812   6.188  71.942  1.00  0.00    -0.249 A  
HETATM   31  F   UNL     1     -10.764   4.976  72.510  1.00  0.00    -0.242 F  
HETATM   32  C   UNL     1     -10.468   6.328  70.602  1.00  0.00    -0.276 A  
ENDBRANCH  19  22
ENDBRANCH  18  19
ENDBRANCH  16  18
ENDBRANCH  15  16
ENDBRANCH   2  15
TORSDOF 6
ENDMDL
MODEL       84
REMARK 921   NORMALIZED FREE ENERGY PREDICTED BY IDOCK:   -6.59 KCAL/MOL
REMARK 922        TOTAL FREE ENERGY PREDICTED BY IDOCK:  -10.08 KCAL/MOL
REMARK 923 INTER-LIGAND FREE ENERGY PREDICTED BY IDOCK:   -9.55 KCAL/MOL
REMARK 924 INTRA-LIGAND FREE ENERGY PREDICTED BY IDOCK:   -0.53 KCAL/MOL
REMARK 927      BINDING AFFINITY PREDICTED BY RF-SCORE:    0.00 PKD
ROOT
HETATM    1  O   UNL     1     -13.987   8.993  73.290  1.00  0.00    -1.205 OA 
HETATM    2  C   UNL     1     -13.457   9.220  71.976  1.00  0.00    -0.451 C  
HETATM    3  H   UNL     1     -14.219   8.078  73.386  1.00  0.00     0.000 HD 
ENDROOT
BRANCH   2   4
HETATM    4  C   UNL     1     -12.259   8.275  71.726  1.00  0.00    -0.326 C  
HETATM    5  C   UNL     1      -8.868   4.863  73.037  1.00  0.00    -0.113 A  
HETATM    6  C   UNL     1      -9.068   5.666  74.153  1.00  0.00    -0.122 A  
HETATM    7  C   UNL     1     -12.640   7.055  70.881  1.00  0.00    -0.273 C  
HETATM    8  C   UNL     1     -11.383   6.259  70.574  1.00  0.00    -0.428 C  
HETATM    9  F   UNL     1      -7.948   3.888  73.081  1.00  0.00    -0.079 F  
HETATM   10  C   UNL     1     -10.030   6.678  74.105  1.00  0.00    -0.361 A  
HETATM   11  O   UNL     1     -11.711   7.879  72.996  1.00  0.00    -0.305 OA 
HETATM   12  C   UNL     1     -10.581   6.059  71.825  1.00  0.00    -0.277 A  
HETATM   13  C   UNL     1     -10.775   6.881  72.943  1.00  0.00    -0.277 A  
HETATM   14  C   UNL     1      -9.609   5.050  71.876  1.00  0.00    -0.199 A  
ENDBRANCH   2   4
BRANCH   2  15
HETATM   15  C   UNL     1     -13.080  10.708  71.820  1.00  0.00    -0.466 C  
BRANCH  15  16
HETATM   16  N   UNL     1     -11.948  10.900  70.896  1.00  0.00    -0.329 NA 
HETATM   17  H   UNL     1     -11.504  10.019  70.640  1.00  0.00     0.000 HD 
BRANCH  16  18
HETATM   18  C   UNL     1     -12.407  11.659  69.719  1.00  0.00    -0.133 C  
BRANCH  18  19
HETATM   19  C   UNL     1     -11.352  11.643  68.594  1.00  0.00    -0.267 C  
HETATM   20  H   UNL     1     -10.907  10.460  67.090  1.00  0.00     0.000 HD 
HETATM   21  O   UNL     1     -11.557  10.470  67.783  1.00  0.00    -0.462 OA 
BRANCH  19  22
HETATM   22  C   UNL     1     -11.419  12.901  67.696  1.00  0.00    -0.334 C  
HETATM   23  C   UNL     1     -10.651  14.023  65.622  1.00  0.00    -0.313 C  
HETATM   24  C   UNL     1     -10.453  12.810  66.514  1.00  0.00    -0.276 C  
HETATM   25  C   UNL     1     -10.664  15.271  66.453  1.00  0.00    -0.318 A  
HETATM   26  C   UNL     1     -10.916  15.219  67.831  1.00  0.00    -0.306 A  
HETATM   27  O   UNL     1     -11.133  14.053  68.518  1.00  0.00    -0.238 OA 
HETATM   28  C   UNL     1     -10.912  16.390  68.595  1.00  0.00    -0.345 A  
HETATM   29  C   UNL     1     -10.678  17.622  67.984  1.00  0.00    -0.333 A  
HETATM   30  C   UNL     1     -10.446  17.672  66.615  1.00  0.00    -0.286 A  
HETATM   31  F   UNL     1     -10.219  18.853  66.025  1.00  0.00    -0.392 F  
HETATM   32  C   UNL     1     -10.439  16.514  65.846  1.00  0.00    -0.335 A  
ENDBRANCH  19  22
ENDBRANCH  18  19
ENDBRANCH  16  18
ENDBRANCH  15  16
ENDBRANCH   2  15
TORSDOF 6
ENDMDL
MODEL       85
REMARK 921   NORMALIZED FREE ENERGY PREDICTED BY IDOCK:   -6.58 KCAL/MOL
REMARK 922        TOTAL FREE ENERGY PREDICTED BY IDOCK:  -10.08 KCAL/MOL
REMARK 923 INTER-LIGAND FREE ENERGY PREDICTED BY IDOCK:   -8.80 KCAL/MOL
REMARK 924 INTRA-LIGAND FREE ENERGY PREDICTED BY IDOCK:   -1.28 KCAL/MOL
REMARK 927      BINDING AFFINITY PREDICTED BY RF-SCORE:    0.00 PKD
ROOT
HETATM    1  O   UNL     1     -13.173  13.054  64.967  1.00  0.00    -0.739 OA 
HETATM    2  C   UNL     1     -11.907  13.727  64.925  1.00  0.00    -0.375 C  
HETATM    3  H   UNL     1     -13.286  12.539  64.177  1.00  0.00     0.000 HD 
ENDROOT
BRANCH   2   4
HETATM    4  C   UNL     1     -10.773  12.696  64.721  1.00  0.00    -0.308 C  
HETATM    5  C   UNL     1      -8.684   8.181  65.055  1.00  0.00     0.032 A  
HETATM    6  C   UNL     1      -9.466   8.336  66.192  1.00  0.00    -0.241 A  
HETATM    7  C   UNL     1     -10.625  12.266  63.258  1.00  0.00    -0.312 C  
HETATM    8  C   UNL     1      -9.411  11.362  63.132  1.00  0.00    -0.361 C  
HETATM    9  F   UNL     1      -7.944   7.072  64.907  1.00  0.00    -0.105 F  
HETATM   10  C   UNL     1     -10.237   9.491  66.340  1.00  0.00    -0.302 A  
HETATM   11  O   UNL     1     -11.020  11.564  65.575  1.00  0.00    -0.284 OA 
HETATM   12  C   UNL     1      -9.437  10.312  64.203  1.00  0.00    -0.358 A  
HETATM   13  C   UNL     1     -10.215  10.479  65.356  1.00  0.00    -0.270 A  
HETATM   14  C   UNL     1      -8.658   9.155  64.063  1.00  0.00    -0.186 A  
ENDBRANCH   2   4
BRANCH   2  15
HETATM   15  C   UNL     1     -11.723  14.564  66.207  1.00  0.00    -0.358 C  
BRANCH  15  16
HETATM   16  N   UNL     1     -12.179  13.844  67.410  1.00  0.00    -0.491 NA 
HETATM   17  H   UNL     1     -12.758  13.037  67.181  1.00  0.00     0.000 HD 
BRANCH  16  18
HETATM   18  C   UNL     1     -11.009  13.481  68.230  1.00  0.00    -0.258 C  
BRANCH  18  19
HETATM   19  C   UNL     1     -11.411  13.208  69.693  1.00  0.00    -0.191 C  
HETATM   20  H   UNL     1     -12.772  13.887  70.937  1.00  0.00     0.000 HD 
HETATM   21  O   UNL     1     -12.524  14.055  70.035  1.00  0.00    -0.335 OA 
BRANCH  19  22
HETATM   22  C   UNL     1     -11.801  11.731  69.939  1.00  0.00    -0.348 C  
HETATM   23  C   UNL     1     -13.020  10.108  71.364  1.00  0.00    -0.528 C  
HETATM   24  C   UNL     1     -12.578  11.556  71.243  1.00  0.00    -0.452 C  
HETATM   25  C   UNL     1     -11.863   9.196  71.081  1.00  0.00    -0.374 A  
HETATM   26  C   UNL     1     -10.737   9.653  70.382  1.00  0.00    -0.298 A  
HETATM   27  O   UNL     1     -10.591  10.943  69.940  1.00  0.00    -0.158 OA 
HETATM   28  C   UNL     1      -9.661   8.796  70.137  1.00  0.00    -0.188 A  
HETATM   29  C   UNL     1      -9.712   7.471  70.570  1.00  0.00    -0.179 A  
HETATM   30  C   UNL     1     -10.836   7.016  71.247  1.00  0.00    -0.235 A  
HETATM   31  F   UNL     1     -10.887   5.744  71.666  1.00  0.00    -0.277 F  
HETATM   32  C   UNL     1     -11.910   7.861  71.503  1.00  0.00    -0.322 A  
ENDBRANCH  19  22
ENDBRANCH  18  19
ENDBRANCH  16  18
ENDBRANCH  15  16
ENDBRANCH   2  15
TORSDOF 6
ENDMDL
MODEL       86
REMARK 921   NORMALIZED FREE ENERGY PREDICTED BY IDOCK:   -6.57 KCAL/MOL
REMARK 922        TOTAL FREE ENERGY PREDICTED BY IDOCK:  -10.07 KCAL/MOL
REMARK 923 INTER-LIGAND FREE ENERGY PREDICTED BY IDOCK:   -8.44 KCAL/MOL
REMARK 924 INTRA-LIGAND FREE ENERGY PREDICTED BY IDOCK:   -1.62 KCAL/MOL
REMARK 927      BINDING AFFINITY PREDICTED BY RF-SCORE:    0.00 PKD
ROOT
HETATM    1  O   UNL     1      -9.112   8.168  68.613  1.00  0.00    -0.143 OA 
HETATM    2  C   UNL     1      -9.320   9.585  68.529  1.00  0.00    -0.137 C  
HETATM    3  H   UNL     1      -9.932   7.715  68.455  1.00  0.00     0.000 HD 
ENDROOT
BRANCH   2   4
HETATM    4  C   UNL     1      -9.940   9.941  67.158  1.00  0.00    -0.200 C  
HETATM    5  C   UNL     1     -12.019  13.005  63.819  1.00  0.00    -0.518 A  
HETATM    6  C   UNL     1     -12.477  13.413  65.065  1.00  0.00    -0.479 A  
HETATM    7  C   UNL     1      -8.895  10.006  66.040  1.00  0.00    -0.164 C  
HETATM    8  C   UNL     1      -9.606  10.226  64.716  1.00  0.00    -0.369 C  
HETATM    9  F   UNL     1     -12.471  13.617  62.715  1.00  0.00    -0.397 F  
HETATM   10  C   UNL     1     -12.001  12.776  66.213  1.00  0.00    -0.460 A  
HETATM   11  O   UNL     1     -10.649  11.187  67.283  1.00  0.00    -0.213 OA 
HETATM   12  C   UNL     1     -10.606  11.337  64.847  1.00  0.00    -0.364 A  
HETATM   13  C   UNL     1     -11.078  11.736  66.104  1.00  0.00    -0.307 A  
HETATM   14  C   UNL     1     -11.094  11.974  63.697  1.00  0.00    -0.525 A  
ENDBRANCH   2   4
BRANCH   2  15
HETATM   15  C   UNL     1      -7.988  10.319  68.786  1.00  0.00    -0.113 C  
BRANCH  15  16
HETATM   16  N   UNL     1      -8.196  11.712  69.219  1.00  0.00    -0.338 NA 
HETATM   17  H   UNL     1      -7.984  11.846  70.208  1.00  0.00     0.000 HD 
BRANCH  16  18
HETATM   18  C   UNL     1      -7.414  12.612  68.352  1.00  0.00    -0.127 C  
BRANCH  18  19
HETATM   19  C   UNL     1      -7.425  14.057  68.888  1.00  0.00    -0.095 C  
HETATM   20  H   UNL     1      -6.137  15.537  68.991  1.00  0.00     0.000 HD 
HETATM   21  O   UNL     1      -6.131  14.647  68.661  1.00  0.00    -0.082 OA 
BRANCH  19  22
HETATM   22  C   UNL     1      -8.508  14.934  68.216  1.00  0.00    -0.151 C  
HETATM   23  C   UNL     1      -9.727  15.507  66.134  1.00  0.00    -0.348 C  
HETATM   24  C   UNL     1      -8.576  14.701  66.707  1.00  0.00    -0.195 C  
HETATM   25  C   UNL     1      -9.669  16.915  66.648  1.00  0.00    -0.283 A  
HETATM   26  C   UNL     1      -8.942  17.234  67.803  1.00  0.00    -0.234 A  
HETATM   27  O   UNL     1      -8.218  16.316  68.519  1.00  0.00    -0.176 OA 
HETATM   28  C   UNL     1      -8.886  18.552  68.262  1.00  0.00    -0.332 A  
HETATM   29  C   UNL     1      -9.574  19.558  67.584  1.00  0.00    -0.436 A  
HETATM   30  C   UNL     1     -10.308  19.237  66.449  1.00  0.00    -0.471 A  
HETATM   31  F   UNL     1     -10.969  20.201  65.793  1.00  0.00    -0.470 F  
HETATM   32  C   UNL     1     -10.365  17.930  65.978  1.00  0.00    -0.318 A  
ENDBRANCH  19  22
ENDBRANCH  18  19
ENDBRANCH  16  18
ENDBRANCH  15  16
ENDBRANCH   2  15
TORSDOF 6
ENDMDL
MODEL       87
REMARK 921   NORMALIZED FREE ENERGY PREDICTED BY IDOCK:   -6.56 KCAL/MOL
REMARK 922        TOTAL FREE ENERGY PREDICTED BY IDOCK:  -10.04 KCAL/MOL
REMARK 923 INTER-LIGAND FREE ENERGY PREDICTED BY IDOCK:   -9.20 KCAL/MOL
REMARK 924 INTRA-LIGAND FREE ENERGY PREDICTED BY IDOCK:   -0.85 KCAL/MOL
REMARK 927      BINDING AFFINITY PREDICTED BY RF-SCORE:    0.00 PKD
ROOT
HETATM    1  O   UNL     1      -9.895  16.620  65.754  1.00  0.00    -0.482 OA 
HETATM    2  C   UNL     1     -10.474  15.458  66.364  1.00  0.00    -0.303 C  
HETATM    3  H   UNL     1     -10.545  17.311  65.703  1.00  0.00     0.000 HD 
ENDROOT
BRANCH   2   4
HETATM    4  C   UNL     1     -11.057  15.830  67.747  1.00  0.00    -0.313 C  
HETATM    5  C   UNL     1     -12.505  14.881  72.423  1.00  0.00    -0.343 A  
HETATM    6  C   UNL     1     -12.792  13.740  71.685  1.00  0.00    -0.438 A  
HETATM    7  C   UNL     1     -10.083  16.655  68.593  1.00  0.00    -0.270 C  
HETATM    8  C   UNL     1     -10.784  17.086  69.869  1.00  0.00     0.098 C  
HETATM    9  F   UNL     1     -12.852  14.935  73.717  1.00  0.00    -0.569 F  
HETATM   10  C   UNL     1     -12.426  13.686  70.338  1.00  0.00    -0.364 A  
HETATM   11  O   UNL     1     -11.442  14.620  68.425  1.00  0.00    -0.282 OA 
HETATM   12  C   UNL     1     -11.483  15.915  70.494  1.00  0.00    -0.412 A  
HETATM   13  C   UNL     1     -11.784  14.772  69.743  1.00  0.00    -0.310 A  
HETATM   14  C   UNL     1     -11.860  15.968  71.844  1.00  0.00    -0.619 A  
ENDBRANCH   2   4
BRANCH   2  15
HETATM   15  C   UNL     1      -9.418  14.337  66.448  1.00  0.00    -0.275 C  
BRANCH  15  16
HETATM   16  N   UNL     1      -9.688  13.247  65.492  1.00  0.00    -0.491 NA 
HETATM   17  H   UNL     1      -8.981  13.192  64.759  1.00  0.00     0.000 HD 
BRANCH  16  18
HETATM   18  C   UNL     1      -9.829  11.980  66.230  1.00  0.00    -0.231 C  
BRANCH  18  19
HETATM   19  C   UNL     1     -11.105  11.973  67.096  1.00  0.00    -0.290 C  
HETATM   20  H   UNL     1     -13.037  12.124  66.771  1.00  0.00     0.000 HD 
HETATM   21  O   UNL     1     -12.251  12.128  66.238  1.00  0.00    -0.604 OA 
BRANCH  19  22
HETATM   22  C   UNL     1     -11.260  10.673  67.920  1.00  0.00    -0.308 C  
HETATM   23  C   UNL     1     -10.747   9.470  70.027  1.00  0.00    -0.278 C  
HETATM   24  C   UNL     1     -10.462  10.726  69.224  1.00  0.00    -0.243 C  
HETATM   25  C   UNL     1     -10.618   8.261  69.148  1.00  0.00    -0.179 A  
HETATM   26  C   UNL     1     -10.686   8.373  67.752  1.00  0.00    -0.095 A  
HETATM   27  O   UNL     1     -10.838   9.566  67.094  1.00  0.00    -0.224 OA 
HETATM   28  C   UNL     1     -10.552   7.240  66.945  1.00  0.00    -0.375 A  
HETATM   29  C   UNL     1     -10.371   5.986  67.527  1.00  0.00    -0.262 A  
HETATM   30  C   UNL     1     -10.321   5.875  68.911  1.00  0.00    -0.228 A  
HETATM   31  F   UNL     1     -10.145   4.672  69.473  1.00  0.00    -0.273 F  
HETATM   32  C   UNL     1     -10.446   6.996  69.724  1.00  0.00    -0.235 A  
ENDBRANCH  19  22
ENDBRANCH  18  19
ENDBRANCH  16  18
ENDBRANCH  15  16
ENDBRANCH   2  15
TORSDOF 6
ENDMDL
MODEL       88
REMARK 921   NORMALIZED FREE ENERGY PREDICTED BY IDOCK:   -6.55 KCAL/MOL
REMARK 922        TOTAL FREE ENERGY PREDICTED BY IDOCK:  -10.04 KCAL/MOL
REMARK 923 INTER-LIGAND FREE ENERGY PREDICTED BY IDOCK:   -8.53 KCAL/MOL
REMARK 924 INTRA-LIGAND FREE ENERGY PREDICTED BY IDOCK:   -1.51 KCAL/MOL
REMARK 927      BINDING AFFINITY PREDICTED BY RF-SCORE:    0.00 PKD
ROOT
HETATM    1  O   UNL     1      -9.317   6.375  65.783  1.00  0.00    -0.368 OA 
HETATM    2  C   UNL     1      -8.623   7.205  66.725  1.00  0.00    -0.124 C  
HETATM    3  H   UNL     1      -9.387   5.492  66.126  1.00  0.00     0.000 HD 
ENDROOT
BRANCH   2   4
HETATM    4  C   UNL     1      -9.342   7.154  68.093  1.00  0.00    -0.129 C  
HETATM    5  C   UNL     1     -12.247   8.962  71.721  1.00  0.00    -0.359 A  
HETATM    6  C   UNL     1     -11.570  10.048  71.183  1.00  0.00    -0.460 A  
HETATM    7  C   UNL     1     -10.543   6.203  68.092  1.00  0.00    -0.328 C  
HETATM    8  C   UNL     1     -11.101   6.114  69.501  1.00  0.00    -0.490 C  
HETATM    9  F   UNL     1     -13.060   9.144  72.771  1.00  0.00    -0.475 F  
HETATM   10  C   UNL     1     -10.725   9.855  70.086  1.00  0.00    -0.361 A  
HETATM   11  O   UNL     1      -9.735   8.490  68.458  1.00  0.00    -0.157 OA 
HETATM   12  C   UNL     1     -11.259   7.489  70.080  1.00  0.00    -0.213 A  
HETATM   13  C   UNL     1     -10.563   8.580  69.545  1.00  0.00    -0.211 A  
HETATM   14  C   UNL     1     -12.099   7.687  71.186  1.00  0.00    -0.322 A  
ENDBRANCH   2   4
BRANCH   2  15
HETATM   15  C   UNL     1      -8.511   8.639  66.168  1.00  0.00    -0.133 C  
BRANCH  15  16
HETATM   16  N   UNL     1      -9.606   8.959  65.234  1.00  0.00    -0.425 NA 
HETATM   17  H   UNL     1     -10.245   9.658  65.613  1.00  0.00     0.000 HD 
BRANCH  16  18
HETATM   18  C   UNL     1      -9.034   9.366  63.938  1.00  0.00    -0.126 C  
BRANCH  18  19
HETATM   19  C   UNL     1      -9.011  10.901  63.791  1.00  0.00    -0.113 C  
HETATM   20  H   UNL     1      -9.176  12.183  62.313  1.00  0.00     0.000 HD 
HETATM   21  O   UNL     1      -9.190  11.238  62.403  1.00  0.00    -0.304 OA 
BRANCH  19  22
HETATM   22  C   UNL     1     -10.109  11.596  64.630  1.00  0.00    -0.262 C  
HETATM   23  C   UNL     1     -11.896  13.314  64.707  1.00  0.00    -0.411 C  
HETATM   24  C   UNL     1     -10.761  12.752  63.871  1.00  0.00    -0.443 C  
HETATM   25  C   UNL     1     -11.428  13.543  66.114  1.00  0.00    -0.348 A  
HETATM   26  C   UNL     1     -10.288  12.898  66.611  1.00  0.00    -0.251 A  
HETATM   27  O   UNL     1      -9.510  12.052  65.862  1.00  0.00    -0.234 OA 
HETATM   28  C   UNL     1      -9.856  13.132  67.919  1.00  0.00    -0.231 A  
HETATM   29  C   UNL     1     -10.573  13.995  68.747  1.00  0.00    -0.260 A  
HETATM   30  C   UNL     1     -11.713  14.621  68.258  1.00  0.00    -0.328 A  
HETATM   31  F   UNL     1     -12.403  15.452  69.050  1.00  0.00    -0.290 F  
HETATM   32  C   UNL     1     -12.148  14.402  66.955  1.00  0.00    -0.374 A  
ENDBRANCH  19  22
ENDBRANCH  18  19
ENDBRANCH  16  18
ENDBRANCH  15  16
ENDBRANCH   2  15
TORSDOF 6
ENDMDL
MODEL       89
REMARK 921   NORMALIZED FREE ENERGY PREDICTED BY IDOCK:   -6.55 KCAL/MOL
REMARK 922        TOTAL FREE ENERGY PREDICTED BY IDOCK:  -10.03 KCAL/MOL
REMARK 923 INTER-LIGAND FREE ENERGY PREDICTED BY IDOCK:   -9.34 KCAL/MOL
REMARK 924 INTRA-LIGAND FREE ENERGY PREDICTED BY IDOCK:   -0.69 KCAL/MOL
REMARK 927      BINDING AFFINITY PREDICTED BY RF-SCORE:    0.00 PKD
ROOT
HETATM    1  O   UNL     1      -9.413  11.487  66.364  1.00  0.00    -0.200 OA 
HETATM    2  C   UNL     1      -9.996  11.663  67.663  1.00  0.00    -0.188 C  
HETATM    3  H   UNL     1      -8.540  11.123  66.453  1.00  0.00     0.000 HD 
ENDROOT
BRANCH   2   4
HETATM    4  C   UNL     1      -9.989  10.317  68.425  1.00  0.00    -0.157 C  
HETATM    5  C   UNL     1     -11.617   7.071  71.842  1.00  0.00    -0.284 A  
HETATM    6  C   UNL     1     -11.770   8.334  72.397  1.00  0.00    -0.463 A  
HETATM    7  C   UNL     1     -10.536   9.161  67.582  1.00  0.00    -0.323 C  
HETATM    8  C   UNL     1     -10.366   7.866  68.356  1.00  0.00    -0.235 C  
HETATM    9  F   UNL     1     -11.918   5.987  72.571  1.00  0.00    -0.328 F  
HETATM   10  C   UNL     1     -11.459   9.461  71.632  1.00  0.00    -0.463 A  
HETATM   11  O   UNL     1     -10.737  10.473  69.644  1.00  0.00    -0.237 OA 
HETATM   12  C   UNL     1     -10.856   8.038  69.763  1.00  0.00    -0.194 A  
HETATM   13  C   UNL     1     -10.994   9.314  70.325  1.00  0.00    -0.247 A  
HETATM   14  C   UNL     1     -11.161   6.910  70.538  1.00  0.00    -0.353 A  
ENDBRANCH   2   4
BRANCH   2  15
HETATM   15  C   UNL     1     -11.414  12.254  67.518  1.00  0.00    -0.347 C  
BRANCH  15  16
HETATM   16  N   UNL     1     -11.488  13.643  68.005  1.00  0.00    -0.291 NA 
HETATM   17  H   UNL     1     -10.587  13.986  68.335  1.00  0.00     0.000 HD 
BRANCH  16  18
HETATM   18  C   UNL     1     -12.060  14.496  66.948  1.00  0.00    -0.281 C  
BRANCH  18  19
HETATM   19  C   UNL     1     -11.179  14.491  65.683  1.00  0.00    -0.335 C  
HETATM   20  H   UNL     1     -11.485  14.585  63.745  1.00  0.00     0.000 HD 
HETATM   21  O   UNL     1     -12.028  14.589  64.524  1.00  0.00    -0.440 OA 
BRANCH  19  22
HETATM   22  C   UNL     1     -10.156  15.651  65.664  1.00  0.00    -0.365 C  
HETATM   23  C   UNL     1      -7.926  16.473  66.372  1.00  0.00    -0.352 C  
HETATM   24  C   UNL     1      -8.930  15.345  66.525  1.00  0.00    -0.344 C  
HETATM   25  C   UNL     1      -8.615  17.795  66.537  1.00  0.00    -0.283 A  
HETATM   26  C   UNL     1     -10.004  17.910  66.386  1.00  0.00    -0.358 A  
HETATM   27  O   UNL     1     -10.827  16.847  66.116  1.00  0.00    -0.159 OA 
HETATM   28  C   UNL     1     -10.634  19.146  66.556  1.00  0.00    -0.523 A  
HETATM   29  C   UNL     1      -9.878  20.280  66.855  1.00  0.00    -0.597 A  
HETATM   30  C   UNL     1      -8.500  20.167  66.986  1.00  0.00    -0.335 A  
HETATM   31  F   UNL     1      -7.771  21.253  67.276  1.00  0.00    -0.397 F  
HETATM   32  C   UNL     1      -7.863  18.941  66.828  1.00  0.00    -0.262 A  
ENDBRANCH  19  22
ENDBRANCH  18  19
ENDBRANCH  16  18
ENDBRANCH  15  16
ENDBRANCH   2  15
TORSDOF 6
ENDMDL
MODEL       90
REMARK 921   NORMALIZED FREE ENERGY PREDICTED BY IDOCK:   -6.52 KCAL/MOL
REMARK 922        TOTAL FREE ENERGY PREDICTED BY IDOCK:  -10.00 KCAL/MOL
REMARK 923 INTER-LIGAND FREE ENERGY PREDICTED BY IDOCK:   -9.06 KCAL/MOL
REMARK 924 INTRA-LIGAND FREE ENERGY PREDICTED BY IDOCK:   -0.94 KCAL/MOL
REMARK 927      BINDING AFFINITY PREDICTED BY RF-SCORE:    0.00 PKD
ROOT
HETATM    1  O   UNL     1     -10.909  14.470  69.696  1.00  0.00    -0.348 OA 
HETATM    2  C   UNL     1     -10.461  15.178  68.532  1.00  0.00    -0.233 C  
HETATM    3  H   UNL     1     -10.178  14.330  70.285  1.00  0.00     0.000 HD 
ENDROOT
BRANCH   2   4
HETATM    4  C   UNL     1      -9.778  16.499  68.955  1.00  0.00    -0.258 C  
HETATM    5  C   UNL     1      -5.990  19.735  69.183  1.00  0.00    -0.264 A  
HETATM    6  C   UNL     1      -5.425  18.467  69.206  1.00  0.00    -0.211 A  
HETATM    7  C   UNL     1     -10.298  17.708  68.172  1.00  0.00    -0.386 C  
HETATM    8  C   UNL     1      -9.674  18.969  68.743  1.00  0.00    -0.473 C  
HETATM    9  F   UNL     1      -5.202  20.813  69.299  1.00  0.00    -0.261 F  
HETATM   10  C   UNL     1      -6.250  17.346  69.081  1.00  0.00    -0.228 A  
HETATM   11  O   UNL     1      -8.354  16.351  68.802  1.00  0.00    -0.218 OA 
HETATM   12  C   UNL     1      -8.194  18.785  68.903  1.00  0.00    -0.255 A  
HETATM   13  C   UNL     1      -7.629  17.504  68.941  1.00  0.00    -0.225 A  
HETATM   14  C   UNL     1      -7.363  19.906  69.037  1.00  0.00    -0.242 A  
ENDBRANCH   2   4
BRANCH   2  15
HETATM   15  C   UNL     1     -11.650  15.407  67.576  1.00  0.00    -0.169 C  
BRANCH  15  16
HETATM   16  N   UNL     1     -12.312  14.144  67.201  1.00  0.00    -0.572 NA 
HETATM   17  H   UNL     1     -13.311  14.266  67.035  1.00  0.00     0.000 HD 
BRANCH  16  18
HETATM   18  C   UNL     1     -11.618  13.560  66.040  1.00  0.00    -0.338 C  
BRANCH  18  19
HETATM   19  C   UNL     1     -11.639  12.019  66.090  1.00  0.00    -0.304 C  
HETATM   20  H   UNL     1     -10.910  10.557  64.999  1.00  0.00     0.000 HD 
HETATM   21  O   UNL     1     -10.897  11.507  64.967  1.00  0.00    -0.296 OA 
BRANCH  19  22
HETATM   22  C   UNL     1     -11.034  11.457  67.399  1.00  0.00    -0.273 C  
HETATM   23  C   UNL     1      -9.599   9.734  68.459  1.00  0.00    -0.155 C  
HETATM   24  C   UNL     1     -10.252  10.165  67.158  1.00  0.00    -0.278 C  
HETATM   25  C   UNL     1     -10.603   9.777  69.572  1.00  0.00    -0.253 A  
HETATM   26  C   UNL     1     -11.778  10.533  69.458  1.00  0.00    -0.241 A  
HETATM   27  O   UNL     1     -12.111  11.249  68.337  1.00  0.00    -0.598 OA 
HETATM   28  C   UNL     1     -12.710  10.553  70.499  1.00  0.00    -0.385 A  
HETATM   29  C   UNL     1     -12.465   9.835  71.669  1.00  0.00    -0.500 A  
HETATM   30  C   UNL     1     -11.292   9.100  71.787  1.00  0.00    -0.381 A  
HETATM   31  F   UNL     1     -11.055   8.408  72.910  1.00  0.00    -0.407 F  
HETATM   32  C   UNL     1     -10.360   9.067  70.756  1.00  0.00    -0.305 A  
ENDBRANCH  19  22
ENDBRANCH  18  19
ENDBRANCH  16  18
ENDBRANCH  15  16
ENDBRANCH   2  15
TORSDOF 6
ENDMDL
MODEL       91
REMARK 921   NORMALIZED FREE ENERGY PREDICTED BY IDOCK:   -6.51 KCAL/MOL
REMARK 922        TOTAL FREE ENERGY PREDICTED BY IDOCK:   -9.98 KCAL/MOL
REMARK 923 INTER-LIGAND FREE ENERGY PREDICTED BY IDOCK:   -7.20 KCAL/MOL
REMARK 924 INTRA-LIGAND FREE ENERGY PREDICTED BY IDOCK:   -2.78 KCAL/MOL
REMARK 927      BINDING AFFINITY PREDICTED BY RF-SCORE:    0.00 PKD
ROOT
HETATM    1  O   UNL     1      -8.264  12.506  66.931  1.00  0.00    -0.310 OA 
HETATM    2  C   UNL     1      -9.673  12.478  66.662  1.00  0.00    -0.242 C  
HETATM    3  H   UNL     1      -8.117  12.731  67.842  1.00  0.00     0.000 HD 
ENDROOT
BRANCH   2   4
HETATM    4  C   UNL     1     -10.371  11.501  67.635  1.00  0.00    -0.186 C  
HETATM    5  C   UNL     1     -10.776   8.870  71.852  1.00  0.00    -0.356 A  
HETATM    6  C   UNL     1      -9.424   8.895  71.534  1.00  0.00    -0.347 A  
HETATM    7  C   UNL     1     -11.585  12.127  68.328  1.00  0.00    -0.382 C  
HETATM    8  C   UNL     1     -12.283  11.062  69.155  1.00  0.00    -0.229 C  
HETATM    9  F   UNL     1     -11.191   8.169  72.916  1.00  0.00    -0.420 F  
HETATM   10  C   UNL     1      -8.995   9.630  70.426  1.00  0.00    -0.239 A  
HETATM   11  O   UNL     1      -9.404  11.037  68.595  1.00  0.00    -0.183 OA 
HETATM   12  C   UNL     1     -11.280  10.311  69.980  1.00  0.00    -0.376 A  
HETATM   13  C   UNL     1      -9.919  10.326  69.646  1.00  0.00    -0.207 A  
HETATM   14  C   UNL     1     -11.706   9.565  71.087  1.00  0.00    -0.438 A  
ENDBRANCH   2   4
BRANCH   2  15
HETATM   15  C   UNL     1      -9.910  12.112  65.183  1.00  0.00    -0.180 C  
BRANCH  15  16
HETATM   16  N   UNL     1      -8.843  11.249  64.646  1.00  0.00    -0.381 NA 
HETATM   17  H   UNL     1      -7.961  11.371  65.142  1.00  0.00     0.000 HD 
BRANCH  16  18
HETATM   18  C   UNL     1      -9.302   9.849  64.654  1.00  0.00    -0.277 C  
BRANCH  18  19
HETATM   19  C   UNL     1      -8.298   8.933  65.383  1.00  0.00    -0.148 C  
HETATM   20  H   UNL     1      -6.819   9.181  66.652  1.00  0.00     0.000 HD 
HETATM   21  O   UNL     1      -7.438   9.746  66.203  1.00  0.00    -0.097 OA 
BRANCH  19  22
HETATM   22  C   UNL     1      -8.993   7.872  66.269  1.00  0.00    -0.171 C  
HETATM   23  C   UNL     1     -11.030   7.217  67.523  1.00  0.00    -0.261 C  
HETATM   24  C   UNL     1     -10.364   8.344  66.755  1.00  0.00    -0.357 C  
HETATM   25  C   UNL     1     -10.068   6.638  68.517  1.00  0.00    -0.166 A  
HETATM   26  C   UNL     1      -8.686   6.832  68.384  1.00  0.00    -0.123 A  
HETATM   27  O   UNL     1      -8.119   7.573  67.379  1.00  0.00    -0.113 OA 
HETATM   28  C   UNL     1      -7.803   6.298  69.326  1.00  0.00    -0.105 A  
HETATM   29  C   UNL     1      -8.292   5.549  70.396  1.00  0.00    -0.111 A  
HETATM   30  C   UNL     1      -9.661   5.344  70.517  1.00  0.00    -0.175 A  
HETATM   31  F   UNL     1     -10.134   4.626  71.544  1.00  0.00    -0.234 F  
HETATM   32  C   UNL     1     -10.550   5.876  69.590  1.00  0.00    -0.383 A  
ENDBRANCH  19  22
ENDBRANCH  18  19
ENDBRANCH  16  18
ENDBRANCH  15  16
ENDBRANCH   2  15
TORSDOF 6
ENDMDL
MODEL       92
REMARK 921   NORMALIZED FREE ENERGY PREDICTED BY IDOCK:   -6.50 KCAL/MOL
REMARK 922        TOTAL FREE ENERGY PREDICTED BY IDOCK:   -9.97 KCAL/MOL
REMARK 923 INTER-LIGAND FREE ENERGY PREDICTED BY IDOCK:   -9.21 KCAL/MOL
REMARK 924 INTRA-LIGAND FREE ENERGY PREDICTED BY IDOCK:   -0.76 KCAL/MOL
REMARK 927      BINDING AFFINITY PREDICTED BY RF-SCORE:    0.00 PKD
ROOT
HETATM    1  O   UNL     1      -7.751  11.682  66.837  1.00  0.00    -0.154 OA 
HETATM    2  C   UNL     1      -9.170  11.555  66.670  1.00  0.00    -0.186 C  
HETATM    3  H   UNL     1      -7.561  12.020  67.704  1.00  0.00     0.000 HD 
ENDROOT
BRANCH   2   4
HETATM    4  C   UNL     1      -9.751  10.666  67.794  1.00  0.00    -0.161 C  
HETATM    5  C   UNL     1      -9.745   8.531  72.300  1.00  0.00    -0.310 A  
HETATM    6  C   UNL     1      -8.420   8.584  71.889  1.00  0.00    -0.234 A  
HETATM    7  C   UNL     1     -10.953  11.310  68.491  1.00  0.00    -0.266 C  
HETATM    8  C   UNL     1     -11.537  10.316  69.480  1.00  0.00    -0.234 C  
HETATM    9  F   UNL     1     -10.054   7.940  73.463  1.00  0.00    -0.373 F  
HETATM   10  C   UNL     1      -8.102   9.204  70.678  1.00  0.00    -0.198 A  
HETATM   11  O   UNL     1      -8.702  10.365  68.732  1.00  0.00    -0.129 OA 
HETATM   12  C   UNL     1     -10.444   9.716  70.314  1.00  0.00    -0.338 A  
HETATM   13  C   UNL     1      -9.110   9.758  69.890  1.00  0.00    -0.229 A  
HETATM   14  C   UNL     1     -10.759   9.085  71.526  1.00  0.00    -0.421 A  
ENDBRANCH   2   4
BRANCH   2  15
HETATM   15  C   UNL     1      -9.478  11.007  65.261  1.00  0.00    -0.223 C  
BRANCH  15  16
HETATM   16  N   UNL     1      -9.628  12.084  64.266  1.00  0.00    -0.485 NA 
HETATM   17  H   UNL     1      -8.862  12.097  63.593  1.00  0.00     0.000 HD 
BRANCH  16  18
HETATM   18  C   UNL     1     -10.944  11.963  63.615  1.00  0.00    -0.440 C  
BRANCH  18  19
HETATM   19  C   UNL     1     -11.903  13.080  64.074  1.00  0.00    -0.445 C  
HETATM   20  H   UNL     1     -13.773  13.184  64.666  1.00  0.00     0.000 HD 
HETATM   21  O   UNL     1     -13.182  12.496  64.384  1.00  0.00    -0.782 OA 
BRANCH  19  22
HETATM   22  C   UNL     1     -11.378  13.843  65.313  1.00  0.00    -0.314 C  
HETATM   23  C   UNL     1     -11.785  14.534  67.660  1.00  0.00    -0.410 C  
HETATM   24  C   UNL     1     -12.405  13.868  66.445  1.00  0.00    -0.468 C  
HETATM   25  C   UNL     1     -11.121  15.817  67.255  1.00  0.00    -0.211 A  
HETATM   26  C   UNL     1     -10.769  16.059  65.920  1.00  0.00    -0.280 A  
HETATM   27  O   UNL     1     -11.025  15.181  64.898  1.00  0.00    -0.396 OA 
HETATM   28  C   UNL     1     -10.164  17.264  65.556  1.00  0.00    -0.041 A  
HETATM   29  C   UNL     1      -9.886  18.228  66.525  1.00  0.00    -0.363 A  
HETATM   30  C   UNL     1     -10.221  17.979  67.851  1.00  0.00    -0.378 A  
HETATM   31  F   UNL     1      -9.957  18.903  68.785  1.00  0.00    -0.379 F  
HETATM   32  C   UNL     1     -10.830  16.786  68.224  1.00  0.00    -0.366 A  
ENDBRANCH  19  22
ENDBRANCH  18  19
ENDBRANCH  16  18
ENDBRANCH  15  16
ENDBRANCH   2  15
TORSDOF 6
ENDMDL
MODEL       93
REMARK 921   NORMALIZED FREE ENERGY PREDICTED BY IDOCK:   -6.49 KCAL/MOL
REMARK 922        TOTAL FREE ENERGY PREDICTED BY IDOCK:   -9.95 KCAL/MOL
REMARK 923 INTER-LIGAND FREE ENERGY PREDICTED BY IDOCK:   -8.39 KCAL/MOL
REMARK 924 INTRA-LIGAND FREE ENERGY PREDICTED BY IDOCK:   -1.56 KCAL/MOL
REMARK 927      BINDING AFFINITY PREDICTED BY RF-SCORE:    0.00 PKD
ROOT
HETATM    1  O   UNL     1     -12.299  11.439  63.014  1.00  0.00    -0.952 OA 
HETATM    2  C   UNL     1     -11.436  11.599  64.148  1.00  0.00    -0.280 C  
HETATM    3  H   UNL     1     -13.186  11.681  63.252  1.00  0.00     0.000 HD 
ENDROOT
BRANCH   2   4
HETATM    4  C   UNL     1     -11.534  13.049  64.679  1.00  0.00    -0.336 C  
HETATM    5  C   UNL     1      -9.709  17.519  65.925  1.00  0.00    -0.044 A  
HETATM    6  C   UNL     1      -8.720  16.592  66.229  1.00  0.00    -0.359 A  
HETATM    7  C   UNL     1     -12.206  13.996  63.680  1.00  0.00    -0.145 C  
HETATM    8  C   UNL     1     -12.380  15.355  64.333  1.00  0.00    -0.089 C  
HETATM    9  F   UNL     1      -9.517  18.812  66.219  1.00  0.00    -0.306 F  
HETATM   10  C   UNL     1      -8.923  15.246  65.918  1.00  0.00    -0.011 A  
HETATM   11  O   UNL     1     -10.213  13.504  65.023  1.00  0.00    -0.345 OA 
HETATM   12  C   UNL     1     -11.101  15.778  64.993  1.00  0.00    -0.380 A  
HETATM   13  C   UNL     1     -10.112  14.839  65.312  1.00  0.00    -0.354 A  
HETATM   14  C   UNL     1     -10.896  17.127  65.315  1.00  0.00    -0.043 A  
ENDBRANCH   2   4
BRANCH   2  15
HETATM   15  C   UNL     1      -9.995  11.207  63.762  1.00  0.00    -0.350 C  
BRANCH  15  16
HETATM   16  N   UNL     1      -9.353  10.368  64.790  1.00  0.00    -0.226 NA 
HETATM   17  H   UNL     1      -8.372  10.610  64.929  1.00  0.00     0.000 HD 
BRANCH  16  18
HETATM   18  C   UNL     1     -10.132  10.451  66.038  1.00  0.00    -0.243 C  
BRANCH  18  19
HETATM   19  C   UNL     1      -9.219  10.708  67.254  1.00  0.00    -0.143 C  
HETATM   20  H   UNL     1      -7.576  11.728  67.600  1.00  0.00     0.000 HD 
HETATM   21  O   UNL     1      -8.139  11.569  66.850  1.00  0.00    -0.154 OA 
BRANCH  19  22
HETATM   22  C   UNL     1      -9.973  11.358  68.438  1.00  0.00    -0.204 C  
HETATM   23  C   UNL     1     -11.966  11.315  69.914  1.00  0.00    -0.440 C  
HETATM   24  C   UNL     1     -11.334  10.703  68.677  1.00  0.00    -0.345 C  
HETATM   25  C   UNL     1     -11.884  12.811  69.842  1.00  0.00    -0.371 A  
HETATM   26  C   UNL     1     -10.966  13.445  68.994  1.00  0.00    -0.224 A  
HETATM   27  O   UNL     1     -10.113  12.768  68.160  1.00  0.00    -0.226 OA 
HETATM   28  C   UNL     1     -10.910  14.839  68.928  1.00  0.00    -0.259 A  
HETATM   29  C   UNL     1     -11.756  15.611  69.725  1.00  0.00    -0.368 A  
HETATM   30  C   UNL     1     -12.654  14.980  70.577  1.00  0.00    -0.369 A  
HETATM   31  F   UNL     1     -13.470  15.718  71.343  1.00  0.00    -0.523 F  
HETATM   32  C   UNL     1     -12.724  13.593  70.646  1.00  0.00    -0.303 A  
ENDBRANCH  19  22
ENDBRANCH  18  19
ENDBRANCH  16  18
ENDBRANCH  15  16
ENDBRANCH   2  15
TORSDOF 6
ENDMDL
MODEL       94
REMARK 921   NORMALIZED FREE ENERGY PREDICTED BY IDOCK:   -6.48 KCAL/MOL
REMARK 922        TOTAL FREE ENERGY PREDICTED BY IDOCK:   -9.94 KCAL/MOL
REMARK 923 INTER-LIGAND FREE ENERGY PREDICTED BY IDOCK:   -8.02 KCAL/MOL
REMARK 924 INTRA-LIGAND FREE ENERGY PREDICTED BY IDOCK:   -1.92 KCAL/MOL
REMARK 927      BINDING AFFINITY PREDICTED BY RF-SCORE:    0.00 PKD
ROOT
HETATM    1  O   UNL     1     -10.387  13.492  69.389  1.00  0.00    -0.426 OA 
HETATM    2  C   UNL     1     -11.754  13.155  69.113  1.00  0.00    -0.325 C  
HETATM    3  H   UNL     1     -10.254  13.538  70.328  1.00  0.00     0.000 HD 
ENDROOT
BRANCH   2   4
HETATM    4  C   UNL     1     -12.122  11.836  69.831  1.00  0.00    -0.287 C  
HETATM    5  C   UNL     1     -11.109   7.587  72.236  1.00  0.00    -0.273 A  
HETATM    6  C   UNL     1     -10.087   7.769  71.314  1.00  0.00    -0.203 A  
HETATM    7  C   UNL     1     -12.711  12.070  71.225  1.00  0.00    -0.382 C  
HETATM    8  C   UNL     1     -13.164  10.738  71.797  1.00  0.00    -0.523 C  
HETATM    9  F   UNL     1     -11.131   6.478  72.988  1.00  0.00    -0.251 F  
HETATM   10  C   UNL     1     -10.065   8.928  70.535  1.00  0.00    -0.248 A  
HETATM   11  O   UNL     1     -10.951  11.002  69.892  1.00  0.00    -0.239 OA 
HETATM   12  C   UNL     1     -12.087   9.709  71.623  1.00  0.00    -0.481 A  
HETATM   13  C   UNL     1     -11.066   9.889  70.681  1.00  0.00    -0.340 A  
HETATM   14  C   UNL     1     -12.109   8.540  72.396  1.00  0.00    -0.436 A  
ENDBRANCH   2   4
BRANCH   2  15
HETATM   15  C   UNL     1     -11.971  13.079  67.587  1.00  0.00    -0.301 C  
BRANCH  15  16
HETATM   16  N   UNL     1     -11.869  11.700  67.080  1.00  0.00    -0.575 NA 
HETATM   17  H   UNL     1     -12.765  11.213  67.098  1.00  0.00     0.000 HD 
BRANCH  16  18
HETATM   18  C   UNL     1     -11.272  11.722  65.732  1.00  0.00    -0.281 C  
BRANCH  18  19
HETATM   19  C   UNL     1      -9.733  11.658  65.798  1.00  0.00    -0.236 C  
HETATM   20  H   UNL     1      -8.295  12.817  66.469  1.00  0.00     0.000 HD 
HETATM   21  O   UNL     1      -9.244  12.856  66.428  1.00  0.00    -0.221 OA 
BRANCH  19  22
HETATM   22  C   UNL     1      -9.221  10.426  66.581  1.00  0.00    -0.156 C  
HETATM   23  C   UNL     1      -7.371   8.817  66.956  1.00  0.00    -0.080 C  
HETATM   24  C   UNL     1      -7.858   9.953  66.075  1.00  0.00    -0.111 C  
HETATM   25  C   UNL     1      -8.466   7.808  67.139  1.00  0.00    -0.124 A  
HETATM   26  C   UNL     1      -9.806   8.145  66.905  1.00  0.00    -0.247 A  
HETATM   27  O   UNL     1     -10.211   9.381  66.470  1.00  0.00    -0.258 OA 
HETATM   28  C   UNL     1     -10.814   7.191  67.067  1.00  0.00    -0.382 A  
HETATM   29  C   UNL     1     -10.493   5.900  67.485  1.00  0.00    -0.306 A  
HETATM   30  C   UNL     1      -9.166   5.573  67.733  1.00  0.00    -0.107 A  
HETATM   31  F   UNL     1      -8.853   4.333  68.133  1.00  0.00    -0.101 F  
HETATM   32  C   UNL     1      -8.153   6.511  67.568  1.00  0.00    -0.121 A  
ENDBRANCH  19  22
ENDBRANCH  18  19
ENDBRANCH  16  18
ENDBRANCH  15  16
ENDBRANCH   2  15
TORSDOF 6
ENDMDL
MODEL       95
REMARK 921   NORMALIZED FREE ENERGY PREDICTED BY IDOCK:   -6.46 KCAL/MOL
REMARK 922        TOTAL FREE ENERGY PREDICTED BY IDOCK:   -9.92 KCAL/MOL
REMARK 923 INTER-LIGAND FREE ENERGY PREDICTED BY IDOCK:   -8.03 KCAL/MOL
REMARK 924 INTRA-LIGAND FREE ENERGY PREDICTED BY IDOCK:   -1.89 KCAL/MOL
REMARK 927      BINDING AFFINITY PREDICTED BY RF-SCORE:    0.00 PKD
ROOT
HETATM    1  O   UNL     1      -8.747  10.098  65.873  1.00  0.00    -0.138 OA 
HETATM    2  C   UNL     1     -10.140   9.882  66.136  1.00  0.00    -0.245 C  
HETATM    3  H   UNL     1      -8.644  10.826  65.272  1.00  0.00     0.000 HD 
ENDROOT
BRANCH   2   4
HETATM    4  C   UNL     1     -10.778  11.186  66.669  1.00  0.00    -0.269 C  
HETATM    5  C   UNL     1     -10.682  15.843  68.450  1.00  0.00    -0.281 A  
HETATM    6  C   UNL     1      -9.557  15.206  68.956  1.00  0.00    -0.229 A  
HETATM    7  C   UNL     1     -11.460  12.001  65.566  1.00  0.00    -0.368 C  
HETATM    8  C   UNL     1     -12.170  13.186  66.197  1.00  0.00    -0.451 C  
HETATM    9  F   UNL     1     -10.951  17.103  68.819  1.00  0.00    -0.311 F  
HETATM   10  C   UNL     1      -9.278  13.894  68.566  1.00  0.00    -0.154 A  
HETATM   11  O   UNL     1      -9.762  11.958  67.335  1.00  0.00    -0.182 OA 
HETATM   12  C   UNL     1     -11.253  13.883  67.158  1.00  0.00    -0.328 A  
HETATM   13  C   UNL     1     -10.128  13.232  67.680  1.00  0.00    -0.229 A  
HETATM   14  C   UNL     1     -11.533  15.196  67.560  1.00  0.00    -0.306 A  
ENDBRANCH   2   4
BRANCH   2  15
HETATM   15  C   UNL     1     -10.306   8.700  67.113  1.00  0.00    -0.299 C  
BRANCH  15  16
HETATM   16  N   UNL     1      -9.596   8.926  68.385  1.00  0.00    -0.144 NA 
HETATM   17  H   UNL     1      -9.887   9.790  68.842  1.00  0.00     0.000 HD 
BRANCH  16  18
HETATM   18  C   UNL     1      -9.769   7.748  69.252  1.00  0.00    -0.165 C  
BRANCH  18  19
HETATM   19  C   UNL     1     -11.240   7.578  69.684  1.00  0.00    -0.005 C  
HETATM   20  H   UNL     1     -12.307   6.176  70.551  1.00  0.00     0.000 HD 
HETATM   21  O   UNL     1     -11.401   6.280  70.285  1.00  0.00    -0.357 OA 
BRANCH  19  22
HETATM   22  C   UNL     1     -11.695   8.665  70.687  1.00  0.00    -0.155 C  
HETATM   23  C   UNL     1     -13.422   9.418  72.299  1.00  0.00    -0.539 C  
HETATM   24  C   UNL     1     -13.088   8.376  71.246  1.00  0.00    -0.163 C  
HETATM   25  C   UNL     1     -13.122  10.790  71.773  1.00  0.00    -0.573 A  
HETATM   26  C   UNL     1     -12.257  10.974  70.685  1.00  0.00    -0.385 A  
HETATM   27  O   UNL     1     -11.656   9.941  70.013  1.00  0.00    -0.238 OA 
HETATM   28  C   UNL     1     -11.997  12.257  70.198  1.00  0.00    -0.377 A  
HETATM   29  C   UNL     1     -12.583  13.367  70.806  1.00  0.00    -0.369 A  
HETATM   30  C   UNL     1     -13.427  13.184  71.894  1.00  0.00    -0.424 A  
HETATM   31  F   UNL     1     -13.993  14.248  72.479  1.00  0.00    -0.494 F  
HETATM   32  C   UNL     1     -13.699  11.911  72.384  1.00  0.00     0.154 A  
ENDBRANCH  19  22
ENDBRANCH  18  19
ENDBRANCH  16  18
ENDBRANCH  15  16
ENDBRANCH   2  15
TORSDOF 6
ENDMDL
MODEL       96
REMARK 921   NORMALIZED FREE ENERGY PREDICTED BY IDOCK:   -6.45 KCAL/MOL
REMARK 922        TOTAL FREE ENERGY PREDICTED BY IDOCK:   -9.90 KCAL/MOL
REMARK 923 INTER-LIGAND FREE ENERGY PREDICTED BY IDOCK:   -7.56 KCAL/MOL
REMARK 924 INTRA-LIGAND FREE ENERGY PREDICTED BY IDOCK:   -2.34 KCAL/MOL
REMARK 927      BINDING AFFINITY PREDICTED BY RF-SCORE:    0.00 PKD
ROOT
HETATM    1  O   UNL     1      -5.283  10.565  67.769  1.00  0.00    -0.037 OA 
HETATM    2  C   UNL     1      -6.066  11.597  67.153  1.00  0.00    -0.130 C  
HETATM    3  H   UNL     1      -4.370  10.828  67.793  1.00  0.00     0.000 HD 
ENDROOT
BRANCH   2   4
HETATM    4  C   UNL     1      -5.852  12.932  67.904  1.00  0.00    -0.123 C  
HETATM    5  C   UNL     1      -6.693  17.759  68.831  1.00  0.00    -0.237 A  
HETATM    6  C   UNL     1      -6.825  17.594  67.459  1.00  0.00    -0.185 A  
HETATM    7  C   UNL     1      -6.462  12.921  69.309  1.00  0.00    -0.104 C  
HETATM    8  C   UNL     1      -6.090  14.212  70.017  1.00  0.00    -0.149 C  
HETATM    9  F   UNL     1      -6.803  18.984  69.364  1.00  0.00    -0.311 F  
HETATM   10  C   UNL     1      -6.714  16.315  66.908  1.00  0.00    -0.165 A  
HETATM   11  O   UNL     1      -6.394  14.001  67.108  1.00  0.00    -0.192 OA 
HETATM   12  C   UNL     1      -6.347  15.385  69.118  1.00  0.00    -0.117 A  
HETATM   13  C   UNL     1      -6.465  15.217  67.732  1.00  0.00    -0.158 A  
HETATM   14  C   UNL     1      -6.452  16.672  69.665  1.00  0.00    -0.195 A  
ENDBRANCH   2   4
BRANCH   2  15
HETATM   15  C   UNL     1      -7.547  11.170  67.115  1.00  0.00    -0.125 C  
BRANCH  15  16
HETATM   16  N   UNL     1      -8.398  12.173  66.451  1.00  0.00    -0.399 NA 
HETATM   17  H   UNL     1      -8.667  11.890  65.509  1.00  0.00     0.000 HD 
BRANCH  16  18
HETATM   18  C   UNL     1      -9.565  12.461  67.304  1.00  0.00    -0.199 C  
BRANCH  18  19
HETATM   19  C   UNL     1     -10.810  12.794  66.458  1.00  0.00    -0.256 C  
HETATM   20  H   UNL     1     -12.732  12.400  66.554  1.00  0.00     0.000 HD 
HETATM   21  O   UNL     1     -11.965  12.195  67.075  1.00  0.00    -0.593 OA 
BRANCH  19  22
HETATM   22  C   UNL     1     -11.043  14.317  66.315  1.00  0.00    -0.323 C  
HETATM   23  C   UNL     1     -10.671  16.362  64.961  1.00  0.00    -0.279 C  
HETATM   24  C   UNL     1     -10.311  14.894  65.102  1.00  0.00    -0.431 C  
HETATM   25  C   UNL     1     -10.532  17.050  66.286  1.00  0.00    -0.258 A  
HETATM   26  C   UNL     1     -10.526  16.321  67.483  1.00  0.00    -0.302 A  
HETATM   27  O   UNL     1     -10.611  14.953  67.537  1.00  0.00    -0.258 OA 
HETATM   28  C   UNL     1     -10.383  16.975  68.709  1.00  0.00    -0.336 A  
HETATM   29  C   UNL     1     -10.266  18.364  68.750  1.00  0.00    -0.333 A  
HETATM   30  C   UNL     1     -10.290  19.087  67.564  1.00  0.00    -0.422 A  
HETATM   31  F   UNL     1     -10.177  20.422  67.600  1.00  0.00    -0.526 F  
HETATM   32  C   UNL     1     -10.425  18.447  66.337  1.00  0.00    -0.412 A  
ENDBRANCH  19  22
ENDBRANCH  18  19
ENDBRANCH  16  18
ENDBRANCH  15  16
ENDBRANCH   2  15
TORSDOF 6
ENDMDL
MODEL       97
REMARK 921   NORMALIZED FREE ENERGY PREDICTED BY IDOCK:   -6.44 KCAL/MOL
REMARK 922        TOTAL FREE ENERGY PREDICTED BY IDOCK:   -9.88 KCAL/MOL
REMARK 923 INTER-LIGAND FREE ENERGY PREDICTED BY IDOCK:   -8.12 KCAL/MOL
REMARK 924 INTRA-LIGAND FREE ENERGY PREDICTED BY IDOCK:   -1.77 KCAL/MOL
REMARK 927      BINDING AFFINITY PREDICTED BY RF-SCORE:    0.00 PKD
ROOT
HETATM    1  O   UNL     1     -11.270   5.809  66.336  1.00  0.00    -0.743 OA 
HETATM    2  C   UNL     1     -10.074   5.760  67.127  1.00  0.00    -0.181 C  
HETATM    3  H   UNL     1     -12.022   5.613  66.883  1.00  0.00     0.000 HD 
ENDROOT
BRANCH   2   4
HETATM    4  C   UNL     1     -10.203   6.725  68.328  1.00  0.00    -0.175 C  
HETATM    5  C   UNL     1     -11.799  10.844  70.641  1.00  0.00    -0.352 A  
HETATM    6  C   UNL     1     -11.580  11.198  69.316  1.00  0.00    -0.388 A  
HETATM    7  C   UNL     1     -11.125   6.181  69.424  1.00  0.00    -0.479 C  
HETATM    8  C   UNL     1     -11.086   7.124  70.613  1.00  0.00    -0.294 C  
HETATM    9  F   UNL     1     -12.175  11.782  71.523  1.00  0.00    -0.302 F  
HETATM   10  C   UNL     1     -11.191  10.217  68.400  1.00  0.00    -0.284 A  
HETATM   11  O   UNL     1     -10.661   8.002  67.847  1.00  0.00    -0.209 OA 
HETATM   12  C   UNL     1     -11.257   8.541  70.152  1.00  0.00    -0.139 A  
HETATM   13  C   UNL     1     -11.020   8.898  68.818  1.00  0.00     0.100 A  
HETATM   14  C   UNL     1     -11.638   9.531  71.069  1.00  0.00    -0.419 A  
ENDBRANCH   2   4
BRANCH   2  15
HETATM   15  C   UNL     1      -8.854   6.078  66.240  1.00  0.00    -0.141 C  
BRANCH  15  16
HETATM   16  N   UNL     1      -8.955   7.408  65.612  1.00  0.00    -0.373 NA 
HETATM   17  H   UNL     1      -9.604   8.020  66.105  1.00  0.00     0.000 HD 
BRANCH  16  18
HETATM   18  C   UNL     1      -7.608   7.995  65.499  1.00  0.00    -0.085 C  
BRANCH  18  19
HETATM   19  C   UNL     1      -7.523   8.984  64.320  1.00  0.00    -0.106 C  
HETATM   20  H   UNL     1      -8.114   9.007  62.446  1.00  0.00     0.000 HD 
HETATM   21  O   UNL     1      -8.166   8.398  63.173  1.00  0.00    -0.167 OA 
BRANCH  19  22
HETATM   22  C   UNL     1      -8.187  10.345  64.635  1.00  0.00    -0.137 C  
HETATM   23  C   UNL     1      -8.787  12.019  66.364  1.00  0.00    -0.126 C  
HETATM   24  C   UNL     1      -8.225  10.627  66.137  1.00  0.00    -0.156 C  
HETATM   25  C   UNL     1     -10.041  12.200  65.560  1.00  0.00    -0.275 A  
HETATM   26  C   UNL     1     -10.324  11.372  64.465  1.00  0.00    -0.313 A  
HETATM   27  O   UNL     1      -9.516  10.337  64.070  1.00  0.00    -0.264 OA 
HETATM   28  C   UNL     1     -11.502  11.545  63.734  1.00  0.00    -0.380 A  
HETATM   29  C   UNL     1     -12.395  12.559  64.078  1.00  0.00    -0.557 A  
HETATM   30  C   UNL     1     -12.104  13.390  65.153  1.00  0.00    -0.409 A  
HETATM   31  F   UNL     1     -12.961  14.364  65.487  1.00  0.00    -0.477 F  
HETATM   32  C   UNL     1     -10.939  13.223  65.893  1.00  0.00    -0.288 A  
ENDBRANCH  19  22
ENDBRANCH  18  19
ENDBRANCH  16  18
ENDBRANCH  15  16
ENDBRANCH   2  15
TORSDOF 6
ENDMDL
MODEL       98
REMARK 921   NORMALIZED FREE ENERGY PREDICTED BY IDOCK:   -6.43 KCAL/MOL
REMARK 922        TOTAL FREE ENERGY PREDICTED BY IDOCK:   -9.87 KCAL/MOL
REMARK 923 INTER-LIGAND FREE ENERGY PREDICTED BY IDOCK:   -8.77 KCAL/MOL
REMARK 924 INTRA-LIGAND FREE ENERGY PREDICTED BY IDOCK:   -1.10 KCAL/MOL
REMARK 927      BINDING AFFINITY PREDICTED BY RF-SCORE:    0.00 PKD
ROOT
HETATM    1  O   UNL     1     -10.017  12.350  66.672  1.00  0.00    -0.217 OA 
HETATM    2  C   UNL     1     -10.704  13.543  66.269  1.00  0.00    -0.288 C  
HETATM    3  H   UNL     1      -9.204  12.271  66.189  1.00  0.00     0.000 HD 
ENDROOT
BRANCH   2   4
HETATM    4  C   UNL     1      -9.779  14.767  66.460  1.00  0.00    -0.278 C  
HETATM    5  C   UNL     1      -8.301  18.991  68.660  1.00  0.00    -0.361 A  
HETATM    6  C   UNL     1      -9.689  18.987  68.710  1.00  0.00    -0.473 A  
HETATM    7  C   UNL     1      -8.426  14.392  67.073  1.00  0.00    -0.206 C  
HETATM    8  C   UNL     1      -7.540  15.625  67.098  1.00  0.00    -0.258 C  
HETATM    9  F   UNL     1      -7.625  20.051  69.126  1.00  0.00    -0.317 F  
HETATM   10  C   UNL     1     -10.389  17.879  68.227  1.00  0.00    -0.389 A  
HETATM   11  O   UNL     1     -10.465  15.742  67.267  1.00  0.00    -0.294 OA 
HETATM   12  C   UNL     1      -8.297  16.792  67.659  1.00  0.00    -0.191 A  
HETATM   13  C   UNL     1      -9.697  16.792  67.694  1.00  0.00    -0.251 A  
HETATM   14  C   UNL     1      -7.599  17.910  68.138  1.00  0.00    -0.260 A  
ENDBRANCH   2   4
BRANCH   2  15
HETATM   15  C   UNL     1     -12.026  13.670  67.054  1.00  0.00    -0.406 C  
BRANCH  15  16
HETATM   16  N   UNL     1     -11.985  12.938  68.333  1.00  0.00    -0.305 NA 
HETATM   17  H   UNL     1     -11.095  12.461  68.477  1.00  0.00     0.000 HD 
BRANCH  16  18
HETATM   18  C   UNL     1     -12.309  13.864  69.432  1.00  0.00    -0.197 C  
BRANCH  18  19
HETATM   19  C   UNL     1     -12.272  13.149  70.798  1.00  0.00    -0.290 C  
HETATM   20  H   UNL     1     -13.249  13.291  72.496  1.00  0.00     0.000 HD 
HETATM   21  O   UNL     1     -13.272  13.732  71.655  1.00  0.00    -0.347 OA 
BRANCH  19  22
HETATM   22  C   UNL     1     -12.526  11.628  70.681  1.00  0.00    -0.295 C  
HETATM   23  C   UNL     1     -13.483   9.589  71.721  1.00  0.00    -0.480 C  
HETATM   24  C   UNL     1     -13.164  11.056  71.948  1.00  0.00    -0.503 C  
HETATM   25  C   UNL     1     -12.292   8.893  71.132  1.00  0.00    -0.282 A  
HETATM   26  C   UNL     1     -11.273   9.617  70.497  1.00  0.00    -0.297 A  
HETATM   27  O   UNL     1     -11.266  10.984  70.394  1.00  0.00    -0.232 OA 
HETATM   28  C   UNL     1     -10.163   8.955  69.965  1.00  0.00    -0.214 A  
HETATM   29  C   UNL     1     -10.074   7.566  70.043  1.00  0.00    -0.199 A  
HETATM   30  C   UNL     1     -11.093   6.849  70.658  1.00  0.00    -0.278 A  
HETATM   31  F   UNL     1     -11.010   5.515  70.737  1.00  0.00    -0.330 F  
HETATM   32  C   UNL     1     -12.199   7.497  71.198  1.00  0.00    -0.330 A  
ENDBRANCH  19  22
ENDBRANCH  18  19
ENDBRANCH  16  18
ENDBRANCH  15  16
ENDBRANCH   2  15
TORSDOF 6
ENDMDL
MODEL       99
REMARK 921   NORMALIZED FREE ENERGY PREDICTED BY IDOCK:   -6.43 KCAL/MOL
REMARK 922        TOTAL FREE ENERGY PREDICTED BY IDOCK:   -9.87 KCAL/MOL
REMARK 923 INTER-LIGAND FREE ENERGY PREDICTED BY IDOCK:   -8.53 KCAL/MOL
REMARK 924 INTRA-LIGAND FREE ENERGY PREDICTED BY IDOCK:   -1.34 KCAL/MOL
REMARK 927      BINDING AFFINITY PREDICTED BY RF-SCORE:    0.00 PKD
ROOT
HETATM    1  O   UNL     1     -11.783   7.688  73.326  1.00  0.00    -0.649 OA 
HETATM    2  C   UNL     1     -12.033   8.154  71.992  1.00  0.00    -0.340 C  
HETATM    3  H   UNL     1     -11.407   6.817  73.294  1.00  0.00     0.000 HD 
ENDROOT
BRANCH   2   4
HETATM    4  C   UNL     1     -10.726   8.101  71.167  1.00  0.00    -0.221 C  
HETATM    5  C   UNL     1      -7.981   8.667  67.043  1.00  0.00    -0.096 A  
HETATM    6  C   UNL     1      -9.241   8.262  66.623  1.00  0.00    -0.224 A  
HETATM    7  C   UNL     1      -9.746   9.216  71.545  1.00  0.00    -0.313 C  
HETATM    8  C   UNL     1      -8.447   9.006  70.787  1.00  0.00    -0.238 C  
HETATM    9  F   UNL     1      -7.005   8.835  66.140  1.00  0.00    -0.074 F  
HETATM   10  C   UNL     1     -10.256   8.092  67.568  1.00  0.00    -0.311 A  
HETATM   11  O   UNL     1     -11.061   8.153  69.769  1.00  0.00    -0.183 OA 
HETATM   12  C   UNL     1      -8.733   8.745  69.338  1.00  0.00    -0.142 A  
HETATM   13  C   UNL     1     -10.001   8.322  68.919  1.00  0.00    -0.186 A  
HETATM   14  C   UNL     1      -7.715   8.907  68.387  1.00  0.00    -0.099 A  
ENDBRANCH   2   4
BRANCH   2  15
HETATM   15  C   UNL     1     -12.643   9.570  72.045  1.00  0.00    -0.376 C  
BRANCH  15  16
HETATM   16  N   UNL     1     -13.076  10.038  70.716  1.00  0.00    -0.574 NA 
HETATM   17  H   UNL     1     -14.070   9.874  70.553  1.00  0.00     0.000 HD 
BRANCH  16  18
HETATM   18  C   UNL     1     -12.708  11.456  70.557  1.00  0.00    -0.137 C  
BRANCH  18  19
HETATM   19  C   UNL     1     -11.661  11.644  69.442  1.00  0.00    -0.327 C  
HETATM   20  H   UNL     1     -11.589  11.340  67.502  1.00  0.00     0.000 HD 
HETATM   21  O   UNL     1     -12.234  11.224  68.190  1.00  0.00    -0.622 OA 
BRANCH  19  22
HETATM   22  C   UNL     1     -11.180  13.109  69.316  1.00  0.00    -0.206 C  
HETATM   23  C   UNL     1     -11.681  15.506  69.709  1.00  0.00    -0.362 C  
HETATM   24  C   UNL     1     -12.257  14.102  69.755  1.00  0.00    -0.397 C  
HETATM   25  C   UNL     1     -10.980  15.728  68.402  1.00  0.00    -0.323 A  
HETATM   26  C   UNL     1     -10.564  14.647  67.612  1.00  0.00    -0.256 A  
HETATM   27  O   UNL     1     -10.787  13.335  67.945  1.00  0.00    -0.234 OA 
HETATM   28  C   UNL     1      -9.924  14.869  66.390  1.00  0.00    -0.290 A  
HETATM   29  C   UNL     1      -9.675  16.172  65.959  1.00  0.00    -0.376 A  
HETATM   30  C   UNL     1     -10.072  17.241  66.751  1.00  0.00    -0.302 A  
HETATM   31  F   UNL     1      -9.836  18.494  66.339  1.00  0.00    -0.305 F  
HETATM   32  C   UNL     1     -10.717  17.033  67.966  1.00  0.00    -0.365 A  
ENDBRANCH  19  22
ENDBRANCH  18  19
ENDBRANCH  16  18
ENDBRANCH  15  16
ENDBRANCH   2  15
TORSDOF 6
ENDMDL
MODEL      100
REMARK 921   NORMALIZED FREE ENERGY PREDICTED BY IDOCK:   -6.42 KCAL/MOL
REMARK 922        TOTAL FREE ENERGY PREDICTED BY IDOCK:   -9.86 KCAL/MOL
REMARK 923 INTER-LIGAND FREE ENERGY PREDICTED BY IDOCK:   -8.90 KCAL/MOL
REMARK 924 INTRA-LIGAND FREE ENERGY PREDICTED BY IDOCK:   -0.96 KCAL/MOL
REMARK 927      BINDING AFFINITY PREDICTED BY RF-SCORE:    0.00 PKD
ROOT
HETATM    1  O   UNL     1     -11.574  15.179  63.980  1.00  0.00    -0.700 OA 
HETATM    2  C   UNL     1     -11.626  14.595  65.289  1.00  0.00    -0.354 C  
HETATM    3  H   UNL     1     -11.914  16.065  64.012  1.00  0.00     0.000 HD 
ENDROOT
BRANCH   2   4
HETATM    4  C   UNL     1     -10.859  15.490  66.290  1.00  0.00    -0.283 C  
HETATM    5  C   UNL     1      -6.967  16.733  69.149  1.00  0.00    -0.231 A  
HETATM    6  C   UNL     1      -7.040  15.346  69.167  1.00  0.00    -0.161 A  
HETATM    7  C   UNL     1     -10.351  16.786  65.651  1.00  0.00    -0.284 C  
HETATM    8  C   UNL     1      -9.733  17.656  66.730  1.00  0.00    -0.300 C  
HETATM    9  F   UNL     1      -6.043  17.356  69.893  1.00  0.00    -0.230 F  
HETATM   10  C   UNL     1      -8.003  14.700  68.387  1.00  0.00    -0.137 A  
HETATM   11  O   UNL     1      -9.778  14.727  66.855  1.00  0.00    -0.227 OA 
HETATM   12  C   UNL     1      -8.798  16.844  67.576  1.00  0.00    -0.213 A  
HETATM   13  C   UNL     1      -8.884  15.446  67.604  1.00  0.00    -0.174 A  
HETATM   14  C   UNL     1      -7.835  17.487  68.367  1.00  0.00    -0.263 A  
ENDBRANCH   2   4
BRANCH   2  15
HETATM   15  C   UNL     1     -11.074  13.156  65.236  1.00  0.00    -0.283 C  
BRANCH  15  16
HETATM   16  N   UNL     1     -11.894  12.217  66.023  1.00  0.00    -0.562 NA 
HETATM   17  H   UNL     1     -12.545  11.691  65.440  1.00  0.00     0.000 HD 
BRANCH  16  18
HETATM   18  C   UNL     1     -11.007  11.338  66.806  1.00  0.00    -0.281 C  
BRANCH  18  19
HETATM   19  C   UNL     1     -10.997  11.734  68.296  1.00  0.00    -0.229 C  
HETATM   20  H   UNL     1     -11.957  13.025  69.424  1.00  0.00     0.000 HD 
HETATM   21  O   UNL     1     -11.963  12.781  68.506  1.00  0.00    -0.308 OA 
BRANCH  19  22
HETATM   22  C   UNL     1     -11.324  10.545  69.230  1.00  0.00    -0.262 C  
HETATM   23  C   UNL     1     -12.838   9.607  70.956  1.00  0.00    -0.342 C  
HETATM   24  C   UNL     1     -12.507  10.850  70.150  1.00  0.00    -0.356 C  
HETATM   25  C   UNL     1     -11.586   9.036  71.552  1.00  0.00    -0.413 A  
HETATM   26  C   UNL     1     -10.325   9.364  71.034  1.00  0.00    -0.312 A  
HETATM   27  O   UNL     1     -10.137  10.233  69.991  1.00  0.00    -0.227 OA 
HETATM   28  C   UNL     1      -9.166   8.834  71.608  1.00  0.00    -0.333 A  
HETATM   29  C   UNL     1      -9.259   7.957  72.688  1.00  0.00    -0.269 A  
HETATM   30  C   UNL     1     -10.511   7.621  73.189  1.00  0.00    -0.374 A  
HETATM   31  F   UNL     1     -10.604   6.780  74.228  1.00  0.00    -0.376 F  
HETATM   32  C   UNL     1     -11.671   8.147  72.631  1.00  0.00    -0.419 A  
ENDBRANCH  19  22
ENDBRANCH  18  19
ENDBRANCH  16  18
ENDBRANCH  15  16
ENDBRANCH   2  15
TORSDOF 6
ENDMDL
MODEL      101
REMARK 921   NORMALIZED FREE ENERGY PREDICTED BY IDOCK:   -6.42 KCAL/MOL
REMARK 922        TOTAL FREE ENERGY PREDICTED BY IDOCK:   -9.86 KCAL/MOL
REMARK 923 INTER-LIGAND FREE ENERGY PREDICTED BY IDOCK:   -8.86 KCAL/MOL
REMARK 924 INTRA-LIGAND FREE ENERGY PREDICTED BY IDOCK:   -1.00 KCAL/MOL
REMARK 927      BINDING AFFINITY PREDICTED BY RF-SCORE:    0.00 PKD
ROOT
HETATM    1  O   UNL     1     -13.985   9.901  72.359  1.00  0.00    -0.506 OA 
HETATM    2  C   UNL     1     -13.230  10.775  71.508  1.00  0.00    -0.334 C  
HETATM    3  H   UNL     1     -14.021   9.034  71.975  1.00  0.00     0.000 HD 
ENDROOT
BRANCH   2   4
HETATM    4  C   UNL     1     -11.826  10.177  71.261  1.00  0.00    -0.360 C  
HETATM    5  C   UNL     1      -8.532   6.460  70.810  1.00  0.00    -0.135 A  
HETATM    6  C   UNL     1      -9.439   6.064  71.784  1.00  0.00    -0.165 A  
HETATM    7  C   UNL     1     -11.404  10.255  69.790  1.00  0.00    -0.334 C  
HETATM    8  C   UNL     1      -9.970   9.772  69.664  1.00  0.00    -0.244 C  
HETATM    9  F   UNL     1      -7.485   5.674  70.523  1.00  0.00    -0.074 F  
HETATM   10  C   UNL     1     -10.532   6.885  72.077  1.00  0.00    -0.229 A  
HETATM   11  O   UNL     1     -11.812   8.819  71.736  1.00  0.00    -0.298 OA 
HETATM   12  C   UNL     1      -9.793   8.481  70.407  1.00  0.00    -0.198 A  
HETATM   13  C   UNL     1     -10.702   8.092  71.400  1.00  0.00    -0.232 A  
HETATM   14  C   UNL     1      -8.694   7.658  70.123  1.00  0.00    -0.141 A  
ENDBRANCH   2   4
BRANCH   2  15
HETATM   15  C   UNL     1     -13.173  12.184  72.132  1.00  0.00    -0.333 C  
BRANCH  15  16
HETATM   16  N   UNL     1     -12.446  13.140  71.278  1.00  0.00    -0.297 NA 
HETATM   17  H   UNL     1     -12.097  12.708  70.423  1.00  0.00     0.000 HD 
BRANCH  16  18
HETATM   18  C   UNL     1     -13.311  14.302  71.005  1.00  0.00    -0.265 C  
BRANCH  18  19
HETATM   19  C   UNL     1     -12.486  15.525  70.558  1.00  0.00    -0.427 C  
HETATM   20  H   UNL     1     -11.187  16.738  71.394  1.00  0.00     0.000 HD 
HETATM   21  O   UNL     1     -11.695  15.985  71.670  1.00  0.00    -0.444 OA 
BRANCH  19  22
HETATM   22  C   UNL     1     -11.552  15.210  69.365  1.00  0.00    -0.323 C  
HETATM   23  C   UNL     1     -10.269  16.091  67.435  1.00  0.00    -0.273 C  
HETATM   24  C   UNL     1     -11.273  16.450  68.516  1.00  0.00    -0.334 C  
HETATM   25  C   UNL     1     -10.686  14.823  66.751  1.00  0.00    -0.309 A  
HETATM   26  C   UNL     1     -11.586  13.936  67.359  1.00  0.00    -0.368 A  
HETATM   27  O   UNL     1     -12.166  14.165  68.580  1.00  0.00    -0.311 OA 
HETATM   28  C   UNL     1     -11.975  12.765  66.704  1.00  0.00    -0.411 A  
HETATM   29  C   UNL     1     -11.453  12.461  65.447  1.00  0.00    -0.402 A  
HETATM   30  C   UNL     1     -10.548  13.333  64.854  1.00  0.00    -0.366 A  
HETATM   31  F   UNL     1     -10.046  13.045  63.646  1.00  0.00    -0.357 F  
HETATM   32  C   UNL     1     -10.159  14.505  65.492  1.00  0.00    -0.394 A  
ENDBRANCH  19  22
ENDBRANCH  18  19
ENDBRANCH  16  18
ENDBRANCH  15  16
ENDBRANCH   2  15
TORSDOF 6
ENDMDL
MODEL      102
REMARK 921   NORMALIZED FREE ENERGY PREDICTED BY IDOCK:   -6.41 KCAL/MOL
REMARK 922        TOTAL FREE ENERGY PREDICTED BY IDOCK:   -9.85 KCAL/MOL
REMARK 923 INTER-LIGAND FREE ENERGY PREDICTED BY IDOCK:   -6.63 KCAL/MOL
REMARK 924 INTRA-LIGAND FREE ENERGY PREDICTED BY IDOCK:   -3.22 KCAL/MOL
REMARK 927      BINDING AFFINITY PREDICTED BY RF-SCORE:    0.00 PKD
ROOT
HETATM    1  O   UNL     1      -7.744   4.752  71.974  1.00  0.00    -0.090 OA 
HETATM    2  C   UNL     1      -8.806   4.284  71.130  1.00  0.00    -0.110 C  
HETATM    3  H   UNL     1      -7.062   5.142  71.441  1.00  0.00     0.000 HD 
ENDROOT
BRANCH   2   4
HETATM    4  C   UNL     1      -9.328   5.447  70.255  1.00  0.00    -0.154 C  
HETATM    5  C   UNL     1      -9.327   8.417  66.250  1.00  0.00    -0.219 A  
HETATM    6  C   UNL     1      -7.998   8.113  66.513  1.00  0.00    -0.101 A  
HETATM    7  C   UNL     1     -10.657   5.115  69.569  1.00  0.00    -0.130 C  
HETATM    8  C   UNL     1     -11.158   6.352  68.845  1.00  0.00    -0.420 C  
HETATM    9  F   UNL     1      -9.627   9.263  65.254  1.00  0.00    -0.315 F  
HETATM   10  C   UNL     1      -7.690   7.228  67.550  1.00  0.00    -0.111 A  
HETATM   11  O   UNL     1      -8.315   5.790  69.293  1.00  0.00    -0.106 OA 
HETATM   12  C   UNL     1     -10.051   6.961  68.036  1.00  0.00    -0.193 A  
HETATM   13  C   UNL     1      -8.710   6.663  68.314  1.00  0.00    -0.118 A  
HETATM   14  C   UNL     1     -10.354   7.855  67.001  1.00  0.00    -0.411 A  
ENDBRANCH   2   4
BRANCH   2  15
HETATM   15  C   UNL     1      -9.914   3.650  71.996  1.00  0.00    -0.162 C  
BRANCH  15  16
HETATM   16  N   UNL     1      -9.897   4.159  73.380  1.00  0.00    -0.120 NA 
HETATM   17  H   UNL     1      -8.960   4.427  73.682  1.00  0.00     0.000 HD 
BRANCH  16  18
HETATM   18  C   UNL     1     -10.863   5.265  73.502  1.00  0.00    -0.304 C  
BRANCH  18  19
HETATM   19  C   UNL     1     -10.189   6.543  74.041  1.00  0.00    -0.353 C  
HETATM   20  H   UNL     1      -8.352   7.112  74.442  1.00  0.00     0.000 HD 
HETATM   21  O   UNL     1      -8.767   6.325  74.110  1.00  0.00    -0.122 OA 
BRANCH  19  22
HETATM   22  C   UNL     1     -10.472   7.783  73.161  1.00  0.00    -0.349 C  
HETATM   23  C   UNL     1     -12.036   8.923  71.609  1.00  0.00    -0.415 C  
HETATM   24  C   UNL     1     -11.767   7.631  72.361  1.00  0.00    -0.366 C  
HETATM   25  C   UNL     1     -10.793   9.368  70.899  1.00  0.00    -0.392 A  
HETATM   26  C   UNL     1      -9.531   8.892  71.282  1.00  0.00    -0.272 A  
HETATM   27  O   UNL     1      -9.339   7.982  72.289  1.00  0.00    -0.159 OA 
HETATM   28  C   UNL     1      -8.383   9.306  70.602  1.00  0.00    -0.245 A  
HETATM   29  C   UNL     1      -8.485  10.215  69.548  1.00  0.00    -0.179 A  
HETATM   30  C   UNL     1      -9.734  10.698  69.181  1.00  0.00    -0.189 A  
HETATM   31  F   UNL     1      -9.836  11.569  68.168  1.00  0.00    -0.169 F  
HETATM   32  C   UNL     1     -10.885  10.288  69.845  1.00  0.00    -0.355 A  
ENDBRANCH  19  22
ENDBRANCH  18  19
ENDBRANCH  16  18
ENDBRANCH  15  16
ENDBRANCH   2  15
TORSDOF 6
ENDMDL
MODEL      103
REMARK 921   NORMALIZED FREE ENERGY PREDICTED BY IDOCK:   -6.41 KCAL/MOL
REMARK 922        TOTAL FREE ENERGY PREDICTED BY IDOCK:   -9.84 KCAL/MOL
REMARK 923 INTER-LIGAND FREE ENERGY PREDICTED BY IDOCK:   -8.79 KCAL/MOL
REMARK 924 INTRA-LIGAND FREE ENERGY PREDICTED BY IDOCK:   -1.05 KCAL/MOL
REMARK 927      BINDING AFFINITY PREDICTED BY RF-SCORE:    0.00 PKD
ROOT
HETATM    1  O   UNL     1      -9.742  13.015  68.649  1.00  0.00    -0.370 OA 
HETATM    2  C   UNL     1     -11.062  13.267  68.148  1.00  0.00    -0.259 C  
HETATM    3  H   UNL     1      -9.112  13.096  67.943  1.00  0.00     0.000 HD 
ENDROOT
BRANCH   2   4
HETATM    4  C   UNL     1     -11.107  14.655  67.469  1.00  0.00    -0.313 C  
HETATM    5  C   UNL     1      -9.948  19.485  67.019  1.00  0.00    -0.378 A  
HETATM    6  C   UNL     1     -10.034  19.227  68.381  1.00  0.00    -0.502 A  
HETATM    7  C   UNL     1     -10.289  14.704  66.175  1.00  0.00    -0.309 C  
HETATM    8  C   UNL     1     -10.499  16.053  65.512  1.00  0.00    -0.426 C  
HETATM    9  F   UNL     1      -9.710  20.734  66.596  1.00  0.00    -0.503 F  
HETATM   10  C   UNL     1     -10.278  17.923  68.818  1.00  0.00    -0.362 A  
HETATM   11  O   UNL     1     -10.652  15.644  68.411  1.00  0.00    -0.238 OA 
HETATM   12  C   UNL     1     -10.337  17.153  66.518  1.00  0.00    -0.306 A  
HETATM   13  C   UNL     1     -10.440  16.893  67.891  1.00  0.00    -0.344 A  
HETATM   14  C   UNL     1     -10.100  18.465  66.085  1.00  0.00    -0.376 A  
ENDBRANCH   2   4
BRANCH   2  15
HETATM   15  C   UNL     1     -12.085  13.135  69.296  1.00  0.00    -0.220 C  
BRANCH  15  16
HETATM   16  N   UNL     1     -11.562  12.333  70.416  1.00  0.00    -0.493 NA 
HETATM   17  H   UNL     1     -11.259  12.913  71.199  1.00  0.00     0.000 HD 
BRANCH  16  18
HETATM   18  C   UNL     1     -12.576  11.340  70.815  1.00  0.00    -0.332 C  
BRANCH  18  19
HETATM   19  C   UNL     1     -11.933  10.143  71.544  1.00  0.00    -0.317 C  
HETATM   20  H   UNL     1     -12.576   8.628  72.617  1.00  0.00     0.000 HD 
HETATM   21  O   UNL     1     -12.972   9.365  72.167  1.00  0.00    -0.390 OA 
BRANCH  19  22
HETATM   22  C   UNL     1     -11.117   9.235  70.595  1.00  0.00    -0.276 C  
HETATM   23  C   UNL     1      -8.988   8.029  70.184  1.00  0.00    -0.150 C  
HETATM   24  C   UNL     1      -9.692   9.012  71.103  1.00  0.00    -0.369 C  
HETATM   25  C   UNL     1      -9.194   8.431  68.754  1.00  0.00    -0.143 A  
HETATM   26  C   UNL     1     -10.239   9.289  68.387  1.00  0.00    -0.202 A  
HETATM   27  O   UNL     1     -11.116   9.842  69.285  1.00  0.00    -0.219 OA 
HETATM   28  C   UNL     1     -10.410   9.666  67.052  1.00  0.00    -0.315 A  
HETATM   29  C   UNL     1      -9.551   9.170  66.071  1.00  0.00    -0.342 A  
HETATM   30  C   UNL     1      -8.526   8.306  66.435  1.00  0.00    -0.121 A  
HETATM   31  F   UNL     1      -7.697   7.830  65.496  1.00  0.00    -0.081 F  
HETATM   32  C   UNL     1      -8.341   7.931  67.761  1.00  0.00    -0.129 A  
ENDBRANCH  19  22
ENDBRANCH  18  19
ENDBRANCH  16  18
ENDBRANCH  15  16
ENDBRANCH   2  15
TORSDOF 6
ENDMDL
MODEL      104
REMARK 921   NORMALIZED FREE ENERGY PREDICTED BY IDOCK:   -6.41 KCAL/MOL
REMARK 922        TOTAL FREE ENERGY PREDICTED BY IDOCK:   -9.84 KCAL/MOL
REMARK 923 INTER-LIGAND FREE ENERGY PREDICTED BY IDOCK:   -8.33 KCAL/MOL
REMARK 924 INTRA-LIGAND FREE ENERGY PREDICTED BY IDOCK:   -1.51 KCAL/MOL
REMARK 927      BINDING AFFINITY PREDICTED BY RF-SCORE:    0.00 PKD
ROOT
HETATM    1  O   UNL     1     -10.312  17.464  65.631  1.00  0.00    -0.589 OA 
HETATM    2  C   UNL     1     -10.613  16.190  66.218  1.00  0.00    -0.274 C  
HETATM    3  H   UNL     1     -10.951  18.106  65.917  1.00  0.00     0.000 HD 
ENDROOT
BRANCH   2   4
HETATM    4  C   UNL     1     -10.671  16.325  67.757  1.00  0.00    -0.325 C  
HETATM    5  C   UNL     1     -12.456  15.309  72.301  1.00  0.00    -0.361 A  
HETATM    6  C   UNL     1     -13.540  15.261  71.434  1.00  0.00    -0.598 A  
HETATM    7  C   UNL     1      -9.494  15.634  68.453  1.00  0.00    -0.196 C  
HETATM    8  C   UNL     1      -9.560  15.932  69.940  1.00  0.00     0.046 C  
HETATM    9  F   UNL     1     -12.653  15.136  73.616  1.00  0.00    -0.481 F  
HETATM   10  C   UNL     1     -13.330  15.438  70.064  1.00  0.00     0.422 A  
HETATM   11  O   UNL     1     -11.930  15.803  68.219  1.00  0.00    -0.220 OA 
HETATM   12  C   UNL     1     -10.950  15.698  70.452  1.00  0.00    -0.366 A  
HETATM   13  C   UNL     1     -12.043  15.666  69.577  1.00  0.00    -0.286 A  
HETATM   14  C   UNL     1     -11.167  15.528  71.827  1.00  0.00    -0.376 A  
ENDBRANCH   2   4
BRANCH   2  15
HETATM   15  C   UNL     1      -9.576  15.147  65.753  1.00  0.00    -0.309 C  
BRANCH  15  16
HETATM   16  N   UNL     1     -10.076  14.326  64.636  1.00  0.00    -0.640 NA 
HETATM   17  H   UNL     1      -9.400  13.621  64.341  1.00  0.00     0.000 HD 
BRANCH  16  18
HETATM   18  C   UNL     1     -11.373  13.736  65.011  1.00  0.00    -0.328 C  
BRANCH  18  19
HETATM   19  C   UNL     1     -11.290  12.198  65.085  1.00  0.00    -0.327 C  
HETATM   20  H   UNL     1      -9.920  10.836  64.729  1.00  0.00     0.000 HD 
HETATM   21  O   UNL     1      -9.971  11.783  64.683  1.00  0.00    -0.249 OA 
BRANCH  19  22
HETATM   22  C   UNL     1     -11.586  11.653  66.502  1.00  0.00    -0.087 C  
HETATM   23  C   UNL     1     -11.671  12.119  68.937  1.00  0.00    -0.381 C  
HETATM   24  C   UNL     1     -11.256  12.678  67.588  1.00  0.00    -0.329 C  
HETATM   25  C   UNL     1     -11.162  10.716  69.086  1.00  0.00    -0.324 A  
HETATM   26  C   UNL     1     -10.789   9.959  67.967  1.00  0.00    -0.243 A  
HETATM   27  O   UNL     1     -10.826  10.438  66.683  1.00  0.00    -0.176 OA 
HETATM   28  C   UNL     1     -10.304   8.658  68.123  1.00  0.00    -0.267 A  
HETATM   29  C   UNL     1     -10.209   8.096  69.396  1.00  0.00    -0.211 A  
HETATM   30  C   UNL     1     -10.597   8.841  70.502  1.00  0.00    -0.215 A  
HETATM   31  F   UNL     1     -10.505   8.305  71.726  1.00  0.00    -0.249 F  
HETATM   32  C   UNL     1     -11.073  10.140  70.361  1.00  0.00    -0.393 A  
ENDBRANCH  19  22
ENDBRANCH  18  19
ENDBRANCH  16  18
ENDBRANCH  15  16
ENDBRANCH   2  15
TORSDOF 6
ENDMDL
MODEL      105
REMARK 921   NORMALIZED FREE ENERGY PREDICTED BY IDOCK:   -6.38 KCAL/MOL
REMARK 922        TOTAL FREE ENERGY PREDICTED BY IDOCK:   -9.81 KCAL/MOL
REMARK 923 INTER-LIGAND FREE ENERGY PREDICTED BY IDOCK:   -6.95 KCAL/MOL
REMARK 924 INTRA-LIGAND FREE ENERGY PREDICTED BY IDOCK:   -2.86 KCAL/MOL
REMARK 927      BINDING AFFINITY PREDICTED BY RF-SCORE:    0.00 PKD
ROOT
HETATM    1  O   UNL     1     -13.770   9.750  72.607  1.00  0.00    -0.681 OA 
HETATM    2  C   UNL     1     -12.863   9.445  71.538  1.00  0.00    -0.362 C  
HETATM    3  H   UNL     1     -14.024   8.949  73.049  1.00  0.00     0.000 HD 
ENDROOT
BRANCH   2   4
HETATM    4  C   UNL     1     -11.650   8.662  72.091  1.00  0.00    -0.370 C  
HETATM    5  C   UNL     1      -8.621   4.717  72.446  1.00  0.00    -0.115 A  
HETATM    6  C   UNL     1      -9.896   4.214  72.219  1.00  0.00    -0.228 A  
HETATM    7  C   UNL     1     -10.316   9.192  71.557  1.00  0.00    -0.414 C  
HETATM    8  C   UNL     1      -9.182   8.458  72.252  1.00  0.00    -0.329 C  
HETATM    9  F   UNL     1      -7.603   3.869  72.649  1.00  0.00    -0.063 F  
HETATM   10  C   UNL     1     -10.954   5.100  72.004  1.00  0.00    -0.143 A  
HETATM   11  O   UNL     1     -11.820   7.268  71.781  1.00  0.00    -0.273 OA 
HETATM   12  C   UNL     1      -9.439   6.980  72.238  1.00  0.00    -0.154 A  
HETATM   13  C   UNL     1     -10.729   6.477  72.024  1.00  0.00    -0.223 A  
HETATM   14  C   UNL     1      -8.383   6.087  72.461  1.00  0.00    -0.116 A  
ENDBRANCH   2   4
BRANCH   2  15
HETATM   15  C   UNL     1     -12.452  10.747  70.821  1.00  0.00    -0.387 C  
BRANCH  15  16
HETATM   16  N   UNL     1     -12.523  10.620  69.355  1.00  0.00    -0.690 NA 
HETATM   17  H   UNL     1     -13.484  10.562  69.018  1.00  0.00     0.000 HD 
BRANCH  16  18
HETATM   18  C   UNL     1     -11.779  11.731  68.735  1.00  0.00    -0.329 C  
BRANCH  18  19
HETATM   19  C   UNL     1     -10.682  11.210  67.785  1.00  0.00    -0.222 C  
HETATM   20  H   UNL     1      -9.113  11.974  66.881  1.00  0.00     0.000 HD 
HETATM   21  O   UNL     1      -9.789  12.294  67.467  1.00  0.00    -0.189 OA 
BRANCH  19  22
HETATM   22  C   UNL     1      -9.869  10.044  68.394  1.00  0.00    -0.154 C  
HETATM   23  C   UNL     1      -7.665   8.925  68.602  1.00  0.00    -0.097 C  
HETATM   24  C   UNL     1      -8.429  10.023  67.882  1.00  0.00    -0.118 C  
HETATM   25  C   UNL     1      -8.460   7.654  68.583  1.00  0.00    -0.129 A  
HETATM   26  C   UNL     1      -9.841   7.668  68.344  1.00  0.00    -0.166 A  
HETATM   27  O   UNL     1     -10.553   8.811  68.083  1.00  0.00    -0.212 OA 
HETATM   28  C   UNL     1     -10.566   6.474  68.315  1.00  0.00    -0.302 A  
HETATM   29  C   UNL     1      -9.921   5.259  68.547  1.00  0.00    -0.227 A  
HETATM   30  C   UNL     1      -8.555   5.249  68.801  1.00  0.00    -0.091 A  
HETATM   31  F   UNL     1      -7.932   4.084  69.022  1.00  0.00    -0.057 F  
HETATM   32  C   UNL     1      -7.821   6.430  68.824  1.00  0.00    -0.109 A  
ENDBRANCH  19  22
ENDBRANCH  18  19
ENDBRANCH  16  18
ENDBRANCH  15  16
ENDBRANCH   2  15
TORSDOF 6
ENDMDL
MODEL      106
REMARK 921   NORMALIZED FREE ENERGY PREDICTED BY IDOCK:   -6.36 KCAL/MOL
REMARK 922        TOTAL FREE ENERGY PREDICTED BY IDOCK:   -9.78 KCAL/MOL
REMARK 923 INTER-LIGAND FREE ENERGY PREDICTED BY IDOCK:   -9.73 KCAL/MOL
REMARK 924 INTRA-LIGAND FREE ENERGY PREDICTED BY IDOCK:   -0.05 KCAL/MOL
REMARK 927      BINDING AFFINITY PREDICTED BY RF-SCORE:    0.00 PKD
ROOT
HETATM    1  O   UNL     1     -11.898  11.589  67.182  1.00  0.00    -0.595 OA 
HETATM    2  C   UNL     1     -10.704  10.943  66.718  1.00  0.00    -0.252 C  
HETATM    3  H   UNL     1     -12.578  10.940  67.319  1.00  0.00     0.000 HD 
ENDROOT
BRANCH   2   4
HETATM    4  C   UNL     1     -10.282   9.842  67.719  1.00  0.00    -0.197 C  
HETATM    5  C   UNL     1     -10.795   7.055  71.822  1.00  0.00    -0.223 A  
HETATM    6  C   UNL     1     -11.294   8.312  72.137  1.00  0.00    -0.419 A  
HETATM    7  C   UNL     1     -10.492   8.431  67.163  1.00  0.00    -0.380 C  
HETATM    8  C   UNL     1      -9.930   7.425  68.152  1.00  0.00    -0.190 C  
HETATM    9  F   UNL     1     -10.746   6.106  72.768  1.00  0.00    -0.215 F  
HETATM   10  C   UNL     1     -11.347   9.296  71.146  1.00  0.00    -0.412 A  
HETATM   11  O   UNL     1     -11.009  10.033  68.947  1.00  0.00    -0.225 OA 
HETATM   12  C   UNL     1     -10.408   7.742  69.538  1.00  0.00    -0.219 A  
HETATM   13  C   UNL     1     -10.897   9.016  69.857  1.00  0.00    -0.218 A  
HETATM   14  C   UNL     1     -10.350   6.761  70.538  1.00  0.00    -0.226 A  
ENDBRANCH   2   4
BRANCH   2  15
HETATM   15  C   UNL     1      -9.599  11.996  66.496  1.00  0.00    -0.224 C  
BRANCH  15  16
HETATM   16  N   UNL     1      -9.520  12.431  65.090  1.00  0.00    -0.446 NA 
HETATM   17  H   UNL     1      -9.019  11.762  64.506  1.00  0.00     0.000 HD 
BRANCH  16  18
HETATM   18  C   UNL     1     -10.879  12.703  64.590  1.00  0.00    -0.319 C  
BRANCH  18  19
HETATM   19  C   UNL     1     -11.164  14.217  64.533  1.00  0.00    -0.322 C  
HETATM   20  H   UNL     1     -12.758  15.351  64.351  1.00  0.00     0.000 HD 
HETATM   21  O   UNL     1     -12.582  14.418  64.386  1.00  0.00    -0.668 OA 
BRANCH  19  22
HETATM   22  C   UNL     1     -10.672  14.964  65.795  1.00  0.00    -0.331 C  
HETATM   23  C   UNL     1     -11.054  15.483  68.190  1.00  0.00    -0.325 C  
HETATM   24  C   UNL     1     -11.651  14.821  66.961  1.00  0.00    -0.352 C  
HETATM   25  C   UNL     1     -10.542  16.848  67.837  1.00  0.00    -0.361 A  
HETATM   26  C   UNL     1     -10.269  17.195  66.507  1.00  0.00    -0.322 A  
HETATM   27  O   UNL     1     -10.473  16.351  65.446  1.00  0.00    -0.515 OA 
HETATM   28  C   UNL     1      -9.805  18.475  66.192  1.00  0.00    -0.297 A  
HETATM   29  C   UNL     1      -9.589  19.409  67.205  1.00  0.00    -0.412 A  
HETATM   30  C   UNL     1      -9.843  19.056  68.524  1.00  0.00    -0.411 A  
HETATM   31  F   UNL     1      -9.639  19.952  69.500  1.00  0.00    -0.358 F  
HETATM   32  C   UNL     1     -10.313  17.789  68.850  1.00  0.00    -0.300 A  
ENDBRANCH  19  22
ENDBRANCH  18  19
ENDBRANCH  16  18
ENDBRANCH  15  16
ENDBRANCH   2  15
TORSDOF 6
ENDMDL
MODEL      107
REMARK 921   NORMALIZED FREE ENERGY PREDICTED BY IDOCK:   -6.36 KCAL/MOL
REMARK 922        TOTAL FREE ENERGY PREDICTED BY IDOCK:   -9.77 KCAL/MOL
REMARK 923 INTER-LIGAND FREE ENERGY PREDICTED BY IDOCK:   -9.09 KCAL/MOL
REMARK 924 INTRA-LIGAND FREE ENERGY PREDICTED BY IDOCK:   -0.68 KCAL/MOL
REMARK 927      BINDING AFFINITY PREDICTED BY RF-SCORE:    0.00 PKD
ROOT
HETATM    1  O   UNL     1      -9.386  13.155  68.893  1.00  0.00    -0.394 OA 
HETATM    2  C   UNL     1     -10.446  13.047  67.933  1.00  0.00    -0.229 C  
HETATM    3  H   UNL     1      -8.621  13.538  68.482  1.00  0.00     0.000 HD 
ENDROOT
BRANCH   2   4
HETATM    4  C   UNL     1     -10.737  14.435  67.318  1.00  0.00    -0.285 C  
HETATM    5  C   UNL     1     -10.297  19.391  66.982  1.00  0.00    -0.440 A  
HETATM    6  C   UNL     1     -10.237  19.082  68.335  1.00  0.00    -0.450 A  
HETATM    7  C   UNL     1     -10.040  14.637  65.969  1.00  0.00    -0.330 C  
HETATM    8  C   UNL     1     -10.486  15.964  65.379  1.00  0.00    -0.429 C  
HETATM    9  F   UNL     1     -10.269  20.674  66.594  1.00  0.00    -0.537 F  
HETATM   10  C   UNL     1     -10.263  17.744  68.734  1.00  0.00    -0.373 A  
HETATM   11  O   UNL     1     -10.349  15.449  68.263  1.00  0.00    -0.232 OA 
HETATM   12  C   UNL     1     -10.398  17.044  66.416  1.00  0.00    -0.304 A  
HETATM   13  C   UNL     1     -10.354  16.730  67.780  1.00  0.00    -0.318 A  
HETATM   14  C   UNL     1     -10.381  18.389  66.021  1.00  0.00    -0.397 A  
ENDBRANCH   2   4
BRANCH   2  15
HETATM   15  C   UNL     1     -11.688  12.424  68.602  1.00  0.00    -0.326 C  
BRANCH  15  16
HETATM   16  N   UNL     1     -11.341  11.648  69.806  1.00  0.00    -0.448 NA 
HETATM   17  H   UNL     1     -10.928  12.230  70.536  1.00  0.00     0.000 HD 
BRANCH  16  18
HETATM   18  C   UNL     1     -12.534  10.923  70.277  1.00  0.00    -0.303 C  
BRANCH  18  19
HETATM   19  C   UNL     1     -12.193   9.978  71.447  1.00  0.00    -0.416 C  
HETATM   20  H   UNL     1     -13.045   9.453  73.137  1.00  0.00     0.000 HD 
HETATM   21  O   UNL     1     -13.256  10.035  72.416  1.00  0.00    -0.364 OA 
BRANCH  19  22
HETATM   22  C   UNL     1     -11.996   8.513  70.992  1.00  0.00    -0.231 C  
HETATM   23  C   UNL     1     -11.318   6.211  71.618  1.00  0.00    -0.341 C  
HETATM   24  C   UNL     1     -11.380   7.651  72.094  1.00  0.00    -0.341 C  
HETATM   25  C   UNL     1     -10.730   6.154  70.239  1.00  0.00    -0.355 A  
HETATM   26  C   UNL     1     -10.703   7.290  69.418  1.00  0.00    -0.225 A  
HETATM   27  O   UNL     1     -11.169   8.518  69.808  1.00  0.00    -0.129 OA 
HETATM   28  C   UNL     1     -10.140   7.225  68.141  1.00  0.00    -0.201 A  
HETATM   29  C   UNL     1      -9.620   6.021  67.667  1.00  0.00    -0.113 A  
HETATM   30  C   UNL     1      -9.664   4.892  68.476  1.00  0.00    -0.155 A  
HETATM   31  F   UNL     1      -9.163   3.734  68.025  1.00  0.00    -0.139 F  
HETATM   32  C   UNL     1     -10.214   4.946  69.752  1.00  0.00    -0.284 A  
ENDBRANCH  19  22
ENDBRANCH  18  19
ENDBRANCH  16  18
ENDBRANCH  15  16
ENDBRANCH   2  15
TORSDOF 6
ENDMDL
MODEL      108
REMARK 921   NORMALIZED FREE ENERGY PREDICTED BY IDOCK:   -6.36 KCAL/MOL
REMARK 922        TOTAL FREE ENERGY PREDICTED BY IDOCK:   -9.77 KCAL/MOL
REMARK 923 INTER-LIGAND FREE ENERGY PREDICTED BY IDOCK:   -9.06 KCAL/MOL
REMARK 924 INTRA-LIGAND FREE ENERGY PREDICTED BY IDOCK:   -0.72 KCAL/MOL
REMARK 927      BINDING AFFINITY PREDICTED BY RF-SCORE:    0.00 PKD
ROOT
HETATM    1  O   UNL     1     -12.033  10.344  68.284  1.00  0.00    -0.772 OA 
HETATM    2  C   UNL     1     -10.781   9.792  68.715  1.00  0.00    -0.215 C  
HETATM    3  H   UNL     1     -12.643   9.641  68.096  1.00  0.00     0.000 HD 
ENDROOT
BRANCH   2   4
HETATM    4  C   UNL     1     -11.011   8.864  69.930  1.00  0.00    -0.182 C  
HETATM    5  C   UNL     1     -10.172   4.824  72.730  1.00  0.00    -0.182 A  
HETATM    6  C   UNL     1      -9.996   4.430  71.410  1.00  0.00    -0.248 A  
HETATM    7  C   UNL     1     -10.446   9.445  71.230  1.00  0.00    -0.385 C  
HETATM    8  C   UNL     1     -10.833   8.537  72.384  1.00  0.00    -0.378 C  
HETATM    9  F   UNL     1     -10.072   3.915  73.711  1.00  0.00    -0.135 F  
HETATM   10  C   UNL     1     -10.098   5.381  70.392  1.00  0.00    -0.314 A  
HETATM   11  O   UNL     1     -10.437   7.576  69.642  1.00  0.00    -0.223 OA 
HETATM   12  C   UNL     1     -10.541   7.108  72.036  1.00  0.00    -0.237 A  
HETATM   13  C   UNL     1     -10.379   6.711  70.702  1.00  0.00    -0.202 A  
HETATM   14  C   UNL     1     -10.446   6.148  73.053  1.00  0.00    -0.245 A  
ENDBRANCH   2   4
BRANCH   2  15
HETATM   15  C   UNL     1      -9.790  10.934  69.022  1.00  0.00    -0.180 C  
BRANCH  15  16
HETATM   16  N   UNL     1      -9.420  11.688  67.810  1.00  0.00    -0.173 NA 
HETATM   17  H   UNL     1      -9.820  11.282  66.965  1.00  0.00     0.000 HD 
BRANCH  16  18
HETATM   18  C   UNL     1      -9.799  13.102  67.985  1.00  0.00    -0.231 C  
BRANCH  18  19
HETATM   19  C   UNL     1     -11.086  13.439  67.206  1.00  0.00    -0.282 C  
HETATM   20  H   UNL     1     -13.017  13.300  67.535  1.00  0.00     0.000 HD 
HETATM   21  O   UNL     1     -12.225  13.092  68.016  1.00  0.00    -0.240 OA 
BRANCH  19  22
HETATM   22  C   UNL     1     -11.173  14.934  66.819  1.00  0.00    -0.338 C  
HETATM   23  C   UNL     1     -10.618  16.692  65.159  1.00  0.00    -0.181 C  
HETATM   24  C   UNL     1     -10.399  15.238  65.536  1.00  0.00    -0.408 C  
HETATM   25  C   UNL     1     -10.406  17.567  66.359  1.00  0.00    -0.334 A  
HETATM   26  C   UNL     1     -10.461  17.041  67.657  1.00  0.00    -0.343 A  
HETATM   27  O   UNL     1     -10.676  15.714  67.927  1.00  0.00    -0.277 OA 
HETATM   28  C   UNL     1     -10.248  17.866  68.764  1.00  0.00    -0.362 A  
HETATM   29  C   UNL     1     -10.000  19.227  68.584  1.00  0.00    -0.506 A  
HETATM   30  C   UNL     1      -9.963  19.750  67.297  1.00  0.00    -0.400 A  
HETATM   31  F   UNL     1      -9.723  21.056  67.120  1.00  0.00    -0.596 F  
HETATM   32  C   UNL     1     -10.166  18.937  66.187  1.00  0.00    -0.485 A  
ENDBRANCH  19  22
ENDBRANCH  18  19
ENDBRANCH  16  18
ENDBRANCH  15  16
ENDBRANCH   2  15
TORSDOF 6
ENDMDL
MODEL      109
REMARK 921   NORMALIZED FREE ENERGY PREDICTED BY IDOCK:   -6.32 KCAL/MOL
REMARK 922        TOTAL FREE ENERGY PREDICTED BY IDOCK:   -9.72 KCAL/MOL
REMARK 923 INTER-LIGAND FREE ENERGY PREDICTED BY IDOCK:   -8.29 KCAL/MOL
REMARK 924 INTRA-LIGAND FREE ENERGY PREDICTED BY IDOCK:   -1.44 KCAL/MOL
REMARK 927      BINDING AFFINITY PREDICTED BY RF-SCORE:    0.00 PKD
ROOT
HETATM    1  O   UNL     1     -13.158  10.277  69.841  1.00  0.00    -0.562 OA 
HETATM    2  C   UNL     1     -12.033  10.936  70.439  1.00  0.00    -0.362 C  
HETATM    3  H   UNL     1     -13.839  10.912  69.657  1.00  0.00     0.000 HD 
ENDROOT
BRANCH   2   4
HETATM    4  C   UNL     1     -11.546  12.077  69.516  1.00  0.00    -0.321 C  
HETATM    5  C   UNL     1     -11.528  14.778  65.325  1.00  0.00    -0.352 A  
HETATM    6  C   UNL     1     -11.803  13.470  64.947  1.00  0.00    -0.402 A  
HETATM    7  C   UNL     1     -12.027  13.455  69.982  1.00  0.00    -0.407 C  
HETATM    8  C   UNL     1     -11.395  14.519  69.102  1.00  0.00    -0.305 C  
HETATM    9  F   UNL     1     -11.397  15.724  64.384  1.00  0.00    -0.418 F  
HETATM   10  C   UNL     1     -11.944  12.488  65.931  1.00  0.00    -0.472 A  
HETATM   11  O   UNL     1     -11.979  11.800  68.172  1.00  0.00    -0.521 OA 
HETATM   12  C   UNL     1     -11.540  14.145  67.656  1.00  0.00    -0.394 A  
HETATM   13  C   UNL     1     -11.802  12.822  67.278  1.00  0.00    -0.350 A  
HETATM   14  C   UNL     1     -11.392  15.125  66.665  1.00  0.00    -0.234 A  
ENDBRANCH   2   4
BRANCH   2  15
HETATM   15  C   UNL     1     -10.927   9.903  70.738  1.00  0.00    -0.337 C  
BRANCH  15  16
HETATM   16  N   UNL     1     -11.480   8.581  71.081  1.00  0.00    -0.269 NA 
HETATM   17  H   UNL     1     -12.106   8.224  70.360  1.00  0.00     0.000 HD 
BRANCH  16  18
HETATM   18  C   UNL     1     -10.372   7.653  71.370  1.00  0.00    -0.196 C  
BRANCH  18  19
HETATM   19  C   UNL     1     -10.343   6.483  70.366  1.00  0.00    -0.198 C  
HETATM   20  H   UNL     1     -11.675   5.452  69.356  1.00  0.00     0.000 HD 
HETATM   21  O   UNL     1     -11.693   6.172  69.975  1.00  0.00    -0.336 OA 
BRANCH  19  22
HETATM   22  C   UNL     1      -9.507   6.802  69.105  1.00  0.00    -0.141 C  
HETATM   23  C   UNL     1      -7.301   7.457  68.177  1.00  0.00    -0.100 C  
HETATM   24  C   UNL     1      -8.094   7.268  69.458  1.00  0.00    -0.129 C  
HETATM   25  C   UNL     1      -8.104   8.256  67.193  1.00  0.00    -0.108 A  
HETATM   26  C   UNL     1      -9.495   8.370  67.319  1.00  0.00    -0.154 A  
HETATM   27  O   UNL     1     -10.213   7.804  68.341  1.00  0.00    -0.191 OA 
HETATM   28  C   UNL     1     -10.227   9.129  66.402  1.00  0.00    -0.300 A  
HETATM   29  C   UNL     1      -9.578   9.760  65.342  1.00  0.00    -0.359 A  
HETATM   30  C   UNL     1      -8.201   9.631  65.209  1.00  0.00    -0.131 A  
HETATM   31  F   UNL     1      -7.574  10.238  64.193  1.00  0.00    -0.146 F  
HETATM   32  C   UNL     1      -7.460   8.885  66.120  1.00  0.00    -0.090 A  
ENDBRANCH  19  22
ENDBRANCH  18  19
ENDBRANCH  16  18
ENDBRANCH  15  16
ENDBRANCH   2  15
TORSDOF 6
ENDMDL
MODEL      110
REMARK 921   NORMALIZED FREE ENERGY PREDICTED BY IDOCK:   -6.29 KCAL/MOL
REMARK 922        TOTAL FREE ENERGY PREDICTED BY IDOCK:   -9.68 KCAL/MOL
REMARK 923 INTER-LIGAND FREE ENERGY PREDICTED BY IDOCK:   -8.97 KCAL/MOL
REMARK 924 INTRA-LIGAND FREE ENERGY PREDICTED BY IDOCK:   -0.71 KCAL/MOL
REMARK 927      BINDING AFFINITY PREDICTED BY RF-SCORE:    0.00 PKD
ROOT
HETATM    1  O   UNL     1     -13.399  11.017  72.279  1.00  0.00    -0.633 OA 
HETATM    2  C   UNL     1     -13.058  10.438  71.012  1.00  0.00    -0.362 C  
HETATM    3  H   UNL     1     -14.018  10.455  72.730  1.00  0.00     0.000 HD 
ENDROOT
BRANCH   2   4
HETATM    4  C   UNL     1     -12.516   9.005  71.222  1.00  0.00    -0.289 C  
HETATM    5  C   UNL     1     -10.004   5.456  73.665  1.00  0.00    -0.177 A  
HETATM    6  C   UNL     1      -9.310   6.641  73.872  1.00  0.00    -0.203 A  
HETATM    7  C   UNL     1     -13.611   8.016  71.634  1.00  0.00    -0.390 C  
HETATM    8  C   UNL     1     -13.018   6.620  71.687  1.00  0.00    -0.186 C  
HETATM    9  F   UNL     1      -9.516   4.309  74.158  1.00  0.00    -0.105 F  
HETATM   10  C   UNL     1      -9.825   7.835  73.360  1.00  0.00    -0.346 A  
HETATM   11  O   UNL     1     -11.459   9.050  72.199  1.00  0.00    -0.355 OA 
HETATM   12  C   UNL     1     -11.726   6.636  72.448  1.00  0.00    -0.260 A  
HETATM   13  C   UNL     1     -11.020   7.831  72.642  1.00  0.00    -0.364 A  
HETATM   14  C   UNL     1     -11.201   5.440  72.957  1.00  0.00    -0.370 A  
ENDBRANCH   2   4
BRANCH   2  15
HETATM   15  C   UNL     1     -12.052  11.350  70.280  1.00  0.00    -0.374 C  
BRANCH  15  16
HETATM   16  N   UNL     1     -12.150  11.221  68.815  1.00  0.00    -0.545 NA 
HETATM   17  H   UNL     1     -13.089  10.965  68.511  1.00  0.00     0.000 HD 
BRANCH  16  18
HETATM   18  C   UNL     1     -11.678  12.468  68.186  1.00  0.00    -0.348 C  
BRANCH  18  19
HETATM   19  C   UNL     1     -12.159  12.578  66.726  1.00  0.00    -0.110 C  
HETATM   20  H   UNL     1     -12.809  14.015  65.555  1.00  0.00     0.000 HD 
HETATM   21  O   UNL     1     -12.512  13.947  66.454  1.00  0.00    -0.441 OA 
BRANCH  19  22
HETATM   22  C   UNL     1     -11.089  12.117  65.709  1.00  0.00    -0.319 C  
HETATM   23  C   UNL     1     -10.516  11.700  63.332  1.00  0.00    -0.482 C  
HETATM   24  C   UNL     1     -11.644  12.051  64.286  1.00  0.00    -0.435 C  
HETATM   25  C   UNL     1      -9.743  10.529  63.864  1.00  0.00    -0.384 A  
HETATM   26  C   UNL     1      -9.809  10.175  65.219  1.00  0.00    -0.319 A  
HETATM   27  O   UNL     1     -10.589  10.831  66.136  1.00  0.00    -0.239 OA 
HETATM   28  C   UNL     1      -9.094   9.074  65.697  1.00  0.00    -0.278 A  
HETATM   29  C   UNL     1      -8.291   8.333  64.831  1.00  0.00    -0.145 A  
HETATM   30  C   UNL     1      -8.214   8.696  63.492  1.00  0.00    -0.150 A  
HETATM   31  F   UNL     1      -7.445   7.984  62.657  1.00  0.00    -0.092 F  
HETATM   32  C   UNL     1      -8.927   9.785  63.003  1.00  0.00    -0.271 A  
ENDBRANCH  19  22
ENDBRANCH  18  19
ENDBRANCH  16  18
ENDBRANCH  15  16
ENDBRANCH   2  15
TORSDOF 6
ENDMDL
MODEL      111
REMARK 921   NORMALIZED FREE ENERGY PREDICTED BY IDOCK:   -6.28 KCAL/MOL
REMARK 922        TOTAL FREE ENERGY PREDICTED BY IDOCK:   -9.67 KCAL/MOL
REMARK 923 INTER-LIGAND FREE ENERGY PREDICTED BY IDOCK:   -8.53 KCAL/MOL
REMARK 924 INTRA-LIGAND FREE ENERGY PREDICTED BY IDOCK:   -1.15 KCAL/MOL
REMARK 927      BINDING AFFINITY PREDICTED BY RF-SCORE:    0.00 PKD
ROOT
HETATM    1  O   UNL     1      -7.138   8.460  64.978  1.00  0.00    -0.076 OA 
HETATM    2  C   UNL     1      -8.552   8.268  65.129  1.00  0.00    -0.105 C  
HETATM    3  H   UNL     1      -6.976   9.149  64.344  1.00  0.00     0.000 HD 
ENDROOT
BRANCH   2   4
HETATM    4  C   UNL     1      -9.221   9.605  65.522  1.00  0.00    -0.234 C  
HETATM    5  C   UNL     1     -12.332  13.446  64.860  1.00  0.00    -0.412 A  
HETATM    6  C   UNL     1     -11.876  13.089  63.598  1.00  0.00    -0.580 A  
HETATM    7  C   UNL     1     -10.228   9.446  66.665  1.00  0.00    -0.319 C  
HETATM    8  C   UNL     1     -10.732  10.819  67.071  1.00  0.00    -0.320 C  
HETATM    9  F   UNL     1     -13.144  14.504  64.995  1.00  0.00    -0.350 F  
HETATM   10  C   UNL     1     -11.033  11.983  63.462  1.00  0.00    -0.514 A  
HETATM   11  O   UNL     1      -9.843  10.170  64.353  1.00  0.00    -0.322 OA 
HETATM   12  C   UNL     1     -11.126  11.604  65.855  1.00  0.00    -0.320 A  
HETATM   13  C   UNL     1     -10.652  11.251  64.586  1.00  0.00    -0.327 A  
HETATM   14  C   UNL     1     -11.965  12.720  65.988  1.00  0.00    -0.491 A  
ENDBRANCH   2   4
BRANCH   2  15
HETATM   15  C   UNL     1      -8.814   7.149  66.158  1.00  0.00    -0.150 C  
BRANCH  15  16
HETATM   16  N   UNL     1      -7.593   6.769  66.889  1.00  0.00    -0.090 NA 
HETATM   17  H   UNL     1      -6.754   7.186  66.485  1.00  0.00     0.000 HD 
BRANCH  16  18
HETATM   18  C   UNL     1      -7.755   7.108  68.314  1.00  0.00    -0.120 C  
BRANCH  18  19
HETATM   19  C   UNL     1      -8.518   6.001  69.071  1.00  0.00    -0.117 C  
HETATM   20  H   UNL     1      -8.034   4.459  70.187  1.00  0.00     0.000 HD 
HETATM   21  O   UNL     1      -7.564   5.141  69.721  1.00  0.00    -0.060 OA 
BRANCH  19  22
HETATM   22  C   UNL     1      -9.496   6.568  70.127  1.00  0.00    -0.157 C  
HETATM   23  C   UNL     1     -11.645   6.294  71.334  1.00  0.00    -0.338 C  
HETATM   24  C   UNL     1     -10.785   5.750  70.208  1.00  0.00    -0.380 C  
HETATM   25  C   UNL     1     -11.739   7.788  71.228  1.00  0.00    -0.311 A  
HETATM   26  C   UNL     1     -10.802   8.520  70.487  1.00  0.00    -0.228 A  
HETATM   27  O   UNL     1      -9.770   7.945  69.791  1.00  0.00    -0.174 OA 
HETATM   28  C   UNL     1     -10.910   9.910  70.387  1.00  0.00    -0.380 A  
HETATM   29  C   UNL     1     -11.943  10.579  71.044  1.00  0.00    -0.466 A  
HETATM   30  C   UNL     1     -12.860   9.853  71.792  1.00  0.00    -0.442 A  
HETATM   31  F   UNL     1     -13.855  10.492  72.423  1.00  0.00    -0.340 F  
HETATM   32  C   UNL     1     -12.768   8.469  71.893  1.00  0.00    -0.401 A  
ENDBRANCH  19  22
ENDBRANCH  18  19
ENDBRANCH  16  18
ENDBRANCH  15  16
ENDBRANCH   2  15
TORSDOF 6
ENDMDL
MODEL      112
REMARK 921   NORMALIZED FREE ENERGY PREDICTED BY IDOCK:   -6.26 KCAL/MOL
REMARK 922        TOTAL FREE ENERGY PREDICTED BY IDOCK:   -9.64 KCAL/MOL
REMARK 923 INTER-LIGAND FREE ENERGY PREDICTED BY IDOCK:   -9.19 KCAL/MOL
REMARK 924 INTRA-LIGAND FREE ENERGY PREDICTED BY IDOCK:   -0.45 KCAL/MOL
REMARK 927      BINDING AFFINITY PREDICTED BY RF-SCORE:    0.00 PKD
ROOT
HETATM    1  O   UNL     1     -10.617  12.431  66.792  1.00  0.00    -0.223 OA 
HETATM    2  C   UNL     1     -11.720  13.192  67.305  1.00  0.00    -0.374 C  
HETATM    3  H   UNL     1     -10.538  12.575  65.857  1.00  0.00     0.000 HD 
ENDROOT
BRANCH   2   4
HETATM    4  C   UNL     1     -11.535  14.685  66.948  1.00  0.00    -0.363 C  
HETATM    5  C   UNL     1      -9.627  19.252  67.548  1.00  0.00    -0.313 A  
HETATM    6  C   UNL     1      -9.775  18.719  68.821  1.00  0.00    -0.432 A  
HETATM    7  C   UNL     1     -10.698  14.887  65.681  1.00  0.00    -0.352 C  
HETATM    8  C   UNL     1     -10.683  16.365  65.334  1.00  0.00    -0.310 C  
HETATM    9  F   UNL     1      -9.189  20.511  67.405  1.00  0.00    -0.445 F  
HETATM   10  C   UNL     1     -10.228  17.405  68.965  1.00  0.00    -0.317 A  
HETATM   11  O   UNL     1     -10.947  15.359  68.075  1.00  0.00    -0.285 OA 
HETATM   12  C   UNL     1     -10.368  17.178  66.555  1.00  0.00    -0.306 A  
HETATM   13  C   UNL     1     -10.533  16.642  67.838  1.00  0.00    -0.322 A  
HETATM   14  C   UNL     1      -9.921  18.500  66.416  1.00  0.00    -0.399 A  
ENDBRANCH   2   4
BRANCH   2  15
HETATM   15  C   UNL     1     -11.849  12.957  68.824  1.00  0.00    -0.315 C  
BRANCH  15  16
HETATM   16  N   UNL     1     -11.158  11.730  69.257  1.00  0.00    -0.346 NA 
HETATM   17  H   UNL     1     -10.419  11.920  69.934  1.00  0.00     0.000 HD 
BRANCH  16  18
HETATM   18  C   UNL     1     -12.151  10.768  69.768  1.00  0.00    -0.318 C  
BRANCH  18  19
HETATM   19  C   UNL     1     -11.846  10.365  71.224  1.00  0.00    -0.289 C  
HETATM   20  H   UNL     1     -12.734  10.566  72.965  1.00  0.00     0.000 HD 
HETATM   21  O   UNL     1     -12.922  10.815  72.067  1.00  0.00    -0.463 OA 
BRANCH  19  22
HETATM   22  C   UNL     1     -11.669   8.838  71.395  1.00  0.00    -0.305 C  
HETATM   23  C   UNL     1     -12.770   6.630  71.659  1.00  0.00    -0.280 C  
HETATM   24  C   UNL     1     -13.007   8.129  71.609  1.00  0.00    -0.352 C  
HETATM   25  C   UNL     1     -11.631   6.325  72.586  1.00  0.00    -0.213 A  
HETATM   26  C   UNL     1     -10.702   7.313  72.940  1.00  0.00    -0.322 A  
HETATM   27  O   UNL     1     -10.774   8.611  72.505  1.00  0.00    -0.307 OA 
HETATM   28  C   UNL     1      -9.654   7.017  73.816  1.00  0.00    -0.281 A  
HETATM   29  C   UNL     1      -9.515   5.726  74.327  1.00  0.00    -0.151 A  
HETATM   30  C   UNL     1     -10.427   4.744  73.961  1.00  0.00    -0.276 A  
HETATM   31  F   UNL     1     -10.297   3.504  74.452  1.00  0.00    -0.174 F  
HETATM   32  C   UNL     1     -11.478   5.029  73.096  1.00  0.00    -0.362 A  
ENDBRANCH  19  22
ENDBRANCH  18  19
ENDBRANCH  16  18
ENDBRANCH  15  16
ENDBRANCH   2  15
TORSDOF 6
ENDMDL
MODEL      113
REMARK 921   NORMALIZED FREE ENERGY PREDICTED BY IDOCK:   -6.25 KCAL/MOL
REMARK 922        TOTAL FREE ENERGY PREDICTED BY IDOCK:   -9.62 KCAL/MOL
REMARK 923 INTER-LIGAND FREE ENERGY PREDICTED BY IDOCK:   -8.98 KCAL/MOL
REMARK 924 INTRA-LIGAND FREE ENERGY PREDICTED BY IDOCK:   -0.65 KCAL/MOL
REMARK 927      BINDING AFFINITY PREDICTED BY RF-SCORE:    0.00 PKD
ROOT
HETATM    1  O   UNL     1     -13.820   9.441  70.901  1.00  0.00    -0.558 OA 
HETATM    2  C   UNL     1     -12.819  10.011  71.756  1.00  0.00    -0.446 C  
HETATM    3  H   UNL     1     -14.484  10.092  70.708  1.00  0.00     0.000 HD 
ENDROOT
BRANCH   2   4
HETATM    4  C   UNL     1     -12.232  11.280  71.097  1.00  0.00    -0.246 C  
HETATM    5  C   UNL     1     -11.321  14.363  67.285  1.00  0.00    -0.342 A  
HETATM    6  C   UNL     1     -11.303  13.077  66.762  1.00  0.00    -0.365 A  
HETATM    7  C   UNL     1     -13.000  12.549  71.478  1.00  0.00    -0.379 C  
HETATM    8  C   UNL     1     -12.277  13.753  70.899  1.00  0.00    -0.427 C  
HETATM    9  F   UNL     1     -11.039  15.404  66.489  1.00  0.00    -0.318 F  
HETATM   10  C   UNL     1     -11.601  11.995  67.594  1.00  0.00    -0.392 A  
HETATM   11  O   UNL     1     -12.209  11.092  69.671  1.00  0.00    -0.330 OA 
HETATM   12  C   UNL     1     -11.940  13.509  69.459  1.00  0.00    -0.390 A  
HETATM   13  C   UNL     1     -11.907  12.208  68.938  1.00  0.00    -0.304 A  
HETATM   14  C   UNL     1     -11.632  14.590  68.622  1.00  0.00    -0.346 A  
ENDBRANCH   2   4
BRANCH   2  15
HETATM   15  C   UNL     1     -11.742   8.952  72.068  1.00  0.00    -0.367 C  
BRANCH  15  16
HETATM   16  N   UNL     1     -12.286   7.813  72.828  1.00  0.00    -0.591 NA 
HETATM   17  H   UNL     1     -13.219   8.002  73.194  1.00  0.00     0.000 HD 
BRANCH  16  18
HETATM   18  C   UNL     1     -12.249   6.605  71.984  1.00  0.00    -0.293 C  
BRANCH  18  19
HETATM   19  C   UNL     1     -10.804   6.110  71.773  1.00  0.00    -0.255 C  
HETATM   20  H   UNL     1      -9.793   4.479  72.188  1.00  0.00     0.000 HD 
HETATM   21  O   UNL     1     -10.683   4.783  72.318  1.00  0.00    -0.191 OA 
BRANCH  19  22
HETATM   22  C   UNL     1     -10.394   6.089  70.282  1.00  0.00    -0.222 C  
HETATM   23  C   UNL     1     -11.009   6.642  67.944  1.00  0.00    -0.342 C  
HETATM   24  C   UNL     1     -11.518   6.588  69.373  1.00  0.00    -0.346 C  
HETATM   25  C   UNL     1     -10.315   5.358  67.600  1.00  0.00    -0.235 A  
HETATM   26  C   UNL     1      -9.847   4.498  68.603  1.00  0.00    -0.098 A  
HETATM   27  O   UNL     1     -10.008   4.739  69.943  1.00  0.00    -0.208 OA 
HETATM   28  C   UNL     1      -9.215   3.298  68.267  1.00  0.00    -0.239 A  
HETATM   29  C   UNL     1      -9.026   2.959  66.927  1.00  0.00    -0.176 A  
HETATM   30  C   UNL     1      -9.476   3.820  65.935  1.00  0.00    -0.171 A  
HETATM   31  F   UNL     1      -9.299   3.497  64.647  1.00  0.00    -0.124 F  
HETATM   32  C   UNL     1     -10.114   5.014  66.257  1.00  0.00    -0.275 A  
ENDBRANCH  19  22
ENDBRANCH  18  19
ENDBRANCH  16  18
ENDBRANCH  15  16
ENDBRANCH   2  15
TORSDOF 6
ENDMDL
MODEL      114
REMARK 921   NORMALIZED FREE ENERGY PREDICTED BY IDOCK:   -6.24 KCAL/MOL
REMARK 922        TOTAL FREE ENERGY PREDICTED BY IDOCK:   -9.61 KCAL/MOL
REMARK 923 INTER-LIGAND FREE ENERGY PREDICTED BY IDOCK:   -8.52 KCAL/MOL
REMARK 924 INTRA-LIGAND FREE ENERGY PREDICTED BY IDOCK:   -1.09 KCAL/MOL
REMARK 927      BINDING AFFINITY PREDICTED BY RF-SCORE:    0.00 PKD
ROOT
HETATM    1  O   UNL     1     -12.285  12.308  67.802  1.00  0.00    -0.425 OA 
HETATM    2  C   UNL     1     -10.899  12.520  67.498  1.00  0.00    -0.232 C  
HETATM    3  H   UNL     1     -12.443  12.499  68.719  1.00  0.00     0.000 HD 
ENDROOT
BRANCH   2   4
HETATM    4  C   UNL     1     -10.495  13.962  67.883  1.00  0.00    -0.242 C  
HETATM    5  C   UNL     1     -10.311  18.905  67.248  1.00  0.00    -0.418 A  
HETATM    6  C   UNL     1     -10.266  18.344  65.978  1.00  0.00    -0.354 A  
HETATM    7  C   UNL     1     -11.300  14.501  69.069  1.00  0.00    -0.296 C  
HETATM    8  C   UNL     1     -10.748  15.861  69.460  1.00  0.00    -0.288 C  
HETATM    9  F   UNL     1     -10.211  20.234  67.387  1.00  0.00    -0.523 F  
HETATM   10  C   UNL     1     -10.374  16.958  65.836  1.00  0.00    -0.327 A  
HETATM   11  O   UNL     1     -10.642  14.806  66.726  1.00  0.00    -0.291 OA 
HETATM   12  C   UNL     1     -10.581  16.719  68.241  1.00  0.00    -0.352 A  
HETATM   13  C   UNL     1     -10.520  16.149  66.963  1.00  0.00    -0.306 A  
HETATM   14  C   UNL     1     -10.463  18.109  68.378  1.00  0.00    -0.308 A  
ENDBRANCH   2   4
BRANCH   2  15
HETATM   15  C   UNL     1     -10.642  12.210  66.009  1.00  0.00    -0.257 C  
BRANCH  15  16
HETATM   16  N   UNL     1      -9.502  11.294  65.822  1.00  0.00    -0.221 NA 
HETATM   17  H   UNL     1      -8.898  11.255  66.642  1.00  0.00     0.000 HD 
BRANCH  16  18
HETATM   18  C   UNL     1     -10.007   9.965  65.434  1.00  0.00    -0.279 C  
BRANCH  18  19
HETATM   19  C   UNL     1      -9.051   8.845  65.892  1.00  0.00    -0.218 C  
HETATM   20  H   UNL     1      -7.130   8.693  66.274  1.00  0.00     0.000 HD 
HETATM   21  O   UNL     1      -7.719   9.383  65.992  1.00  0.00    -0.098 OA 
BRANCH  19  22
HETATM   22  C   UNL     1      -9.457   8.236  67.254  1.00  0.00    -0.151 C  
HETATM   23  C   UNL     1     -10.785   6.519  68.456  1.00  0.00    -0.329 C  
HETATM   24  C   UNL     1     -10.517   7.144  67.098  1.00  0.00    -0.389 C  
HETATM   25  C   UNL     1     -10.997   7.595  69.480  1.00  0.00    -0.108 A  
HETATM   26  C   UNL     1     -10.551   8.904  69.256  1.00  0.00    -0.207 A  
HETATM   27  O   UNL     1      -9.930   9.306  68.101  1.00  0.00    -0.163 OA 
HETATM   28  C   UNL     1     -10.768   9.898  70.213  1.00  0.00    -0.367 A  
HETATM   29  C   UNL     1     -11.413   9.587  71.410  1.00  0.00    -0.462 A  
HETATM   30  C   UNL     1     -11.839   8.284  71.637  1.00  0.00    -0.299 A  
HETATM   31  F   UNL     1     -12.461   7.982  72.785  1.00  0.00    -0.285 F  
HETATM   32  C   UNL     1     -11.636   7.288  70.689  1.00  0.00    -0.322 A  
ENDBRANCH  19  22
ENDBRANCH  18  19
ENDBRANCH  16  18
ENDBRANCH  15  16
ENDBRANCH   2  15
TORSDOF 6
ENDMDL
MODEL      115
REMARK 921   NORMALIZED FREE ENERGY PREDICTED BY IDOCK:   -6.24 KCAL/MOL
REMARK 922        TOTAL FREE ENERGY PREDICTED BY IDOCK:   -9.61 KCAL/MOL
REMARK 923 INTER-LIGAND FREE ENERGY PREDICTED BY IDOCK:   -7.72 KCAL/MOL
REMARK 924 INTRA-LIGAND FREE ENERGY PREDICTED BY IDOCK:   -1.90 KCAL/MOL
REMARK 927      BINDING AFFINITY PREDICTED BY RF-SCORE:    0.00 PKD
ROOT
HETATM    1  O   UNL     1      -8.269   9.228  67.356  1.00  0.00    -0.116 OA 
HETATM    2  C   UNL     1      -9.642   8.872  67.140  1.00  0.00    -0.172 C  
HETATM    3  H   UNL     1      -7.793   9.172  66.536  1.00  0.00     0.000 HD 
ENDROOT
BRANCH   2   4
HETATM    4  C   UNL     1     -10.248   9.773  66.039  1.00  0.00    -0.193 C  
HETATM    5  C   UNL     1     -12.165  14.010  64.241  1.00  0.00    -0.418 A  
HETATM    6  C   UNL     1     -12.592  13.915  65.559  1.00  0.00    -0.560 A  
HETATM    7  C   UNL     1      -9.208  10.222  65.008  1.00  0.00    -0.259 C  
HETATM    8  C   UNL     1      -9.912  10.984  63.900  1.00  0.00    -0.396 C  
HETATM    9  F   UNL     1     -12.587  15.031  63.481  1.00  0.00    -0.133 F  
HETATM   10  C   UNL     1     -12.146  12.852  66.348  1.00  0.00    -0.400 A  
HETATM   11  O   UNL     1     -10.883  10.902  66.665  1.00  0.00    -0.252 OA 
HETATM   12  C   UNL     1     -10.845  12.002  64.486  1.00  0.00    -0.363 A  
HETATM   13  C   UNL     1     -11.286  11.894  65.812  1.00  0.00    -0.312 A  
HETATM   14  C   UNL     1     -11.302  13.066  63.696  1.00  0.00    -0.392 A  
ENDBRANCH   2   4
BRANCH   2  15
HETATM   15  C   UNL     1     -10.415   8.962  68.472  1.00  0.00    -0.182 C  
BRANCH  15  16
HETATM   16  N   UNL     1      -9.903  10.037  69.340  1.00  0.00    -0.211 NA 
HETATM   17  H   UNL     1      -9.703  10.892  68.821  1.00  0.00     0.000 HD 
BRANCH  16  18
HETATM   18  C   UNL     1     -10.852  10.261  70.445  1.00  0.00    -0.253 C  
BRANCH  18  19
HETATM   19  C   UNL     1     -11.978  11.230  70.030  1.00  0.00    -0.368 C  
HETATM   20  H   UNL     1     -13.823  11.582  70.604  1.00  0.00     0.000 HD 
HETATM   21  O   UNL     1     -13.129  10.986  70.859  1.00  0.00    -0.279 OA 
BRANCH  19  22
HETATM   22  C   UNL     1     -11.564  12.714  70.158  1.00  0.00    -0.062 C  
HETATM   23  C   UNL     1     -12.303  15.074  70.354  1.00  0.00    -0.401 C  
HETATM   24  C   UNL     1     -12.772  13.650  70.114  1.00  0.00    -0.111 C  
HETATM   25  C   UNL     1     -11.121  15.375  69.481  1.00  0.00    -0.284 A  
HETATM   26  C   UNL     1     -10.354  14.344  68.922  1.00  0.00    -0.231 A  
HETATM   27  O   UNL     1     -10.633  13.013  69.095  1.00  0.00    -0.112 OA 
HETATM   28  C   UNL     1      -9.264  14.640  68.099  1.00  0.00    -0.192 A  
HETATM   29  C   UNL     1      -8.919  15.968  67.848  1.00  0.00    -0.186 A  
HETATM   30  C   UNL     1      -9.670  16.989  68.418  1.00  0.00    -0.279 A  
HETATM   31  F   UNL     1      -9.343  18.265  68.176  1.00  0.00    -0.265 F  
HETATM   32  C   UNL     1     -10.762  16.707  69.231  1.00  0.00    -0.337 A  
ENDBRANCH  19  22
ENDBRANCH  18  19
ENDBRANCH  16  18
ENDBRANCH  15  16
ENDBRANCH   2  15
TORSDOF 6
ENDMDL
MODEL      116
REMARK 921   NORMALIZED FREE ENERGY PREDICTED BY IDOCK:   -6.24 KCAL/MOL
REMARK 922        TOTAL FREE ENERGY PREDICTED BY IDOCK:   -9.61 KCAL/MOL
REMARK 923 INTER-LIGAND FREE ENERGY PREDICTED BY IDOCK:   -8.31 KCAL/MOL
REMARK 924 INTRA-LIGAND FREE ENERGY PREDICTED BY IDOCK:   -1.30 KCAL/MOL
REMARK 927      BINDING AFFINITY PREDICTED BY RF-SCORE:    0.00 PKD
ROOT
HETATM    1  O   UNL     1     -10.423  11.823  69.574  1.00  0.00    -0.432 OA 
HETATM    2  C   UNL     1     -11.345  10.781  69.226  1.00  0.00    -0.286 C  
HETATM    3  H   UNL     1     -10.229  11.780  70.503  1.00  0.00     0.000 HD 
ENDROOT
BRANCH   2   4
HETATM    4  C   UNL     1     -10.767   9.410  69.648  1.00  0.00    -0.235 C  
HETATM    5  C   UNL     1      -7.262   5.869  69.836  1.00  0.00    -0.073 A  
HETATM    6  C   UNL     1      -7.155   6.461  68.584  1.00  0.00    -0.083 A  
HETATM    7  C   UNL     1     -10.392   9.363  71.133  1.00  0.00    -0.377 C  
HETATM    8  C   UNL     1      -9.963   7.949  71.486  1.00  0.00    -0.214 C  
HETATM    9  F   UNL     1      -6.476   4.827  70.144  1.00  0.00    -0.029 F  
HETATM   10  C   UNL     1      -7.973   7.548  68.268  1.00  0.00    -0.123 A  
HETATM   11  O   UNL     1      -9.634   9.110  68.813  1.00  0.00    -0.155 OA 
HETATM   12  C   UNL     1      -8.986   7.437  70.469  1.00  0.00    -0.156 A  
HETATM   13  C   UNL     1      -8.892   8.027  69.202  1.00  0.00    -0.145 A  
HETATM   14  C   UNL     1      -8.169   6.341  70.778  1.00  0.00    -0.125 A  
ENDBRANCH   2   4
BRANCH   2  15
HETATM   15  C   UNL     1     -11.660  10.851  67.718  1.00  0.00    -0.146 C  
BRANCH  15  16
HETATM   16  N   UNL     1     -10.901  11.918  67.041  1.00  0.00    -0.246 NA 
HETATM   17  H   UNL     1     -10.379  11.570  66.236  1.00  0.00     0.000 HD 
BRANCH  16  18
HETATM   18  C   UNL     1     -11.818  13.014  66.682  1.00  0.00    -0.393 C  
BRANCH  18  19
HETATM   19  C   UNL     1     -11.130  14.387  66.808  1.00  0.00    -0.323 C  
HETATM   20  H   UNL     1     -11.055  16.036  65.743  1.00  0.00     0.000 HD 
HETATM   21  O   UNL     1     -11.479  15.190  65.665  1.00  0.00    -0.303 OA 
BRANCH  19  22
HETATM   22  C   UNL     1     -11.531  15.138  68.100  1.00  0.00    -0.342 C  
HETATM   23  C   UNL     1     -10.820  16.637  69.944  1.00  0.00    -0.206 C  
HETATM   24  C   UNL     1     -10.335  15.835  68.750  1.00  0.00    -0.220 C  
HETATM   25  C   UNL     1     -11.717  15.791  70.797  1.00  0.00    -0.430 A  
HETATM   26  C   UNL     1     -12.328  14.639  70.282  1.00  0.00    -0.349 A  
HETATM   27  O   UNL     1     -12.135  14.187  69.002  1.00  0.00    -0.343 OA 
HETATM   28  C   UNL     1     -13.151  13.853  71.093  1.00  0.00    -0.351 A  
HETATM   29  C   UNL     1     -13.387  14.223  72.417  1.00  0.00    -0.568 A  
HETATM   30  C   UNL     1     -12.794  15.375  72.920  1.00  0.00    -0.445 A  
HETATM   31  F   UNL     1     -13.017  15.732  74.191  1.00  0.00    -0.587 F  
HETATM   32  C   UNL     1     -11.967  16.161  72.125  1.00  0.00    -0.623 A  
ENDBRANCH  19  22
ENDBRANCH  18  19
ENDBRANCH  16  18
ENDBRANCH  15  16
ENDBRANCH   2  15
TORSDOF 6
ENDMDL
MODEL      117
REMARK 921   NORMALIZED FREE ENERGY PREDICTED BY IDOCK:   -6.20 KCAL/MOL
REMARK 922        TOTAL FREE ENERGY PREDICTED BY IDOCK:   -9.56 KCAL/MOL
REMARK 923 INTER-LIGAND FREE ENERGY PREDICTED BY IDOCK:   -8.53 KCAL/MOL
REMARK 924 INTRA-LIGAND FREE ENERGY PREDICTED BY IDOCK:   -1.03 KCAL/MOL
REMARK 927      BINDING AFFINITY PREDICTED BY RF-SCORE:    0.00 PKD
ROOT
HETATM    1  O   UNL     1      -9.310  16.041  69.416  1.00  0.00    -0.254 OA 
HETATM    2  C   UNL     1     -10.634  16.561  69.227  1.00  0.00    -0.327 C  
HETATM    3  H   UNL     1      -9.149  15.907  70.342  1.00  0.00     0.000 HD 
ENDROOT
BRANCH   2   4
HETATM    4  C   UNL     1     -11.666  15.611  69.877  1.00  0.00    -0.362 C  
HETATM    5  C   UNL     1     -13.257  11.234  71.659  1.00  0.00    -0.327 A  
HETATM    6  C   UNL     1     -12.427  10.942  70.585  1.00  0.00    -0.460 A  
HETATM    7  C   UNL     1     -11.858  15.887  71.372  1.00  0.00    -0.524 C  
HETATM    8  C   UNL     1     -12.978  15.005  71.894  1.00  0.00    -0.429 C  
HETATM    9  F   UNL     1     -13.886  10.238  72.299  1.00  0.00    -0.395 F  
HETATM   10  C   UNL     1     -11.770  11.983  69.924  1.00  0.00    -0.374 A  
HETATM   11  O   UNL     1     -11.252  14.252  69.646  1.00  0.00    -0.248 OA 
HETATM   12  C   UNL     1     -12.780  13.591  71.432  1.00  0.00    -0.423 A  
HETATM   13  C   UNL     1     -11.954  13.302  70.338  1.00  0.00    -0.275 A  
HETATM   14  C   UNL     1     -13.443  12.544  72.087  1.00  0.00    -0.523 A  
ENDBRANCH   2   4
BRANCH   2  15
HETATM   15  C   UNL     1     -10.894  16.778  67.722  1.00  0.00    -0.285 C  
BRANCH  15  16
HETATM   16  N   UNL     1     -10.074  15.887  66.882  1.00  0.00    -0.259 NA 
HETATM   17  H   UNL     1      -9.539  15.218  67.435  1.00  0.00     0.000 HD 
BRANCH  16  18
HETATM   18  C   UNL     1     -10.939  15.227  65.888  1.00  0.00    -0.325 C  
BRANCH  18  19
HETATM   19  C   UNL     1     -11.642  13.992  66.486  1.00  0.00    -0.374 C  
HETATM   20  H   UNL     1     -13.372  13.093  66.246  1.00  0.00     0.000 HD 
HETATM   21  O   UNL     1     -12.939  13.854  65.877  1.00  0.00    -0.436 OA 
BRANCH  19  22
HETATM   22  C   UNL     1     -10.838  12.687  66.274  1.00  0.00    -0.273 C  
HETATM   23  C   UNL     1      -8.945  11.264  67.010  1.00  0.00    -0.154 C  
HETATM   24  C   UNL     1      -9.619  12.611  67.195  1.00  0.00    -0.207 C  
HETATM   25  C   UNL     1      -8.767  10.978  65.548  1.00  0.00    -0.144 A  
HETATM   26  C   UNL     1      -9.529  11.651  64.583  1.00  0.00    -0.046 A  
HETATM   27  O   UNL     1     -10.448  12.622  64.885  1.00  0.00    -0.290 OA 
HETATM   28  C   UNL     1      -9.343  11.384  63.224  1.00  0.00    -0.267 A  
HETATM   29  C   UNL     1      -8.411  10.427  62.821  1.00  0.00    -0.194 A  
HETATM   30  C   UNL     1      -7.671   9.749  63.781  1.00  0.00    -0.135 A  
HETATM   31  F   UNL     1      -6.773   8.830  63.398  1.00  0.00    -0.088 F  
HETATM   32  C   UNL     1      -7.841  10.012  65.136  1.00  0.00    -0.136 A  
ENDBRANCH  19  22
ENDBRANCH  18  19
ENDBRANCH  16  18
ENDBRANCH  15  16
ENDBRANCH   2  15
TORSDOF 6
ENDMDL
MODEL      118
REMARK 921   NORMALIZED FREE ENERGY PREDICTED BY IDOCK:   -6.19 KCAL/MOL
REMARK 922        TOTAL FREE ENERGY PREDICTED BY IDOCK:   -9.55 KCAL/MOL
REMARK 923 INTER-LIGAND FREE ENERGY PREDICTED BY IDOCK:   -8.25 KCAL/MOL
REMARK 924 INTRA-LIGAND FREE ENERGY PREDICTED BY IDOCK:   -1.30 KCAL/MOL
REMARK 927      BINDING AFFINITY PREDICTED BY RF-SCORE:    0.00 PKD
ROOT
HETATM    1  O   UNL     1     -13.249   7.256  71.271  1.00  0.00    -0.478 OA 
HETATM    2  C   UNL     1     -12.453   8.230  71.962  1.00  0.00    -0.351 C  
HETATM    3  H   UNL     1     -14.143   7.568  71.200  1.00  0.00     0.000 HD 
ENDROOT
BRANCH   2   4
HETATM    4  C   UNL     1     -12.552   9.593  71.239  1.00  0.00    -0.352 C  
HETATM    5  C   UNL     1     -13.046  14.551  71.026  1.00  0.00    -0.366 A  
HETATM    6  C   UNL     1     -13.822  14.125  72.097  1.00  0.00    -0.613 A  
HETATM    7  C   UNL     1     -11.206  10.059  70.675  1.00  0.00    -0.425 C  
HETATM    8  C   UNL     1     -11.423  11.329  69.871  1.00  0.00    -0.373 C  
HETATM    9  F   UNL     1     -13.040  15.848  70.689  1.00  0.00    -0.486 F  
HETATM   10  C   UNL     1     -13.822  12.772  72.447  1.00  0.00    -0.360 A  
HETATM   11  O   UNL     1     -13.099  10.562  72.152  1.00  0.00    -0.459 OA 
HETATM   12  C   UNL     1     -12.261  12.297  70.653  1.00  0.00    -0.378 A  
HETATM   13  C   UNL     1     -13.054  11.861  71.722  1.00  0.00    -0.360 A  
HETATM   14  C   UNL     1     -12.271  13.653  70.300  1.00  0.00    -0.423 A  
ENDBRANCH   2   4
BRANCH   2  15
HETATM   15  C   UNL     1     -11.001   7.724  72.077  1.00  0.00    -0.257 C  
BRANCH  15  16
HETATM   16  N   UNL     1     -10.798   6.450  71.365  1.00  0.00    -0.244 NA 
HETATM   17  H   UNL     1     -11.640   6.141  70.879  1.00  0.00     0.000 HD 
BRANCH  16  18
HETATM   18  C   UNL     1      -9.643   6.579  70.459  1.00  0.00    -0.169 C  
BRANCH  18  19
HETATM   19  C   UNL     1     -10.066   6.431  68.984  1.00  0.00    -0.165 C  
HETATM   20  H   UNL     1     -11.763   6.258  68.009  1.00  0.00     0.000 HD 
HETATM   21  O   UNL     1     -11.502   6.349  68.918  1.00  0.00    -0.314 OA 
BRANCH  19  22
HETATM   22  C   UNL     1      -9.582   7.607  68.105  1.00  0.00    -0.149 C  
HETATM   23  C   UNL     1     -10.183   9.362  66.458  1.00  0.00    -0.308 C  
HETATM   24  C   UNL     1     -10.697   8.146  67.208  1.00  0.00    -0.263 C  
HETATM   25  C   UNL     1      -8.847   9.059  65.849  1.00  0.00    -0.210 A  
HETATM   26  C   UNL     1      -8.064   7.995  66.318  1.00  0.00    -0.112 A  
HETATM   27  O   UNL     1      -8.458   7.149  67.322  1.00  0.00    -0.120 OA 
HETATM   28  C   UNL     1      -6.827   7.716  65.731  1.00  0.00    -0.053 A  
HETATM   29  C   UNL     1      -6.353   8.511  64.687  1.00  0.00    -0.065 A  
HETATM   30  C   UNL     1      -7.124   9.575  64.236  1.00  0.00    -0.108 A  
HETATM   31  F   UNL     1      -6.673  10.339  63.231  1.00  0.00    -0.127 F  
HETATM   32  C   UNL     1      -8.360   9.858  64.806  1.00  0.00    -0.163 A  
ENDBRANCH  19  22
ENDBRANCH  18  19
ENDBRANCH  16  18
ENDBRANCH  15  16
ENDBRANCH   2  15
TORSDOF 6
ENDMDL
MODEL      119
REMARK 921   NORMALIZED FREE ENERGY PREDICTED BY IDOCK:   -6.16 KCAL/MOL
REMARK 922        TOTAL FREE ENERGY PREDICTED BY IDOCK:   -9.50 KCAL/MOL
REMARK 923 INTER-LIGAND FREE ENERGY PREDICTED BY IDOCK:   -7.44 KCAL/MOL
REMARK 924 INTRA-LIGAND FREE ENERGY PREDICTED BY IDOCK:   -2.06 KCAL/MOL
REMARK 927      BINDING AFFINITY PREDICTED BY RF-SCORE:    0.00 PKD
ROOT
HETATM    1  O   UNL     1     -13.239  14.176  65.005  1.00  0.00    -0.691 OA 
HETATM    2  C   UNL     1     -11.974  14.264  64.334  1.00  0.00    -0.456 C  
HETATM    3  H   UNL     1     -13.642  13.337  64.816  1.00  0.00     0.000 HD 
ENDROOT
BRANCH   2   4
HETATM    4  C   UNL     1     -11.082  13.070  64.742  1.00  0.00    -0.322 C  
HETATM    5  C   UNL     1      -9.936   9.009  67.400  1.00  0.00    -0.209 A  
HETATM    6  C   UNL     1     -10.625   9.857  68.257  1.00  0.00    -0.269 A  
HETATM    7  C   UNL     1     -11.081  11.951  63.696  1.00  0.00    -0.517 C  
HETATM    8  C   UNL     1     -10.081  10.888  64.114  1.00  0.00    -0.416 C  
HETATM    9  F   UNL     1      -9.442   7.854  67.868  1.00  0.00    -0.141 F  
HETATM   10  C   UNL     1     -11.141  11.058  67.763  1.00  0.00    -0.356 A  
HETATM   11  O   UNL     1     -11.519  12.585  66.025  1.00  0.00    -0.336 OA 
HETATM   12  C   UNL     1     -10.276  10.536  65.559  1.00  0.00    -0.325 A  
HETATM   13  C   UNL     1     -10.958  11.401  66.424  1.00  0.00    -0.260 A  
HETATM   14  C   UNL     1      -9.753   9.336  66.061  1.00  0.00    -0.359 A  
ENDBRANCH   2   4
BRANCH   2  15
HETATM   15  C   UNL     1     -11.319  15.626  64.642  1.00  0.00    -0.349 C  
BRANCH  15  16
HETATM   16  N   UNL     1     -10.122  15.488  65.491  1.00  0.00    -0.367 NA 
HETATM   17  H   UNL     1      -9.302  15.198  64.959  1.00  0.00     0.000 HD 
BRANCH  16  18
HETATM   18  C   UNL     1      -9.899  16.747  66.223  1.00  0.00    -0.309 C  
BRANCH  18  19
HETATM   19  C   UNL     1      -8.462  16.828  66.776  1.00  0.00    -0.234 C  
HETATM   20  H   UNL     1      -7.397  18.154  67.759  1.00  0.00     0.000 HD 
HETATM   21  O   UNL     1      -8.282  18.104  67.419  1.00  0.00    -0.231 OA 
BRANCH  19  22
HETATM   22  C   UNL     1      -8.147  15.700  67.786  1.00  0.00    -0.146 C  
HETATM   23  C   UNL     1      -6.773  14.950  69.710  1.00  0.00    -0.179 C  
HETATM   24  C   UNL     1      -6.955  16.048  68.677  1.00  0.00    -0.133 C  
HETATM   25  C   UNL     1      -6.810  13.609  69.040  1.00  0.00    -0.110 A  
HETATM   26  C   UNL     1      -7.379  13.451  67.769  1.00  0.00    -0.157 A  
HETATM   27  O   UNL     1      -7.906  14.486  67.041  1.00  0.00    -0.151 OA 
HETATM   28  C   UNL     1      -7.394  12.197  67.152  1.00  0.00    -0.124 A  
HETATM   29  C   UNL     1      -6.860  11.089  67.809  1.00  0.00    -0.069 A  
HETATM   30  C   UNL     1      -6.312  11.245  69.076  1.00  0.00    -0.060 A  
HETATM   31  F   UNL     1      -5.796  10.183  69.709  1.00  0.00    -0.039 F  
HETATM   32  C   UNL     1      -6.284  12.488  69.697  1.00  0.00    -0.126 A  
ENDBRANCH  19  22
ENDBRANCH  18  19
ENDBRANCH  16  18
ENDBRANCH  15  16
ENDBRANCH   2  15
TORSDOF 6
ENDMDL
MODEL      120
REMARK 921   NORMALIZED FREE ENERGY PREDICTED BY IDOCK:   -6.14 KCAL/MOL
REMARK 922        TOTAL FREE ENERGY PREDICTED BY IDOCK:   -9.48 KCAL/MOL
REMARK 923 INTER-LIGAND FREE ENERGY PREDICTED BY IDOCK:   -8.87 KCAL/MOL
REMARK 924 INTRA-LIGAND FREE ENERGY PREDICTED BY IDOCK:   -0.61 KCAL/MOL
REMARK 927      BINDING AFFINITY PREDICTED BY RF-SCORE:    0.00 PKD
ROOT
HETATM    1  O   UNL     1     -12.714  16.181  69.671  1.00  0.00    -0.489 OA 
HETATM    2  C   UNL     1     -11.574  15.343  69.434  1.00  0.00    -0.340 C  
HETATM    3  H   UNL     1     -12.443  16.963  70.139  1.00  0.00     0.000 HD 
ENDROOT
BRANCH   2   4
HETATM    4  C   UNL     1     -10.488  16.142  68.676  1.00  0.00    -0.269 C  
HETATM    5  C   UNL     1      -8.196  20.303  67.162  1.00  0.00    -0.334 A  
HETATM    6  C   UNL     1      -9.551  20.601  67.220  1.00  0.00    -0.558 A  
HETATM    7  C   UNL     1      -9.116  16.056  69.352  1.00  0.00    -0.189 C  
HETATM    8  C   UNL     1      -8.091  16.751  68.474  1.00  0.00    -0.241 C  
HETATM    9  F   UNL     1      -7.334  21.229  66.717  1.00  0.00    -0.291 F  
HETATM   10  C   UNL     1     -10.446  19.634  67.687  1.00  0.00    -0.579 A  
HETATM   11  O   UNL     1     -10.923  17.508  68.550  1.00  0.00    -0.214 OA 
HETATM   12  C   UNL     1      -8.609  18.091  68.040  1.00  0.00    -0.267 A  
HETATM   13  C   UNL     1      -9.978  18.382  68.085  1.00  0.00    -0.364 A  
HETATM   14  C   UNL     1      -7.716  19.061  67.562  1.00  0.00    -0.262 A  
ENDBRANCH   2   4
BRANCH   2  15
HETATM   15  C   UNL     1     -12.014  14.074  68.675  1.00  0.00    -0.354 C  
BRANCH  15  16
HETATM   16  N   UNL     1     -11.101  13.746  67.566  1.00  0.00    -0.272 NA 
HETATM   17  H   UNL     1     -10.471  14.516  67.342  1.00  0.00     0.000 HD 
BRANCH  16  18
HETATM   18  C   UNL     1     -10.375  12.504  67.888  1.00  0.00    -0.216 C  
BRANCH  18  19
HETATM   19  C   UNL     1     -11.248  11.260  67.627  1.00  0.00    -0.292 C  
HETATM   20  H   UNL     1     -11.276   9.801  66.311  1.00  0.00     0.000 HD 
HETATM   21  O   UNL     1     -10.739  10.568  66.472  1.00  0.00    -0.205 OA 
BRANCH  19  22
HETATM   22  C   UNL     1     -11.275  10.288  68.831  1.00  0.00    -0.207 C  
HETATM   23  C   UNL     1     -12.155   9.807  71.099  1.00  0.00    -0.460 C  
HETATM   24  C   UNL     1     -12.080  10.853  70.002  1.00  0.00    -0.433 C  
HETATM   25  C   UNL     1     -10.790   9.244  71.362  1.00  0.00    -0.434 A  
HETATM   26  C   UNL     1      -9.764   9.365  70.415  1.00  0.00    -0.261 A  
HETATM   27  O   UNL     1      -9.911  10.016  69.218  1.00  0.00    -0.190 OA 
HETATM   28  C   UNL     1      -8.493   8.847  70.680  1.00  0.00    -0.211 A  
HETATM   29  C   UNL     1      -8.244   8.188  71.884  1.00  0.00    -0.180 A  
HETATM   30  C   UNL     1      -9.268   8.055  72.814  1.00  0.00    -0.252 A  
HETATM   31  F   UNL     1      -9.032   7.424  73.972  1.00  0.00    -0.201 F  
HETATM   32  C   UNL     1     -10.534   8.572  72.565  1.00  0.00    -0.303 A  
ENDBRANCH  19  22
ENDBRANCH  18  19
ENDBRANCH  16  18
ENDBRANCH  15  16
ENDBRANCH   2  15
TORSDOF 6
ENDMDL
MODEL      121
REMARK 921   NORMALIZED FREE ENERGY PREDICTED BY IDOCK:   -6.14 KCAL/MOL
REMARK 922        TOTAL FREE ENERGY PREDICTED BY IDOCK:   -9.47 KCAL/MOL
REMARK 923 INTER-LIGAND FREE ENERGY PREDICTED BY IDOCK:   -8.70 KCAL/MOL
REMARK 924 INTRA-LIGAND FREE ENERGY PREDICTED BY IDOCK:   -0.78 KCAL/MOL
REMARK 927      BINDING AFFINITY PREDICTED BY RF-SCORE:    0.00 PKD
ROOT
HETATM    1  O   UNL     1     -11.275  12.039  63.064  1.00  0.00    -0.675 OA 
HETATM    2  C   UNL     1     -11.112  12.545  64.396  1.00  0.00    -0.339 C  
HETATM    3  H   UNL     1     -10.423  11.880  62.676  1.00  0.00     0.000 HD 
ENDROOT
BRANCH   2   4
HETATM    4  C   UNL     1     -10.256  11.561  65.227  1.00  0.00    -0.267 C  
HETATM    5  C   UNL     1      -9.461   8.271  68.889  1.00  0.00    -0.151 A  
HETATM    6  C   UNL     1     -10.370   9.197  69.384  1.00  0.00    -0.220 A  
HETATM    7  C   UNL     1      -9.961  10.259  64.475  1.00  0.00    -0.359 C  
HETATM    8  C   UNL     1      -9.010   9.416  65.307  1.00  0.00    -0.250 C  
HETATM    9  F   UNL     1      -9.010   7.295  69.690  1.00  0.00    -0.139 F  
HETATM   10  C   UNL     1     -10.841  10.211  68.546  1.00  0.00    -0.278 A  
HETATM   11  O   UNL     1     -10.929  11.303  66.473  1.00  0.00    -0.282 OA 
HETATM   12  C   UNL     1      -9.490   9.347  66.726  1.00  0.00    -0.217 A  
HETATM   13  C   UNL     1     -10.395  10.292  67.227  1.00  0.00    -0.232 A  
HETATM   14  C   UNL     1      -9.014   8.337  67.574  1.00  0.00    -0.141 A  
ENDBRANCH   2   4
BRANCH   2  15
HETATM   15  C   UNL     1     -12.497  12.802  65.025  1.00  0.00    -0.506 C  
BRANCH  15  16
HETATM   16  N   UNL     1     -12.715  14.229  65.323  1.00  0.00    -0.597 NA 
HETATM   17  H   UNL     1     -13.355  14.368  66.105  1.00  0.00     0.000 HD 
BRANCH  16  18
HETATM   18  C   UNL     1     -11.413  14.883  65.542  1.00  0.00    -0.307 C  
BRANCH  18  19
HETATM   19  C   UNL     1     -11.256  15.346  67.004  1.00  0.00    -0.229 C  
HETATM   20  H   UNL     1     -11.217  14.479  68.767  1.00  0.00     0.000 HD 
HETATM   21  O   UNL     1     -11.314  14.194  67.866  1.00  0.00    -0.267 OA 
BRANCH  19  22
HETATM   22  C   UNL     1      -9.928  16.099  67.251  1.00  0.00    -0.248 C  
HETATM   23  C   UNL     1      -8.026  16.521  68.787  1.00  0.00    -0.236 C  
HETATM   24  C   UNL     1      -9.378  15.843  68.655  1.00  0.00    -0.212 C  
HETATM   25  C   UNL     1      -8.114  17.934  68.290  1.00  0.00    -0.294 A  
HETATM   26  C   UNL     1      -9.152  18.338  67.440  1.00  0.00    -0.253 A  
HETATM   27  O   UNL     1     -10.163  17.507  67.031  1.00  0.00    -0.307 OA 
HETATM   28  C   UNL     1      -9.227  19.660  66.995  1.00  0.00    -0.425 A  
HETATM   29  C   UNL     1      -8.254  20.583  67.379  1.00  0.00    -0.344 A  
HETATM   30  C   UNL     1      -7.216  20.176  68.207  1.00  0.00    -0.245 A  
HETATM   31  F   UNL     1      -6.280  21.060  68.580  1.00  0.00    -0.350 F  
HETATM   32  C   UNL     1      -7.134  18.864  68.663  1.00  0.00    -0.327 A  
ENDBRANCH  19  22
ENDBRANCH  18  19
ENDBRANCH  16  18
ENDBRANCH  15  16
ENDBRANCH   2  15
TORSDOF 6
ENDMDL
MODEL      122
REMARK 921   NORMALIZED FREE ENERGY PREDICTED BY IDOCK:   -6.13 KCAL/MOL
REMARK 922        TOTAL FREE ENERGY PREDICTED BY IDOCK:   -9.46 KCAL/MOL
REMARK 923 INTER-LIGAND FREE ENERGY PREDICTED BY IDOCK:   -8.18 KCAL/MOL
REMARK 924 INTRA-LIGAND FREE ENERGY PREDICTED BY IDOCK:   -1.28 KCAL/MOL
REMARK 927      BINDING AFFINITY PREDICTED BY RF-SCORE:    0.00 PKD
ROOT
HETATM    1  O   UNL     1     -13.427  11.506  72.579  1.00  0.00    -0.529 OA 
HETATM    2  C   UNL     1     -12.929  10.639  71.550  1.00  0.00    -0.461 C  
HETATM    3  H   UNL     1     -12.839  12.243  72.687  1.00  0.00     0.000 HD 
ENDROOT
BRANCH   2   4
HETATM    4  C   UNL     1     -12.734  11.441  70.242  1.00  0.00    -0.044 C  
HETATM    5  C   UNL     1     -11.161  15.320  67.532  1.00  0.00    -0.324 A  
HETATM    6  C   UNL     1     -11.538  15.831  68.767  1.00  0.00    -0.401 A  
HETATM    7  C   UNL     1     -11.671  10.825  69.328  1.00  0.00    -0.374 C  
HETATM    8  C   UNL     1     -11.643  11.594  68.019  1.00  0.00    -0.383 C  
HETATM    9  F   UNL     1     -10.752  16.156  66.567  1.00  0.00    -0.314 F  
HETATM   10  C   UNL     1     -11.960  14.956  69.771  1.00  0.00    -0.366 A  
HETATM   11  O   UNL     1     -12.409  12.802  70.579  1.00  0.00    -0.339 OA 
HETATM   12  C   UNL     1     -11.609  13.070  68.288  1.00  0.00    -0.375 A  
HETATM   13  C   UNL     1     -12.005  13.583  69.530  1.00  0.00    -0.334 A  
HETATM   14  C   UNL     1     -11.194  13.953  67.281  1.00  0.00    -0.329 A  
ENDBRANCH   2   4
BRANCH   2  15
HETATM   15  C   UNL     1     -13.885   9.442  71.374  1.00  0.00    -0.189 C  
BRANCH  15  16
HETATM   16  N   UNL     1     -13.158   8.183  71.130  1.00  0.00    -0.518 NA 
HETATM   17  H   UNL     1     -12.768   8.137  70.189  1.00  0.00     0.000 HD 
BRANCH  16  18
HETATM   18  C   UNL     1     -12.130   8.006  72.171  1.00  0.00    -0.343 C  
BRANCH  18  19
HETATM   19  C   UNL     1     -10.880   7.298  71.613  1.00  0.00    -0.220 C  
HETATM   20  H   UNL     1     -10.172   5.466  71.615  1.00  0.00     0.000 HD 
HETATM   21  O   UNL     1     -10.942   5.902  71.959  1.00  0.00    -0.245 OA 
BRANCH  19  22
HETATM   22  C   UNL     1     -10.753   7.437  70.077  1.00  0.00    -0.246 C  
HETATM   23  C   UNL     1     -10.678   6.287  67.881  1.00  0.00    -0.380 C  
HETATM   24  C   UNL     1     -10.692   6.075  69.384  1.00  0.00    -0.403 C  
HETATM   25  C   UNL     1      -9.662   7.329  67.522  1.00  0.00    -0.181 A  
HETATM   26  C   UNL     1      -9.184   8.235  68.480  1.00  0.00    -0.136 A  
HETATM   27  O   UNL     1      -9.573   8.221  69.794  1.00  0.00    -0.169 OA 
HETATM   28  C   UNL     1      -8.227   9.191  68.133  1.00  0.00    -0.116 A  
HETATM   29  C   UNL     1      -7.756   9.265  66.822  1.00  0.00    -0.094 A  
HETATM   30  C   UNL     1      -8.243   8.378  65.870  1.00  0.00    -0.123 A  
HETATM   31  F   UNL     1      -7.791   8.445  64.611  1.00  0.00    -0.097 F  
HETATM   32  C   UNL     1      -9.190   7.416  66.205  1.00  0.00    -0.148 A  
ENDBRANCH  19  22
ENDBRANCH  18  19
ENDBRANCH  16  18
ENDBRANCH  15  16
ENDBRANCH   2  15
TORSDOF 6
ENDMDL
MODEL      123
REMARK 921   NORMALIZED FREE ENERGY PREDICTED BY IDOCK:   -6.12 KCAL/MOL
REMARK 922        TOTAL FREE ENERGY PREDICTED BY IDOCK:   -9.45 KCAL/MOL
REMARK 923 INTER-LIGAND FREE ENERGY PREDICTED BY IDOCK:   -7.82 KCAL/MOL
REMARK 924 INTRA-LIGAND FREE ENERGY PREDICTED BY IDOCK:   -1.63 KCAL/MOL
REMARK 927      BINDING AFFINITY PREDICTED BY RF-SCORE:    0.00 PKD
ROOT
HETATM    1  O   UNL     1      -9.153   3.618  72.977  1.00  0.00    -0.098 OA 
HETATM    2  C   UNL     1     -10.092   4.494  72.336  1.00  0.00    -0.183 C  
HETATM    3  H   UNL     1      -8.837   2.977  72.353  1.00  0.00     0.000 HD 
ENDROOT
BRANCH   2   4
HETATM    4  C   UNL     1      -9.435   5.145  71.097  1.00  0.00    -0.153 C  
HETATM    5  C   UNL     1      -9.411   7.906  66.945  1.00  0.00    -0.164 A  
HETATM    6  C   UNL     1     -10.648   7.277  66.990  1.00  0.00    -0.415 A  
HETATM    7  C   UNL     1      -8.531   6.326  71.463  1.00  0.00    -0.130 C  
HETATM    8  C   UNL     1      -7.828   6.814  70.208  1.00  0.00    -0.110 C  
HETATM    9  F   UNL     1      -9.097   8.672  65.890  1.00  0.00    -0.190 F  
HETATM   10  C   UNL     1     -10.973   6.483  68.093  1.00  0.00    -0.365 A  
HETATM   11  O   UNL     1     -10.472   5.545  70.182  1.00  0.00    -0.260 OA 
HETATM   12  C   UNL     1      -8.817   6.971  69.092  1.00  0.00    -0.135 A  
HETATM   13  C   UNL     1     -10.058   6.322  69.133  1.00  0.00    -0.168 A  
HETATM   14  C   UNL     1      -8.493   7.760  67.979  1.00  0.00    -0.123 A  
ENDBRANCH   2   4
BRANCH   2  15
HETATM   15  C   UNL     1     -10.605   5.536  73.351  1.00  0.00    -0.258 C  
BRANCH  15  16
HETATM   16  N   UNL     1     -11.832   6.207  72.886  1.00  0.00    -0.494 NA 
HETATM   17  H   UNL     1     -12.623   6.039  73.507  1.00  0.00     0.000 HD 
BRANCH  16  18
HETATM   18  C   UNL     1     -11.559   7.643  72.702  1.00  0.00    -0.317 C  
BRANCH  18  19
HETATM   19  C   UNL     1     -12.298   8.202  71.470  1.00  0.00    -0.306 C  
HETATM   20  H   UNL     1     -14.172   8.465  70.942  1.00  0.00     0.000 HD 
HETATM   21  O   UNL     1     -13.716   8.120  71.701  1.00  0.00    -0.352 OA 
BRANCH  19  22
HETATM   22  C   UNL     1     -11.916   9.669  71.161  1.00  0.00    -0.367 C  
HETATM   23  C   UNL     1     -12.550  12.062  71.311  1.00  0.00    -0.357 C  
HETATM   24  C   UNL     1     -13.034  10.641  71.539  1.00  0.00    -0.566 C  
HETATM   25  C   UNL     1     -11.918  12.175  69.956  1.00  0.00    -0.391 A  
HETATM   26  C   UNL     1     -11.468  11.038  69.271  1.00  0.00    -0.300 A  
HETATM   27  O   UNL     1     -11.594   9.762  69.757  1.00  0.00    -0.160 OA 
HETATM   28  C   UNL     1     -10.893  11.158  68.003  1.00  0.00    -0.274 A  
HETATM   29  C   UNL     1     -10.744  12.416  67.420  1.00  0.00    -0.257 A  
HETATM   30  C   UNL     1     -11.175  13.544  68.108  1.00  0.00    -0.272 A  
HETATM   31  F   UNL     1     -11.036  14.754  67.550  1.00  0.00    -0.273 F  
HETATM   32  C   UNL     1     -11.756  13.437  69.367  1.00  0.00    -0.382 A  
ENDBRANCH  19  22
ENDBRANCH  18  19
ENDBRANCH  16  18
ENDBRANCH  15  16
ENDBRANCH   2  15
TORSDOF 6
ENDMDL
MODEL      124
REMARK 921   NORMALIZED FREE ENERGY PREDICTED BY IDOCK:   -6.11 KCAL/MOL
REMARK 922        TOTAL FREE ENERGY PREDICTED BY IDOCK:   -9.44 KCAL/MOL
REMARK 923 INTER-LIGAND FREE ENERGY PREDICTED BY IDOCK:   -8.57 KCAL/MOL
REMARK 924 INTRA-LIGAND FREE ENERGY PREDICTED BY IDOCK:   -0.87 KCAL/MOL
REMARK 927      BINDING AFFINITY PREDICTED BY RF-SCORE:    0.00 PKD
ROOT
HETATM    1  O   UNL     1     -12.645   7.279  72.651  1.00  0.00    -0.451 OA 
HETATM    2  C   UNL     1     -11.901   7.633  71.476  1.00  0.00    -0.295 C  
HETATM    3  H   UNL     1     -13.345   6.682  72.416  1.00  0.00     0.000 HD 
ENDROOT
BRANCH   2   4
HETATM    4  C   UNL     1     -11.382   6.353  70.781  1.00  0.00    -0.350 C  
HETATM    5  C   UNL     1      -9.439   3.764  66.988  1.00  0.00    -0.200 A  
HETATM    6  C   UNL     1     -10.244   4.744  66.422  1.00  0.00    -0.308 A  
HETATM    7  C   UNL     1     -10.023   5.899  71.323  1.00  0.00    -0.232 C  
HETATM    8  C   UNL     1      -9.659   4.571  70.683  1.00  0.00    -0.260 C  
HETATM    9  F   UNL     1      -8.833   2.868  66.197  1.00  0.00    -0.118 F  
HETATM   10  C   UNL     1     -10.871   5.678  67.251  1.00  0.00    -0.217 A  
HETATM   11  O   UNL     1     -11.326   6.589  69.362  1.00  0.00    -0.354 OA 
HETATM   12  C   UNL     1      -9.867   4.639  69.199  1.00  0.00    -0.242 A  
HETATM   13  C   UNL     1     -10.692   5.619  68.633  1.00  0.00    -0.179 A  
HETATM   14  C   UNL     1      -9.247   3.699  68.364  1.00  0.00    -0.219 A  
ENDBRANCH   2   4
BRANCH   2  15
HETATM   15  C   UNL     1     -10.763   8.602  71.857  1.00  0.00    -0.344 C  
BRANCH  15  16
HETATM   16  N   UNL     1     -11.025   9.976  71.392  1.00  0.00    -0.141 NA 
HETATM   17  H   UNL     1     -10.286  10.624  71.664  1.00  0.00     0.000 HD 
BRANCH  16  18
HETATM   18  C   UNL     1     -11.246   9.960  69.935  1.00  0.00    -0.250 C  
BRANCH  18  19
HETATM   19  C   UNL     1     -10.014  10.488  69.173  1.00  0.00    -0.220 C  
HETATM   20  H   UNL     1      -8.617   9.712  68.031  1.00  0.00     0.000 HD 
HETATM   21  O   UNL     1      -9.376   9.386  68.500  1.00  0.00    -0.137 OA 
BRANCH  19  22
HETATM   22  C   UNL     1     -10.376  11.577  68.136  1.00  0.00    -0.195 C  
HETATM   23  C   UNL     1     -11.901  13.430  67.507  1.00  0.00    -0.408 C  
HETATM   24  C   UNL     1     -11.667  12.308  68.504  1.00  0.00    -0.381 C  
HETATM   25  C   UNL     1     -11.734  12.912  66.109  1.00  0.00    -0.451 A  
HETATM   26  C   UNL     1     -11.031  11.726  65.856  1.00  0.00    -0.304 A  
HETATM   27  O   UNL     1     -10.483  10.946  66.842  1.00  0.00    -0.228 OA 
HETATM   28  C   UNL     1     -10.896  11.250  64.550  1.00  0.00    -0.354 A  
HETATM   29  C   UNL     1     -11.441  11.966  63.485  1.00  0.00    -0.523 A  
HETATM   30  C   UNL     1     -12.121  13.151  63.736  1.00  0.00    -0.495 A  
HETATM   31  F   UNL     1     -12.648  13.841  62.715  1.00  0.00    -0.260 F  
HETATM   32  C   UNL     1     -12.270  13.631  65.033  1.00  0.00    -0.450 A  
ENDBRANCH  19  22
ENDBRANCH  18  19
ENDBRANCH  16  18
ENDBRANCH  15  16
ENDBRANCH   2  15
TORSDOF 6
ENDMDL
MODEL      125
REMARK 921   NORMALIZED FREE ENERGY PREDICTED BY IDOCK:   -6.10 KCAL/MOL
REMARK 922        TOTAL FREE ENERGY PREDICTED BY IDOCK:   -9.43 KCAL/MOL
REMARK 923 INTER-LIGAND FREE ENERGY PREDICTED BY IDOCK:   -8.75 KCAL/MOL
REMARK 924 INTRA-LIGAND FREE ENERGY PREDICTED BY IDOCK:   -0.68 KCAL/MOL
REMARK 927      BINDING AFFINITY PREDICTED BY RF-SCORE:    0.00 PKD
ROOT
HETATM    1  O   UNL     1      -7.858  11.857  66.684  1.00  0.00    -0.321 OA 
HETATM    2  C   UNL     1      -9.220  11.409  66.723  1.00  0.00    -0.177 C  
HETATM    3  H   UNL     1      -7.578  12.104  67.557  1.00  0.00     0.000 HD 
ENDROOT
BRANCH   2   4
HETATM    4  C   UNL     1      -9.359  10.252  67.739  1.00  0.00    -0.144 C  
HETATM    5  C   UNL     1     -10.101   5.508  69.085  1.00  0.00    -0.216 A  
HETATM    6  C   UNL     1     -10.898   5.728  67.969  1.00  0.00    -0.251 A  
HETATM    7  C   UNL     1      -8.017   9.844  68.354  1.00  0.00    -0.096 C  
HETATM    8  C   UNL     1      -8.265   8.803  69.431  1.00  0.00    -0.108 C  
HETATM    9  F   UNL     1     -10.149   4.321  69.707  1.00  0.00    -0.288 F  
HETATM   10  C   UNL     1     -10.843   6.965  67.321  1.00  0.00    -0.426 A  
HETATM   11  O   UNL     1      -9.994   9.137  67.086  1.00  0.00    -0.185 OA 
HETATM   12  C   UNL     1      -9.185   7.736  68.914  1.00  0.00    -0.140 A  
HETATM   13  C   UNL     1      -9.999   7.968  67.798  1.00  0.00    -0.175 A  
HETATM   14  C   UNL     1      -9.250   6.497  69.565  1.00  0.00    -0.142 A  
ENDBRANCH   2   4
BRANCH   2  15
HETATM   15  C   UNL     1      -9.674  11.009  65.304  1.00  0.00    -0.239 C  
BRANCH  15  16
HETATM   16  N   UNL     1      -9.651  12.149  64.371  1.00  0.00    -0.478 NA 
HETATM   17  H   UNL     1      -8.836  12.131  63.759  1.00  0.00     0.000 HD 
BRANCH  16  18
HETATM   18  C   UNL     1     -10.917  12.185  63.618  1.00  0.00    -0.461 C  
BRANCH  18  19
HETATM   19  C   UNL     1     -11.861  13.279  64.156  1.00  0.00    -0.443 C  
HETATM   20  H   UNL     1     -13.717  13.358  64.793  1.00  0.00     0.000 HD 
HETATM   21  O   UNL     1     -13.136  12.684  64.461  1.00  0.00    -0.763 OA 
BRANCH  19  22
HETATM   22  C   UNL     1     -11.307  13.973  65.423  1.00  0.00    -0.315 C  
HETATM   23  C   UNL     1     -11.562  14.378  67.857  1.00  0.00    -0.374 C  
HETATM   24  C   UNL     1     -12.219  13.766  66.632  1.00  0.00    -0.454 C  
HETATM   25  C   UNL     1     -11.081  15.763  67.540  1.00  0.00    -0.258 A  
HETATM   26  C   UNL     1     -10.885  16.174  66.214  1.00  0.00    -0.135 A  
HETATM   27  O   UNL     1     -11.139  15.377  65.128  1.00  0.00    -0.375 OA 
HETATM   28  C   UNL     1     -10.449  17.471  65.934  1.00  0.00    -0.251 A  
HETATM   29  C   UNL     1     -10.186  18.361  66.976  1.00  0.00    -0.402 A  
HETATM   30  C   UNL     1     -10.365  17.945  68.290  1.00  0.00    -0.383 A  
HETATM   31  F   UNL     1     -10.115  18.797  69.293  1.00  0.00    -0.405 F  
HETATM   32  C   UNL     1     -10.805  16.659  68.581  1.00  0.00    -0.344 A  
ENDBRANCH  19  22
ENDBRANCH  18  19
ENDBRANCH  16  18
ENDBRANCH  15  16
ENDBRANCH   2  15
TORSDOF 6
ENDMDL
MODEL      126
REMARK 921   NORMALIZED FREE ENERGY PREDICTED BY IDOCK:   -6.10 KCAL/MOL
REMARK 922        TOTAL FREE ENERGY PREDICTED BY IDOCK:   -9.42 KCAL/MOL
REMARK 923 INTER-LIGAND FREE ENERGY PREDICTED BY IDOCK:   -8.16 KCAL/MOL
REMARK 924 INTRA-LIGAND FREE ENERGY PREDICTED BY IDOCK:   -1.26 KCAL/MOL
REMARK 927      BINDING AFFINITY PREDICTED BY RF-SCORE:    0.00 PKD
ROOT
HETATM    1  O   UNL     1     -10.060   7.631  68.382  1.00  0.00    -0.175 OA 
HETATM    2  C   UNL     1      -9.311   8.780  67.961  1.00  0.00    -0.142 C  
HETATM    3  H   UNL     1     -10.979   7.860  68.457  1.00  0.00     0.000 HD 
ENDROOT
BRANCH   2   4
HETATM    4  C   UNL     1      -9.896   9.329  66.639  1.00  0.00    -0.245 C  
HETATM    5  C   UNL     1     -11.959  12.820  63.736  1.00  0.00    -0.510 A  
HETATM    6  C   UNL     1     -12.470  13.018  65.012  1.00  0.00    -0.534 A  
HETATM    7  C   UNL     1      -8.818   9.593  65.584  1.00  0.00    -0.189 C  
HETATM    8  C   UNL     1      -9.491   9.998  64.284  1.00  0.00    -0.336 C  
HETATM    9  F   UNL     1     -12.393  13.583  62.724  1.00  0.00    -0.476 F  
HETATM   10  C   UNL     1     -12.012  12.222  66.065  1.00  0.00    -0.342 A  
HETATM   11  O   UNL     1     -10.648  10.522  66.927  1.00  0.00    -0.248 OA 
HETATM   12  C   UNL     1     -10.529  11.049  64.547  1.00  0.00    -0.411 A  
HETATM   13  C   UNL     1     -11.054  11.236  65.832  1.00  0.00    -0.101 A  
HETATM   14  C   UNL     1     -10.998  11.844  63.492  1.00  0.00    -0.505 A  
ENDBRANCH   2   4
BRANCH   2  15
HETATM   15  C   UNL     1      -7.819   8.409  67.839  1.00  0.00    -0.107 C  
BRANCH  15  16
HETATM   16  N   UNL     1      -6.993   9.087  68.854  1.00  0.00    -0.064 NA 
HETATM   17  H   UNL     1      -7.471   9.885  69.272  1.00  0.00     0.000 HD 
BRANCH  16  18
HETATM   18  C   UNL     1      -6.560   8.103  69.863  1.00  0.00    -0.039 C  
BRANCH  18  19
HETATM   19  C   UNL     1      -6.644   8.685  71.288  1.00  0.00    -0.069 C  
HETATM   20  H   UNL     1      -6.352  10.441  72.119  1.00  0.00     0.000 HD 
HETATM   21  O   UNL     1      -6.301  10.083  71.241  1.00  0.00    -0.304 OA 
BRANCH  19  22
HETATM   22  C   UNL     1      -8.049   8.527  71.914  1.00  0.00    -0.130 C  
HETATM   23  C   UNL     1      -9.838   6.976  72.655  1.00  0.00    -0.186 C  
HETATM   24  C   UNL     1      -8.506   7.068  71.931  1.00  0.00    -0.109 C  
HETATM   25  C   UNL     1     -10.776   8.024  72.132  1.00  0.00    -0.339 A  
HETATM   26  C   UNL     1     -10.295   9.145  71.442  1.00  0.00    -0.338 A  
HETATM   27  O   UNL     1      -8.968   9.354  71.168  1.00  0.00    -0.267 OA 
HETATM   28  C   UNL     1     -11.182  10.106  70.950  1.00  0.00    -0.383 A  
HETATM   29  C   UNL     1     -12.554   9.964  71.161  1.00  0.00    -0.464 A  
HETATM   30  C   UNL     1     -13.026   8.861  71.861  1.00  0.00    -0.382 A  
HETATM   31  F   UNL     1     -14.343   8.720  72.064  1.00  0.00    -0.431 F  
HETATM   32  C   UNL     1     -12.154   7.894  72.349  1.00  0.00    -0.336 A  
ENDBRANCH  19  22
ENDBRANCH  18  19
ENDBRANCH  16  18
ENDBRANCH  15  16
ENDBRANCH   2  15
TORSDOF 6
ENDMDL
MODEL      127
REMARK 921   NORMALIZED FREE ENERGY PREDICTED BY IDOCK:   -6.10 KCAL/MOL
REMARK 922        TOTAL FREE ENERGY PREDICTED BY IDOCK:   -9.42 KCAL/MOL
REMARK 923 INTER-LIGAND FREE ENERGY PREDICTED BY IDOCK:   -8.81 KCAL/MOL
REMARK 924 INTRA-LIGAND FREE ENERGY PREDICTED BY IDOCK:   -0.61 KCAL/MOL
REMARK 927      BINDING AFFINITY PREDICTED BY RF-SCORE:    0.00 PKD
ROOT
HETATM    1  O   UNL     1     -14.090   9.398  72.715  1.00  0.00    -0.822 OA 
HETATM    2  C   UNL     1     -13.259   9.634  71.570  1.00  0.00    -0.399 C  
HETATM    3  H   UNL     1     -14.236   8.465  72.817  1.00  0.00     0.000 HD 
ENDROOT
BRANCH   2   4
HETATM    4  C   UNL     1     -11.941   8.838  71.709  1.00  0.00    -0.349 C  
HETATM    5  C   UNL     1      -8.646   5.325  70.416  1.00  0.00    -0.115 A  
HETATM    6  C   UNL     1      -9.904   4.800  70.150  1.00  0.00    -0.308 A  
HETATM    7  C   UNL     1     -10.717   9.647  71.267  1.00  0.00    -0.317 C  
HETATM    8  C   UNL     1      -9.464   8.842  71.563  1.00  0.00    -0.341 C  
HETATM    9  F   UNL     1      -7.559   4.565  70.224  1.00  0.00    -0.048 F  
HETATM   10  C   UNL     1     -11.035   5.597  70.348  1.00  0.00    -0.278 A  
HETATM   11  O   UNL     1     -12.058   7.616  70.958  1.00  0.00    -0.305 OA 
HETATM   12  C   UNL     1      -9.626   7.435  71.069  1.00  0.00    -0.161 A  
HETATM   13  C   UNL     1     -10.897   6.904  70.816  1.00  0.00    -0.245 A  
HETATM   14  C   UNL     1      -8.495   6.629  70.876  1.00  0.00    -0.133 A  
ENDBRANCH   2   4
BRANCH   2  15
HETATM   15  C   UNL     1     -13.022  11.149  71.406  1.00  0.00    -0.403 C  
BRANCH  15  16
HETATM   16  N   UNL     1     -13.783  11.940  72.390  1.00  0.00    -0.394 NA 
HETATM   17  H   UNL     1     -13.910  11.443  73.271  1.00  0.00     0.000 HD 
BRANCH  16  18
HETATM   18  C   UNL     1     -13.126  13.246  72.573  1.00  0.00    -0.280 C  
BRANCH  18  19
HETATM   19  C   UNL     1     -13.494  14.225  71.440  1.00  0.00    -0.330 C  
HETATM   20  H   UNL     1     -14.369  15.979  71.314  1.00  0.00     0.000 HD 
HETATM   21  O   UNL     1     -14.142  15.376  72.012  1.00  0.00    -0.494 OA 
BRANCH  19  22
HETATM   22  C   UNL     1     -12.261  14.686  70.627  1.00  0.00    -0.325 C  
HETATM   23  C   UNL     1     -10.742  16.552  70.027  1.00  0.00    -0.222 C  
HETATM   24  C   UNL     1     -12.023  16.191  70.757  1.00  0.00    -0.216 C  
HETATM   25  C   UNL     1     -10.741  15.933  68.661  1.00  0.00    -0.274 A  
HETATM   26  C   UNL     1     -11.578  14.851  68.357  1.00  0.00    -0.325 A  
HETATM   27  O   UNL     1     -12.465  14.306  69.249  1.00  0.00    -0.241 OA 
HETATM   28  C   UNL     1     -11.576  14.294  67.076  1.00  0.00    -0.406 A  
HETATM   29  C   UNL     1     -10.722  14.798  66.095  1.00  0.00    -0.314 A  
HETATM   30  C   UNL     1      -9.881  15.860  66.404  1.00  0.00    -0.282 A  
HETATM   31  F   UNL     1      -9.060  16.349  65.464  1.00  0.00    -0.243 F  
HETATM   32  C   UNL     1      -9.879  16.428  67.673  1.00  0.00    -0.243 A  
ENDBRANCH  19  22
ENDBRANCH  18  19
ENDBRANCH  16  18
ENDBRANCH  15  16
ENDBRANCH   2  15
TORSDOF 6
ENDMDL
MODEL      128
REMARK 921   NORMALIZED FREE ENERGY PREDICTED BY IDOCK:   -6.09 KCAL/MOL
REMARK 922        TOTAL FREE ENERGY PREDICTED BY IDOCK:   -9.42 KCAL/MOL
REMARK 923 INTER-LIGAND FREE ENERGY PREDICTED BY IDOCK:   -8.10 KCAL/MOL
REMARK 924 INTRA-LIGAND FREE ENERGY PREDICTED BY IDOCK:   -1.32 KCAL/MOL
REMARK 927      BINDING AFFINITY PREDICTED BY RF-SCORE:    0.00 PKD
ROOT
HETATM    1  O   UNL     1     -10.934  13.557  69.783  1.00  0.00    -0.457 OA 
HETATM    2  C   UNL     1     -12.100  12.854  69.332  1.00  0.00    -0.198 C  
HETATM    3  H   UNL     1     -10.934  13.599  70.731  1.00  0.00     0.000 HD 
ENDROOT
BRANCH   2   4
HETATM    4  C   UNL     1     -12.152  11.455  69.988  1.00  0.00    -0.340 C  
HETATM    5  C   UNL     1     -10.206   7.509  72.334  1.00  0.00    -0.212 A  
HETATM    6  C   UNL     1      -9.218   7.987  71.484  1.00  0.00    -0.188 A  
HETATM    7  C   UNL     1     -12.857  11.470  71.348  1.00  0.00    -0.489 C  
HETATM    8  C   UNL     1     -12.980  10.043  71.853  1.00  0.00    -0.547 C  
HETATM    9  F   UNL     1      -9.981   6.399  73.052  1.00  0.00    -0.163 F  
HETATM   10  C   UNL     1      -9.455   9.145  70.740  1.00  0.00    -0.334 A  
HETATM   11  O   UNL     1     -10.810  10.948  70.100  1.00  0.00    -0.186 OA 
HETATM   12  C   UNL     1     -11.666   9.333  71.719  1.00  0.00    -0.456 A  
HETATM   13  C   UNL     1     -10.677   9.809  70.849  1.00  0.00    -0.305 A  
HETATM   14  C   UNL     1     -11.426   8.165  72.457  1.00  0.00    -0.470 A  
ENDBRANCH   2   4
BRANCH   2  15
HETATM   15  C   UNL     1     -12.100  12.786  67.791  1.00  0.00    -0.133 C  
BRANCH  15  16
HETATM   16  N   UNL     1     -11.517  11.528  67.290  1.00  0.00    -0.495 NA 
HETATM   17  H   UNL     1     -12.219  10.914  66.878  1.00  0.00     0.000 HD 
BRANCH  16  18
HETATM   18  C   UNL     1     -10.424  11.840  66.352  1.00  0.00    -0.235 C  
BRANCH  18  19
HETATM   19  C   UNL     1      -9.087  12.040  67.094  1.00  0.00    -0.186 C  
HETATM   20  H   UNL     1      -7.277  11.286  66.977  1.00  0.00     0.000 HD 
HETATM   21  O   UNL     1      -8.101  11.162  66.520  1.00  0.00    -0.156 OA 
BRANCH  19  22
HETATM   22  C   UNL     1      -8.577  13.498  67.018  1.00  0.00    -0.157 C  
HETATM   23  C   UNL     1      -7.039  15.217  67.931  1.00  0.00    -0.161 C  
HETATM   24  C   UNL     1      -7.577  13.811  68.132  1.00  0.00    -0.128 C  
HETATM   25  C   UNL     1      -8.173  16.167  67.687  1.00  0.00    -0.161 A  
HETATM   26  C   UNL     1      -9.427  15.704  67.267  1.00  0.00    -0.216 A  
HETATM   27  O   UNL     1      -9.721  14.377  67.081  1.00  0.00    -0.237 OA 
HETATM   28  C   UNL     1     -10.478  16.600  67.057  1.00  0.00    -0.283 A  
HETATM   29  C   UNL     1     -10.278  17.967  67.244  1.00  0.00    -0.371 A  
HETATM   30  C   UNL     1      -9.029  18.427  67.644  1.00  0.00    -0.274 A  
HETATM   31  F   UNL     1      -8.834  19.739  67.826  1.00  0.00    -0.337 F  
HETATM   32  C   UNL     1      -7.978  17.544  67.863  1.00  0.00    -0.227 A  
ENDBRANCH  19  22
ENDBRANCH  18  19
ENDBRANCH  16  18
ENDBRANCH  15  16
ENDBRANCH   2  15
TORSDOF 6
ENDMDL
MODEL      129
REMARK 921   NORMALIZED FREE ENERGY PREDICTED BY IDOCK:   -6.09 KCAL/MOL
REMARK 922        TOTAL FREE ENERGY PREDICTED BY IDOCK:   -9.41 KCAL/MOL
REMARK 923 INTER-LIGAND FREE ENERGY PREDICTED BY IDOCK:   -8.89 KCAL/MOL
REMARK 924 INTRA-LIGAND FREE ENERGY PREDICTED BY IDOCK:   -0.53 KCAL/MOL
REMARK 927      BINDING AFFINITY PREDICTED BY RF-SCORE:    0.00 PKD
ROOT
HETATM    1  O   UNL     1     -11.186  16.925  64.141  1.00  0.00    -1.386 OA 
HETATM    2  C   UNL     1     -11.219  16.167  65.358  1.00  0.00    -0.006 C  
HETATM    3  H   UNL     1     -11.304  17.847  64.336  1.00  0.00     0.000 HD 
ENDROOT
BRANCH   2   4
HETATM    4  C   UNL     1     -10.152  16.708  66.338  1.00  0.00    -0.315 C  
HETATM    5  C   UNL     1      -7.119  20.194  68.214  1.00  0.00    -0.269 A  
HETATM    6  C   UNL     1      -7.172  20.416  66.844  1.00  0.00    -0.333 A  
HETATM    7  C   UNL     1     -10.710  16.943  67.745  1.00  0.00    -0.315 C  
HETATM    8  C   UNL     1      -9.570  17.341  68.666  1.00  0.00    -0.284 C  
HETATM    9  F   UNL     1      -6.317  20.951  68.976  1.00  0.00    -0.335 F  
HETATM   10  C   UNL     1      -8.011  19.627  66.054  1.00  0.00    -0.337 A  
HETATM   11  O   UNL     1      -9.593  17.916  65.790  1.00  0.00    -0.514 OA 
HETATM   12  C   UNL     1      -8.738  18.411  68.023  1.00  0.00    -0.302 A  
HETATM   13  C   UNL     1      -8.783  18.623  66.639  1.00  0.00    -0.302 A  
HETATM   14  C   UNL     1      -7.888  19.200  68.810  1.00  0.00    -0.383 A  
ENDBRANCH   2   4
BRANCH   2  15
HETATM   15  C   UNL     1     -11.027  14.670  65.041  1.00  0.00    -0.405 C  
BRANCH  15  16
HETATM   16  N   UNL     1     -11.767  13.805  65.977  1.00  0.00    -0.347 NA 
HETATM   17  H   UNL     1     -12.773  13.822  65.807  1.00  0.00     0.000 HD 
BRANCH  16  18
HETATM   18  C   UNL     1     -11.212  12.441  65.918  1.00  0.00    -0.336 C  
BRANCH  18  19
HETATM   19  C   UNL     1     -10.180  12.205  67.039  1.00  0.00    -0.207 C  
HETATM   20  H   UNL     1     -10.210  12.153  69.002  1.00  0.00     0.000 HD 
HETATM   21  O   UNL     1     -10.846  12.299  68.312  1.00  0.00    -0.206 OA 
BRANCH  19  22
HETATM   22  C   UNL     1      -9.484  10.828  66.928  1.00  0.00    -0.168 C  
HETATM   23  C   UNL     1      -8.035   9.329  65.585  1.00  0.00    -0.103 C  
HETATM   24  C   UNL     1      -8.784  10.649  65.581  1.00  0.00    -0.198 C  
HETATM   25  C   UNL     1      -8.932   8.236  66.087  1.00  0.00    -0.222 A  
HETATM   26  C   UNL     1     -10.078   8.529  66.838  1.00  0.00    -0.294 A  
HETATM   27  O   UNL     1     -10.480   9.804  67.140  1.00  0.00    -0.243 OA 
HETATM   28  C   UNL     1     -10.911   7.501  67.287  1.00  0.00    -0.297 A  
HETATM   29  C   UNL     1     -10.593   6.172  67.008  1.00  0.00    -0.384 A  
HETATM   30  C   UNL     1      -9.447   5.883  66.278  1.00  0.00    -0.139 A  
HETATM   31  F   UNL     1      -9.139   4.607  66.007  1.00  0.00    -0.119 F  
HETATM   32  C   UNL     1      -8.614   6.897  65.819  1.00  0.00    -0.139 A  
ENDBRANCH  19  22
ENDBRANCH  18  19
ENDBRANCH  16  18
ENDBRANCH  15  16
ENDBRANCH   2  15
TORSDOF 6
ENDMDL
MODEL      130
REMARK 921   NORMALIZED FREE ENERGY PREDICTED BY IDOCK:   -6.05 KCAL/MOL
REMARK 922        TOTAL FREE ENERGY PREDICTED BY IDOCK:   -9.36 KCAL/MOL
REMARK 923 INTER-LIGAND FREE ENERGY PREDICTED BY IDOCK:   -8.02 KCAL/MOL
REMARK 924 INTRA-LIGAND FREE ENERGY PREDICTED BY IDOCK:   -1.34 KCAL/MOL
REMARK 927      BINDING AFFINITY PREDICTED BY RF-SCORE:    0.00 PKD
ROOT
HETATM    1  O   UNL     1      -7.500  14.003  69.646  1.00  0.00    -0.342 OA 
HETATM    2  C   UNL     1      -6.698  14.471  68.552  1.00  0.00    -0.096 C  
HETATM    3  H   UNL     1      -8.164  14.650  69.853  1.00  0.00     0.000 HD 
ENDROOT
BRANCH   2   4
HETATM    4  C   UNL     1      -7.604  14.801  67.344  1.00  0.00    -0.202 C  
HETATM    5  C   UNL     1     -11.751  14.443  64.598  1.00  0.00    -0.430 A  
HETATM    6  C   UNL     1     -11.540  13.189  65.155  1.00  0.00    -0.347 A  
HETATM    7  C   UNL     1      -8.205  16.208  67.426  1.00  0.00    -0.185 C  
HETATM    8  C   UNL     1      -8.966  16.493  66.143  1.00  0.00    -0.344 C  
HETATM    9  F   UNL     1     -12.773  14.627  63.750  1.00  0.00    -0.325 F  
HETATM   10  C   UNL     1     -10.476  13.003  66.041  1.00  0.00    -0.289 A  
HETATM   11  O   UNL     1      -8.633  13.799  67.251  1.00  0.00    -0.196 OA 
HETATM   12  C   UNL     1      -9.859  15.336  65.805  1.00  0.00    -0.395 A  
HETATM   13  C   UNL     1      -9.633  14.068  66.356  1.00  0.00    -0.283 A  
HETATM   14  C   UNL     1     -10.922  15.516  64.910  1.00  0.00    -0.452 A  
ENDBRANCH   2   4
BRANCH   2  15
HETATM   15  C   UNL     1      -5.620  13.421  68.214  1.00  0.00    -0.098 C  
BRANCH  15  16
HETATM   16  N   UNL     1      -5.955  12.650  67.004  1.00  0.00    -0.479 NA 
HETATM   17  H   UNL     1      -5.254  12.757  66.270  1.00  0.00     0.000 HD 
BRANCH  16  18
HETATM   18  C   UNL     1      -6.170  11.239  67.372  1.00  0.00    -0.071 C  
BRANCH  18  19
HETATM   19  C   UNL     1      -7.660  10.854  67.276  1.00  0.00    -0.104 C  
HETATM   20  H   UNL     1      -8.700   9.425  66.418  1.00  0.00     0.000 HD 
HETATM   21  O   UNL     1      -7.782   9.663  66.476  1.00  0.00    -0.097 OA 
BRANCH  19  22
HETATM   22  C   UNL     1      -8.301  10.605  68.662  1.00  0.00    -0.137 C  
HETATM   23  C   UNL     1      -8.485   9.111  70.633  1.00  0.00    -0.246 C  
HETATM   24  C   UNL     1      -7.913   9.241  69.233  1.00  0.00    -0.098 C  
HETATM   25  C   UNL     1      -9.931   9.513  70.633  1.00  0.00    -0.342 A  
HETATM   26  C   UNL     1     -10.462  10.298  69.601  1.00  0.00    -0.253 A  
HETATM   27  O   UNL     1      -9.733  10.725  68.521  1.00  0.00    -0.167 OA 
HETATM   28  C   UNL     1     -11.814  10.653  69.607  1.00  0.00    -0.358 A  
HETATM   29  C   UNL     1     -12.639  10.244  70.655  1.00  0.00    -0.391 A  
HETATM   30  C   UNL     1     -12.105   9.481  71.685  1.00  0.00    -0.398 A  
HETATM   31  F   UNL     1     -12.895   9.084  72.693  1.00  0.00    -0.455 F  
HETATM   32  C   UNL     1     -10.764   9.114  71.686  1.00  0.00    -0.441 A  
ENDBRANCH  19  22
ENDBRANCH  18  19
ENDBRANCH  16  18
ENDBRANCH  15  16
ENDBRANCH   2  15
TORSDOF 6
ENDMDL
MODEL      131
REMARK 921   NORMALIZED FREE ENERGY PREDICTED BY IDOCK:   -6.05 KCAL/MOL
REMARK 922        TOTAL FREE ENERGY PREDICTED BY IDOCK:   -9.35 KCAL/MOL
REMARK 923 INTER-LIGAND FREE ENERGY PREDICTED BY IDOCK:   -5.94 KCAL/MOL
REMARK 924 INTRA-LIGAND FREE ENERGY PREDICTED BY IDOCK:   -3.42 KCAL/MOL
REMARK 927      BINDING AFFINITY PREDICTED BY RF-SCORE:    0.00 PKD
ROOT
HETATM    1  O   UNL     1      -8.126  13.964  66.745  1.00  0.00    -0.385 OA 
HETATM    2  C   UNL     1      -7.424  13.854  67.991  1.00  0.00    -0.135 C  
HETATM    3  H   UNL     1      -7.570  13.662  66.038  1.00  0.00     0.000 HD 
ENDROOT
BRANCH   2   4
HETATM    4  C   UNL     1      -6.945  12.398  68.193  1.00  0.00    -0.087 C  
HETATM    5  C   UNL     1      -7.506   7.613  69.479  1.00  0.00    -0.092 A  
HETATM    6  C   UNL     1      -8.305   8.348  70.345  1.00  0.00    -0.121 A  
HETATM    7  C   UNL     1      -6.758  11.651  66.868  1.00  0.00    -0.124 C  
HETATM    8  C   UNL     1      -6.162  10.285  67.155  1.00  0.00    -0.062 C  
HETATM    9  F   UNL     1      -7.410   6.285  69.635  1.00  0.00    -0.070 F  
HETATM   10  C   UNL     1      -8.406   9.731  70.177  1.00  0.00    -0.201 A  
HETATM   11  O   UNL     1      -7.883  11.718  69.047  1.00  0.00    -0.061 OA 
HETATM   12  C   UNL     1      -6.913   9.617  68.269  1.00  0.00    -0.073 A  
HETATM   13  C   UNL     1      -7.705  10.364  69.150  1.00  0.00    -0.126 A  
HETATM   14  C   UNL     1      -6.808   8.231  68.447  1.00  0.00    -0.065 A  
ENDBRANCH   2   4
BRANCH   2  15
HETATM   15  C   UNL     1      -8.328  14.345  69.141  1.00  0.00     0.056 C  
BRANCH  15  16
HETATM   16  N   UNL     1      -9.264  15.395  68.701  1.00  0.00    -0.190 NA 
HETATM   17  H   UNL     1      -9.199  15.577  67.700  1.00  0.00     0.000 HD 
BRANCH  16  18
HETATM   18  C   UNL     1     -10.631  15.030  69.117  1.00  0.00    -0.251 C  
BRANCH  18  19
HETATM   19  C   UNL     1     -11.488  14.596  67.911  1.00  0.00    -0.329 C  
HETATM   20  H   UNL     1     -11.407  14.826  65.961  1.00  0.00     0.000 HD 
HETATM   21  O   UNL     1     -10.879  15.094  66.704  1.00  0.00    -0.311 OA 
BRANCH  19  22
HETATM   22  C   UNL     1     -11.638  13.060  67.809  1.00  0.00    -0.340 C  
HETATM   23  C   UNL     1     -11.726  10.891  69.009  1.00  0.00    -0.391 C  
HETATM   24  C   UNL     1     -11.458  12.378  69.165  1.00  0.00    -0.358 C  
HETATM   25  C   UNL     1     -10.975  10.359  67.825  1.00  0.00    -0.369 A  
HETATM   26  C   UNL     1     -10.510  11.217  66.818  1.00  0.00    -0.252 A  
HETATM   27  O   UNL     1     -10.672  12.578  66.849  1.00  0.00    -0.237 OA 
HETATM   28  C   UNL     1      -9.801  10.708  65.728  1.00  0.00    -0.296 A  
HETATM   29  C   UNL     1      -9.568   9.336  65.624  1.00  0.00    -0.324 A  
HETATM   30  C   UNL     1     -10.045   8.486  66.614  1.00  0.00    -0.294 A  
HETATM   31  F   UNL     1      -9.822   7.169  66.519  1.00  0.00    -0.233 F  
HETATM   32  C   UNL     1     -10.746   8.982  67.708  1.00  0.00    -0.217 A  
ENDBRANCH  19  22
ENDBRANCH  18  19
ENDBRANCH  16  18
ENDBRANCH  15  16
ENDBRANCH   2  15
TORSDOF 6
ENDMDL
MODEL      132
REMARK 921   NORMALIZED FREE ENERGY PREDICTED BY IDOCK:   -6.05 KCAL/MOL
REMARK 922        TOTAL FREE ENERGY PREDICTED BY IDOCK:   -9.35 KCAL/MOL
REMARK 923 INTER-LIGAND FREE ENERGY PREDICTED BY IDOCK:   -7.16 KCAL/MOL
REMARK 924 INTRA-LIGAND FREE ENERGY PREDICTED BY IDOCK:   -2.20 KCAL/MOL
REMARK 927      BINDING AFFINITY PREDICTED BY RF-SCORE:    0.00 PKD
ROOT
HETATM    1  O   UNL     1     -13.320   9.952  72.653  1.00  0.00    -0.569 OA 
HETATM    2  C   UNL     1     -13.029   9.757  71.262  1.00  0.00    -0.380 C  
HETATM    3  H   UNL     1     -13.603   9.131  73.038  1.00  0.00     0.000 HD 
ENDROOT
BRANCH   2   4
HETATM    4  C   UNL     1     -11.980   8.632  71.101  1.00  0.00    -0.279 C  
HETATM    5  C   UNL     1      -7.352   6.783  70.945  1.00  0.00    -0.082 A  
HETATM    6  C   UNL     1      -7.282   8.062  70.410  1.00  0.00    -0.049 A  
HETATM    7  C   UNL     1     -11.934   7.694  72.310  1.00  0.00    -0.329 C  
HETATM    8  C   UNL     1     -10.980   6.551  72.009  1.00  0.00    -0.283 C  
HETATM    9  F   UNL     1      -6.253   6.015  70.970  1.00  0.00    -0.033 F  
HETATM   10  C   UNL     1      -8.428   8.861  70.389  1.00  0.00    -0.181 A  
HETATM   11  O   UNL     1     -10.695   9.232  70.856  1.00  0.00    -0.250 OA 
HETATM   12  C   UNL     1      -9.695   7.086  71.450  1.00  0.00    -0.169 A  
HETATM   13  C   UNL     1      -9.631   8.371  70.897  1.00  0.00    -0.175 A  
HETATM   14  C   UNL     1      -8.544   6.286  71.461  1.00  0.00    -0.131 A  
ENDBRANCH   2   4
BRANCH   2  15
HETATM   15  C   UNL     1     -12.569  11.090  70.637  1.00  0.00    -0.338 C  
BRANCH  15  16
HETATM   16  N   UNL     1     -12.427  10.998  69.173  1.00  0.00    -0.615 NA 
HETATM   17  H   UNL     1     -13.321  11.091  68.691  1.00  0.00     0.000 HD 
BRANCH  16  18
HETATM   18  C   UNL     1     -11.440  11.993  68.718  1.00  0.00    -0.300 C  
BRANCH  18  19
HETATM   19  C   UNL     1     -11.124  11.826  67.218  1.00  0.00    -0.287 C  
HETATM   20  H   UNL     1     -10.283  12.919  65.820  1.00  0.00     0.000 HD 
HETATM   21  O   UNL     1     -10.477  13.022  66.744  1.00  0.00    -0.256 OA 
BRANCH  19  22
HETATM   22  C   UNL     1     -10.215  10.608  66.933  1.00  0.00    -0.223 C  
HETATM   23  C   UNL     1      -8.933   9.315  65.249  1.00  0.00    -0.260 C  
HETATM   24  C   UNL     1      -9.913  10.458  65.441  1.00  0.00    -0.362 C  
HETATM   25  C   UNL     1      -9.394   8.113  66.020  1.00  0.00    -0.184 A  
HETATM   26  C   UNL     1     -10.308   8.238  67.074  1.00  0.00    -0.323 A  
HETATM   27  O   UNL     1     -10.867   9.430  67.456  1.00  0.00    -0.269 OA 
HETATM   28  C   UNL     1     -10.738   7.107  67.774  1.00  0.00    -0.282 A  
HETATM   29  C   UNL     1     -10.240   5.848  67.441  1.00  0.00    -0.237 A  
HETATM   30  C   UNL     1      -9.320   5.729  66.407  1.00  0.00    -0.156 A  
HETATM   31  F   UNL     1      -8.842   4.520  66.082  1.00  0.00    -0.115 F  
HETATM   32  C   UNL     1      -8.891   6.845  65.697  1.00  0.00    -0.039 A  
ENDBRANCH  19  22
ENDBRANCH  18  19
ENDBRANCH  16  18
ENDBRANCH  15  16
ENDBRANCH   2  15
TORSDOF 6
ENDMDL
MODEL      133
REMARK 921   NORMALIZED FREE ENERGY PREDICTED BY IDOCK:   -6.03 KCAL/MOL
REMARK 922        TOTAL FREE ENERGY PREDICTED BY IDOCK:   -9.33 KCAL/MOL
REMARK 923 INTER-LIGAND FREE ENERGY PREDICTED BY IDOCK:   -7.69 KCAL/MOL
REMARK 924 INTRA-LIGAND FREE ENERGY PREDICTED BY IDOCK:   -1.63 KCAL/MOL
REMARK 927      BINDING AFFINITY PREDICTED BY RF-SCORE:    0.00 PKD
ROOT
HETATM    1  O   UNL     1     -10.100   5.912  65.587  1.00  0.00    -0.323 OA 
HETATM    2  C   UNL     1      -8.946   6.049  66.429  1.00  0.00    -0.145 C  
HETATM    3  H   UNL     1     -10.564   5.114  65.809  1.00  0.00     0.000 HD 
ENDROOT
BRANCH   2   4
HETATM    4  C   UNL     1      -9.376   6.006  67.913  1.00  0.00    -0.110 C  
HETATM    5  C   UNL     1      -9.612   7.739  72.583  1.00  0.00    -0.202 A  
HETATM    6  C   UNL     1      -8.363   8.098  72.094  1.00  0.00    -0.209 A  
HETATM    7  C   UNL     1     -10.866   6.309  68.103  1.00  0.00    -0.401 C  
HETATM    8  C   UNL     1     -11.224   6.113  69.566  1.00  0.00    -0.482 C  
HETATM    9  F   UNL     1      -9.931   8.022  73.854  1.00  0.00    -0.259 F  
HETATM   10  C   UNL     1      -8.036   7.804  70.768  1.00  0.00    -0.101 A  
HETATM   11  O   UNL     1      -8.558   6.926  68.658  1.00  0.00    -0.123 OA 
HETATM   12  C   UNL     1     -10.222   6.806  70.440  1.00  0.00    -0.212 A  
HETATM   13  C   UNL     1      -8.956   7.152  69.948  1.00  0.00    -0.142 A  
HETATM   14  C   UNL     1     -10.542   7.095  71.774  1.00  0.00    -0.230 A  
ENDBRANCH   2   4
BRANCH   2  15
HETATM   15  C   UNL     1      -8.193   7.346  66.068  1.00  0.00    -0.130 C  
BRANCH  15  16
HETATM   16  N   UNL     1      -9.101   8.397  65.575  1.00  0.00    -0.390 NA 
HETATM   17  H   UNL     1     -10.066   8.243  65.867  1.00  0.00     0.000 HD 
BRANCH  16  18
HETATM   18  C   UNL     1      -8.592   9.714  65.997  1.00  0.00    -0.132 C  
BRANCH  18  19
HETATM   19  C   UNL     1      -9.501  10.855  65.496  1.00  0.00    -0.211 C  
HETATM   20  H   UNL     1     -10.738  11.122  63.994  1.00  0.00     0.000 HD 
HETATM   21  O   UNL     1     -10.178  10.420  64.302  1.00  0.00    -0.323 OA 
BRANCH  19  22
HETATM   22  C   UNL     1     -10.550  11.286  66.548  1.00  0.00    -0.266 C  
HETATM   23  C   UNL     1     -11.525  13.138  67.879  1.00  0.00    -0.346 C  
HETATM   24  C   UNL     1     -10.401  12.759  66.931  1.00  0.00    -0.245 C  
HETATM   25  C   UNL     1     -11.641  12.113  68.969  1.00  0.00    -0.374 A  
HETATM   26  C   UNL     1     -11.097  10.830  68.815  1.00  0.00    -0.259 A  
HETATM   27  O   UNL     1     -10.406  10.429  67.701  1.00  0.00    -0.192 OA 
HETATM   28  C   UNL     1     -11.201   9.891  69.845  1.00  0.00    -0.298 A  
HETATM   29  C   UNL     1     -11.868  10.219  71.025  1.00  0.00    -0.472 A  
HETATM   30  C   UNL     1     -12.421  11.485  71.168  1.00  0.00    -0.337 A  
HETATM   31  F   UNL     1     -13.060  11.805  72.301  1.00  0.00    -0.571 F  
HETATM   32  C   UNL     1     -12.317  12.432  70.154  1.00  0.00    -0.209 A  
ENDBRANCH  19  22
ENDBRANCH  18  19
ENDBRANCH  16  18
ENDBRANCH  15  16
ENDBRANCH   2  15
TORSDOF 6
ENDMDL
MODEL      134
REMARK 921   NORMALIZED FREE ENERGY PREDICTED BY IDOCK:   -6.02 KCAL/MOL
REMARK 922        TOTAL FREE ENERGY PREDICTED BY IDOCK:   -9.32 KCAL/MOL
REMARK 923 INTER-LIGAND FREE ENERGY PREDICTED BY IDOCK:   -7.95 KCAL/MOL
REMARK 924 INTRA-LIGAND FREE ENERGY PREDICTED BY IDOCK:   -1.37 KCAL/MOL
REMARK 927      BINDING AFFINITY PREDICTED BY RF-SCORE:    0.00 PKD
ROOT
HETATM    1  O   UNL     1     -12.924   9.859  70.221  1.00  0.00    -0.556 OA 
HETATM    2  C   UNL     1     -11.690  10.520  70.536  1.00  0.00    -0.350 C  
HETATM    3  H   UNL     1     -13.534  10.483  69.847  1.00  0.00     0.000 HD 
ENDROOT
BRANCH   2   4
HETATM    4  C   UNL     1     -11.131  11.212  69.271  1.00  0.00    -0.259 C  
HETATM    5  C   UNL     1     -10.014  11.498  64.420  1.00  0.00    -0.269 A  
HETATM    6  C   UNL     1      -9.828  10.172  64.787  1.00  0.00    -0.382 A  
HETATM    7  C   UNL     1     -12.040  12.336  68.765  1.00  0.00    -0.162 C  
HETATM    8  C   UNL     1     -11.352  13.041  67.610  1.00  0.00    -0.342 C  
HETATM    9  F   UNL     1      -9.722  11.885  63.170  1.00  0.00    -0.368 F  
HETATM   10  C   UNL     1     -10.137   9.772  66.090  1.00  0.00    -0.315 A  
HETATM   11  O   UNL     1     -10.919  10.214  68.255  1.00  0.00    -0.245 OA 
HETATM   12  C   UNL     1     -10.822  12.035  66.632  1.00  0.00    -0.311 A  
HETATM   13  C   UNL     1     -10.621  10.701  67.011  1.00  0.00    -0.262 A  
HETATM   14  C   UNL     1     -10.503  12.432  65.326  1.00  0.00    -0.316 A  
ENDBRANCH   2   4
BRANCH   2  15
HETATM   15  C   UNL     1     -10.700   9.506  71.143  1.00  0.00    -0.338 C  
BRANCH  15  16
HETATM   16  N   UNL     1     -11.218   8.897  72.382  1.00  0.00    -0.200 NA 
HETATM   17  H   UNL     1     -12.236   8.918  72.426  1.00  0.00     0.000 HD 
BRANCH  16  18
HETATM   18  C   UNL     1     -10.679   7.531  72.512  1.00  0.00    -0.285 C  
BRANCH  18  19
HETATM   19  C   UNL     1     -11.718   6.474  72.087  1.00  0.00    -0.311 C  
HETATM   20  H   UNL     1     -13.575   6.494  71.447  1.00  0.00     0.000 HD 
HETATM   21  O   UNL     1     -12.935   7.145  71.708  1.00  0.00    -0.352 OA 
BRANCH  19  22
HETATM   22  C   UNL     1     -11.231   5.600  70.908  1.00  0.00    -0.036 C  
HETATM   23  C   UNL     1      -9.457   4.118  70.008  1.00  0.00    -0.260 C  
HETATM   24  C   UNL     1      -9.824   5.051  71.149  1.00  0.00    -0.254 C  
HETATM   25  C   UNL     1      -9.765   4.773  68.694  1.00  0.00    -0.223 A  
HETATM   26  C   UNL     1     -10.659   5.850  68.615  1.00  0.00    -0.256 A  
HETATM   27  O   UNL     1     -11.282   6.398  69.706  1.00  0.00    -0.352 OA 
HETATM   28  C   UNL     1     -10.925   6.459  67.386  1.00  0.00    -0.463 A  
HETATM   29  C   UNL     1     -10.318   5.982  66.224  1.00  0.00    -0.037 A  
HETATM   30  C   UNL     1      -9.446   4.904  66.303  1.00  0.00    -0.158 A  
HETATM   31  F   UNL     1      -8.859   4.445  65.189  1.00  0.00    -0.121 F  
HETATM   32  C   UNL     1      -9.166   4.295  67.521  1.00  0.00    -0.174 A  
ENDBRANCH  19  22
ENDBRANCH  18  19
ENDBRANCH  16  18
ENDBRANCH  15  16
ENDBRANCH   2  15
TORSDOF 6
ENDMDL
MODEL      135
REMARK 921   NORMALIZED FREE ENERGY PREDICTED BY IDOCK:   -6.01 KCAL/MOL
REMARK 922        TOTAL FREE ENERGY PREDICTED BY IDOCK:   -9.30 KCAL/MOL
REMARK 923 INTER-LIGAND FREE ENERGY PREDICTED BY IDOCK:   -8.52 KCAL/MOL
REMARK 924 INTRA-LIGAND FREE ENERGY PREDICTED BY IDOCK:   -0.78 KCAL/MOL
REMARK 927      BINDING AFFINITY PREDICTED BY RF-SCORE:    0.00 PKD
ROOT
HETATM    1  O   UNL     1      -7.196  14.447  70.149  1.00  0.00    -0.396 OA 
HETATM    2  C   UNL     1      -6.779  14.464  68.777  1.00  0.00    -0.093 C  
HETATM    3  H   UNL     1      -6.747  15.135  70.627  1.00  0.00     0.000 HD 
ENDROOT
BRANCH   2   4
HETATM    4  C   UNL     1      -7.027  15.865  68.173  1.00  0.00    -0.116 C  
HETATM    5  C   UNL     1      -9.604  20.079  67.486  1.00  0.00    -0.393 A  
HETATM    6  C   UNL     1     -10.541  19.066  67.636  1.00  0.00    -0.526 A  
HETATM    7  C   UNL     1      -6.120  16.938  68.784  1.00  0.00    -0.153 C  
HETATM    8  C   UNL     1      -6.336  18.245  68.043  1.00  0.00    -0.185 C  
HETATM    9  F   UNL     1     -10.015  21.327  67.220  1.00  0.00    -0.560 F  
HETATM   10  C   UNL     1     -10.108  17.767  67.917  1.00  0.00    -0.342 A  
HETATM   11  O   UNL     1      -8.416  16.200  68.339  1.00  0.00    -0.171 OA 
HETATM   12  C   UNL     1      -7.804  18.523  67.904  1.00  0.00    -0.268 A  
HETATM   13  C   UNL     1      -8.746  17.495  68.040  1.00  0.00    -0.254 A  
HETATM   14  C   UNL     1      -8.243  19.822  67.613  1.00  0.00    -0.340 A  
ENDBRANCH   2   4
BRANCH   2  15
HETATM   15  C   UNL     1      -7.508  13.347  68.001  1.00  0.00    -0.139 C  
BRANCH  15  16
HETATM   16  N   UNL     1      -8.753  12.929  68.669  1.00  0.00    -0.372 NA 
HETATM   17  H   UNL     1      -8.960  13.495  69.492  1.00  0.00     0.000 HD 
BRANCH  16  18
HETATM   18  C   UNL     1      -9.855  12.939  67.691  1.00  0.00    -0.211 C  
BRANCH  18  19
HETATM   19  C   UNL     1     -11.058  12.114  68.190  1.00  0.00    -0.248 C  
HETATM   20  H   UNL     1     -12.692  11.370  67.394  1.00  0.00     0.000 HD 
HETATM   21  O   UNL     1     -11.951  11.878  67.086  1.00  0.00    -0.611 OA 
BRANCH  19  22
HETATM   22  C   UNL     1     -10.637  10.757  68.803  1.00  0.00    -0.200 C  
HETATM   23  C   UNL     1     -10.191   8.347  68.420  1.00  0.00    -0.239 C  
HETATM   24  C   UNL     1     -10.720   9.620  67.784  1.00  0.00    -0.316 C  
HETATM   25  C   UNL     1     -10.812   8.157  69.772  1.00  0.00    -0.190 A  
HETATM   26  C   UNL     1     -11.400   9.230  70.456  1.00  0.00    -0.258 A  
HETATM   27  O   UNL     1     -11.482  10.499  69.945  1.00  0.00    -0.264 OA 
HETATM   28  C   UNL     1     -11.986   9.034  71.709  1.00  0.00    -0.438 A  
HETATM   29  C   UNL     1     -11.970   7.769  72.298  1.00  0.00    -0.356 A  
HETATM   30  C   UNL     1     -11.371   6.711  71.626  1.00  0.00    -0.276 A  
HETATM   31  F   UNL     1     -11.356   5.494  72.187  1.00  0.00    -0.302 F  
HETATM   32  C   UNL     1     -10.792   6.892  70.375  1.00  0.00    -0.297 A  
ENDBRANCH  19  22
ENDBRANCH  18  19
ENDBRANCH  16  18
ENDBRANCH  15  16
ENDBRANCH   2  15
TORSDOF 6
ENDMDL
MODEL      136
REMARK 921   NORMALIZED FREE ENERGY PREDICTED BY IDOCK:   -5.98 KCAL/MOL
REMARK 922        TOTAL FREE ENERGY PREDICTED BY IDOCK:   -9.26 KCAL/MOL
REMARK 923 INTER-LIGAND FREE ENERGY PREDICTED BY IDOCK:   -8.13 KCAL/MOL
REMARK 924 INTRA-LIGAND FREE ENERGY PREDICTED BY IDOCK:   -1.13 KCAL/MOL
REMARK 927      BINDING AFFINITY PREDICTED BY RF-SCORE:    0.00 PKD
ROOT
HETATM    1  O   UNL     1     -13.473  12.198  71.859  1.00  0.00    -0.399 OA 
HETATM    2  C   UNL     1     -12.450  11.466  71.170  1.00  0.00    -0.360 C  
HETATM    3  H   UNL     1     -13.112  13.007  72.200  1.00  0.00     0.000 HD 
ENDROOT
BRANCH   2   4
HETATM    4  C   UNL     1     -11.831  12.351  70.063  1.00  0.00    -0.288 C  
HETATM    5  C   UNL     1     -10.960  13.705  65.344  1.00  0.00    -0.298 A  
HETATM    6  C   UNL     1     -11.038  12.319  65.346  1.00  0.00    -0.353 A  
HETATM    7  C   UNL     1     -12.510  13.720  69.957  1.00  0.00    -0.301 C  
HETATM    8  C   UNL     1     -11.756  14.566  68.946  1.00  0.00    -0.354 C  
HETATM    9  F   UNL     1     -10.666  14.349  64.205  1.00  0.00    -0.344 F  
HETATM   10  C   UNL     1     -11.349  11.652  66.534  1.00  0.00    -0.331 A  
HETATM   11  O   UNL     1     -11.893  11.639  68.814  1.00  0.00    -0.309 OA 
HETATM   12  C   UNL     1     -11.508  13.775  67.696  1.00  0.00    -0.354 A  
HETATM   13  C   UNL     1     -11.572  12.375  67.705  1.00  0.00    -0.352 A  
HETATM   14  C   UNL     1     -11.188  14.439  66.503  1.00  0.00    -0.340 A  
ENDBRANCH   2   4
BRANCH   2  15
HETATM   15  C   UNL     1     -13.037  10.151  70.617  1.00  0.00    -0.210 C  
BRANCH  15  16
HETATM   16  N   UNL     1     -12.160   8.997  70.882  1.00  0.00    -0.437 NA 
HETATM   17  H   UNL     1     -11.802   8.577  70.024  1.00  0.00     0.000 HD 
BRANCH  16  18
HETATM   18  C   UNL     1     -11.079   9.409  71.796  1.00  0.00    -0.255 C  
BRANCH  18  19
HETATM   19  C   UNL     1      -9.693   9.039  71.231  1.00  0.00    -0.301 C  
HETATM   20  H   UNL     1      -7.874   8.857  71.950  1.00  0.00     0.000 HD 
HETATM   21  O   UNL     1      -8.728   9.084  72.298  1.00  0.00    -0.367 OA 
BRANCH  19  22
HETATM   22  C   UNL     1      -9.670   7.635  70.582  1.00  0.00    -0.174 C  
HETATM   23  C   UNL     1      -8.320   5.648  69.965  1.00  0.00    -0.121 C  
HETATM   24  C   UNL     1      -8.253   7.064  70.509  1.00  0.00    -0.123 C  
HETATM   25  C   UNL     1      -9.179   5.613  68.736  1.00  0.00    -0.133 A  
HETATM   26  C   UNL     1     -10.099   6.637  68.468  1.00  0.00    -0.161 A  
HETATM   27  O   UNL     1     -10.260   7.739  69.268  1.00  0.00    -0.201 OA 
HETATM   28  C   UNL     1     -10.883   6.597  67.313  1.00  0.00    -0.456 A  
HETATM   29  C   UNL     1     -10.771   5.525  66.428  1.00  0.00    -0.262 A  
HETATM   30  C   UNL     1      -9.871   4.503  66.705  1.00  0.00    -0.225 A  
HETATM   31  F   UNL     1      -9.759   3.472  65.856  1.00  0.00    -0.175 F  
HETATM   32  C   UNL     1      -9.079   4.535  67.847  1.00  0.00    -0.147 A  
ENDBRANCH  19  22
ENDBRANCH  18  19
ENDBRANCH  16  18
ENDBRANCH  15  16
ENDBRANCH   2  15
TORSDOF 6
ENDMDL
MODEL      137
REMARK 921   NORMALIZED FREE ENERGY PREDICTED BY IDOCK:   -5.98 KCAL/MOL
REMARK 922        TOTAL FREE ENERGY PREDICTED BY IDOCK:   -9.26 KCAL/MOL
REMARK 923 INTER-LIGAND FREE ENERGY PREDICTED BY IDOCK:   -9.13 KCAL/MOL
REMARK 924 INTRA-LIGAND FREE ENERGY PREDICTED BY IDOCK:   -0.13 KCAL/MOL
REMARK 927      BINDING AFFINITY PREDICTED BY RF-SCORE:    0.00 PKD
ROOT
HETATM    1  O   UNL     1     -12.252  11.837  67.995  1.00  0.00    -0.518 OA 
HETATM    2  C   UNL     1     -11.831  13.120  67.513  1.00  0.00    -0.360 C  
HETATM    3  H   UNL     1     -11.775  11.621  68.787  1.00  0.00     0.000 HD 
ENDROOT
BRANCH   2   4
HETATM    4  C   UNL     1     -12.014  14.181  68.623  1.00  0.00    -0.338 C  
HETATM    5  C   UNL     1     -12.534  15.716  73.339  1.00  0.00    -0.523 A  
HETATM    6  C   UNL     1     -13.181  14.490  73.252  1.00  0.00    -0.346 A  
HETATM    7  C   UNL     1     -10.742  14.997  68.872  1.00  0.00    -0.240 C  
HETATM    8  C   UNL     1     -11.050  16.095  69.874  1.00  0.00    -0.357 C  
HETATM    9  F   UNL     1     -12.568  16.401  74.491  1.00  0.00    -0.542 F  
HETATM   10  C   UNL     1     -13.140  13.778  72.051  1.00  0.00    -0.485 A  
HETATM   11  O   UNL     1     -12.453  13.520  69.824  1.00  0.00    -0.235 OA 
HETATM   12  C   UNL     1     -11.794  15.528  71.047  1.00  0.00    -0.427 A  
HETATM   13  C   UNL     1     -12.459  14.299  70.951  1.00  0.00    -0.354 A  
HETATM   14  C   UNL     1     -11.846  16.243  72.251  1.00  0.00    -0.601 A  
ENDBRANCH   2   4
BRANCH   2  15
HETATM   15  C   UNL     1     -12.607  13.470  66.226  1.00  0.00    -0.239 C  
BRANCH  15  16
HETATM   16  N   UNL     1     -12.545  12.387  65.229  1.00  0.00    -0.588 NA 
HETATM   17  H   UNL     1     -13.420  11.866  65.168  1.00  0.00     0.000 HD 
BRANCH  16  18
HETATM   18  C   UNL     1     -12.136  12.948  63.929  1.00  0.00    -0.480 C  
BRANCH  18  19
HETATM   19  C   UNL     1     -10.632  13.289  63.912  1.00  0.00    -0.047 C  
HETATM   20  H   UNL     1      -9.436  14.465  64.935  1.00  0.00     0.000 HD 
HETATM   21  O   UNL     1     -10.362  14.255  64.945  1.00  0.00    -0.418 OA 
BRANCH  19  22
HETATM   22  C   UNL     1      -9.737  12.046  64.130  1.00  0.00    -0.098 C  
HETATM   23  C   UNL     1      -9.160   9.743  63.413  1.00  0.00    -0.262 C  
HETATM   24  C   UNL     1     -10.144  10.884  63.224  1.00  0.00    -0.368 C  
HETATM   25  C   UNL     1      -8.954   9.484  64.876  1.00  0.00    -0.264 A  
HETATM   26  C   UNL     1      -9.274  10.456  65.834  1.00  0.00    -0.170 A  
HETATM   27  O   UNL     1      -9.817  11.676  65.524  1.00  0.00    -0.223 OA 
HETATM   28  C   UNL     1      -9.089  10.195  67.195  1.00  0.00    -0.149 A  
HETATM   29  C   UNL     1      -8.563   8.971  67.606  1.00  0.00    -0.120 A  
HETATM   30  C   UNL     1      -8.230   8.016  66.654  1.00  0.00    -0.108 A  
HETATM   31  F   UNL     1      -7.726   6.838  67.045  1.00  0.00    -0.092 F  
HETATM   32  C   UNL     1      -8.416   8.261  65.297  1.00  0.00    -0.179 A  
ENDBRANCH  19  22
ENDBRANCH  18  19
ENDBRANCH  16  18
ENDBRANCH  15  16
ENDBRANCH   2  15
TORSDOF 6
ENDMDL
MODEL      138
REMARK 921   NORMALIZED FREE ENERGY PREDICTED BY IDOCK:   -5.97 KCAL/MOL
REMARK 922        TOTAL FREE ENERGY PREDICTED BY IDOCK:   -9.25 KCAL/MOL
REMARK 923 INTER-LIGAND FREE ENERGY PREDICTED BY IDOCK:   -8.82 KCAL/MOL
REMARK 924 INTRA-LIGAND FREE ENERGY PREDICTED BY IDOCK:   -0.44 KCAL/MOL
REMARK 927      BINDING AFFINITY PREDICTED BY RF-SCORE:    0.00 PKD
ROOT
HETATM    1  O   UNL     1     -13.503  10.435  69.831  1.00  0.00    -0.422 OA 
HETATM    2  C   UNL     1     -12.261  10.928  70.354  1.00  0.00    -0.365 C  
HETATM    3  H   UNL     1     -14.126  11.148  69.763  1.00  0.00     0.000 HD 
ENDROOT
BRANCH   2   4
HETATM    4  C   UNL     1     -11.744  12.084  69.467  1.00  0.00    -0.342 C  
HETATM    5  C   UNL     1     -11.566  14.838  65.314  1.00  0.00    -0.338 A  
HETATM    6  C   UNL     1     -11.814  13.534  64.909  1.00  0.00    -0.402 A  
HETATM    7  C   UNL     1     -12.256  13.453  69.929  1.00  0.00    -0.337 C  
HETATM    8  C   UNL     1     -11.594  14.532  69.090  1.00  0.00    -0.331 C  
HETATM    9  F   UNL     1     -11.401  15.797  64.392  1.00  0.00    -0.418 F  
HETATM   10  C   UNL     1     -11.989  12.538  65.874  1.00  0.00    -0.472 A  
HETATM   11  O   UNL     1     -12.116  11.821  68.102  1.00  0.00    -0.556 OA 
HETATM   12  C   UNL     1     -11.673  14.176  67.635  1.00  0.00    -0.421 A  
HETATM   13  C   UNL     1     -11.908  12.855  67.230  1.00  0.00    -0.356 A  
HETATM   14  C   UNL     1     -11.490  15.169  66.663  1.00  0.00    -0.185 A  
ENDBRANCH   2   4
BRANCH   2  15
HETATM   15  C   UNL     1     -11.250   9.768  70.465  1.00  0.00    -0.315 C  
BRANCH  15  16
HETATM   16  N   UNL     1      -9.876  10.197  70.147  1.00  0.00    -0.408 NA 
HETATM   17  H   UNL     1      -9.410  10.625  70.947  1.00  0.00     0.000 HD 
BRANCH  16  18
HETATM   18  C   UNL     1      -9.123   9.052  69.606  1.00  0.00    -0.154 C  
BRANCH  18  19
HETATM   19  C   UNL     1      -8.462   8.232  70.733  1.00  0.00    -0.132 C  
HETATM   20  H   UNL     1      -7.488   8.633  72.390  1.00  0.00     0.000 HD 
HETATM   21  O   UNL     1      -7.895   9.138  71.696  1.00  0.00    -0.340 OA 
BRANCH  19  22
HETATM   22  C   UNL     1      -9.459   7.288  71.446  1.00  0.00    -0.160 C  
HETATM   23  C   UNL     1     -10.659   6.727  73.543  1.00  0.00    -0.358 C  
HETATM   24  C   UNL     1      -9.590   7.616  72.934  1.00  0.00    -0.274 C  
HETATM   25  C   UNL     1     -10.433   5.302  73.132  1.00  0.00    -0.251 A  
HETATM   26  C   UNL     1      -9.646   4.988  72.015  1.00  0.00    -0.156 A  
HETATM   27  O   UNL     1      -9.010   5.930  71.248  1.00  0.00    -0.139 OA 
HETATM   28  C   UNL     1      -9.433   3.656  71.653  1.00  0.00    -0.215 A  
HETATM   29  C   UNL     1     -10.022   2.629  72.389  1.00  0.00    -0.235 A  
HETATM   30  C   UNL     1     -10.816   2.943  73.485  1.00  0.00    -0.213 A  
HETATM   31  F   UNL     1     -11.382   1.959  74.197  1.00  0.00    -0.218 F  
HETATM   32  C   UNL     1     -11.029   4.265  73.861  1.00  0.00    -0.304 A  
ENDBRANCH  19  22
ENDBRANCH  18  19
ENDBRANCH  16  18
ENDBRANCH  15  16
ENDBRANCH   2  15
TORSDOF 6
ENDMDL
MODEL      139
REMARK 921   NORMALIZED FREE ENERGY PREDICTED BY IDOCK:   -5.96 KCAL/MOL
REMARK 922        TOTAL FREE ENERGY PREDICTED BY IDOCK:   -9.24 KCAL/MOL
REMARK 923 INTER-LIGAND FREE ENERGY PREDICTED BY IDOCK:   -8.91 KCAL/MOL
REMARK 924 INTRA-LIGAND FREE ENERGY PREDICTED BY IDOCK:   -0.33 KCAL/MOL
REMARK 927      BINDING AFFINITY PREDICTED BY RF-SCORE:    0.00 PKD
ROOT
HETATM    1  O   UNL     1     -12.828  15.986  69.792  1.00  0.00    -0.562 OA 
HETATM    2  C   UNL     1     -11.663  15.192  69.527  1.00  0.00    -0.327 C  
HETATM    3  H   UNL     1     -12.568  16.875  69.998  1.00  0.00     0.000 HD 
ENDROOT
BRANCH   2   4
HETATM    4  C   UNL     1     -10.833  15.845  68.397  1.00  0.00    -0.316 C  
HETATM    5  C   UNL     1      -8.446  19.613  66.168  1.00  0.00    -0.334 A  
HETATM    6  C   UNL     1      -9.538  20.171  66.820  1.00  0.00    -0.559 A  
HETATM    7  C   UNL     1      -9.370  15.391  68.406  1.00  0.00    -0.193 C  
HETATM    8  C   UNL     1      -8.668  15.972  67.191  1.00  0.00    -0.212 C  
HETATM    9  F   UNL     1      -7.652  20.394  65.422  1.00  0.00    -0.290 F  
HETATM   10  C   UNL     1     -10.362  19.355  67.599  1.00  0.00    -0.550 A  
HETATM   11  O   UNL     1     -10.936  17.275  68.517  1.00  0.00    -0.290 OA 
HETATM   12  C   UNL     1      -8.978  17.435  67.068  1.00  0.00    -0.253 A  
HETATM   13  C   UNL     1     -10.089  17.991  67.714  1.00  0.00    -0.353 A  
HETATM   14  C   UNL     1      -8.160  18.257  66.280  1.00  0.00    -0.254 A  
ENDBRANCH   2   4
BRANCH   2  15
HETATM   15  C   UNL     1     -12.086  13.747  69.191  1.00  0.00    -0.333 C  
BRANCH  15  16
HETATM   16  N   UNL     1     -11.056  12.764  69.571  1.00  0.00    -0.456 NA 
HETATM   17  H   UNL     1     -10.723  12.901  70.525  1.00  0.00     0.000 HD 
BRANCH  16  18
HETATM   18  C   UNL     1     -11.579  11.404  69.349  1.00  0.00    -0.323 C  
BRANCH  18  19
HETATM   19  C   UNL     1     -11.775  10.653  70.682  1.00  0.00    -0.356 C  
HETATM   20  H   UNL     1     -13.282   9.825  71.631  1.00  0.00     0.000 HD 
HETATM   21  O   UNL     1     -13.162  10.288  70.810  1.00  0.00    -0.385 OA 
BRANCH  19  22
HETATM   22  C   UNL     1     -10.901   9.381  70.783  1.00  0.00    -0.305 C  
HETATM   23  C   UNL     1      -9.668   7.600  69.576  1.00  0.00    -0.168 C  
HETATM   24  C   UNL     1     -10.615   8.774  69.409  1.00  0.00    -0.218 C  
HETATM   25  C   UNL     1     -10.154   6.704  70.677  1.00  0.00    -0.205 A  
HETATM   26  C   UNL     1     -11.058   7.171  71.642  1.00  0.00    -0.235 A  
HETATM   27  O   UNL     1     -11.581   8.438  71.640  1.00  0.00    -0.260 OA 
HETATM   28  C   UNL     1     -11.512   6.321  72.654  1.00  0.00    -0.255 A  
HETATM   29  C   UNL     1     -11.051   5.006  72.722  1.00  0.00    -0.310 A  
HETATM   30  C   UNL     1     -10.143   4.551  71.774  1.00  0.00    -0.184 A  
HETATM   31  F   UNL     1      -9.699   3.289  71.835  1.00  0.00    -0.185 F  
HETATM   32  C   UNL     1      -9.689   5.385  70.758  1.00  0.00    -0.239 A  
ENDBRANCH  19  22
ENDBRANCH  18  19
ENDBRANCH  16  18
ENDBRANCH  15  16
ENDBRANCH   2  15
TORSDOF 6
ENDMDL
MODEL      140
REMARK 921   NORMALIZED FREE ENERGY PREDICTED BY IDOCK:   -5.96 KCAL/MOL
REMARK 922        TOTAL FREE ENERGY PREDICTED BY IDOCK:   -9.24 KCAL/MOL
REMARK 923 INTER-LIGAND FREE ENERGY PREDICTED BY IDOCK:   -8.53 KCAL/MOL
REMARK 924 INTRA-LIGAND FREE ENERGY PREDICTED BY IDOCK:   -0.71 KCAL/MOL
REMARK 927      BINDING AFFINITY PREDICTED BY RF-SCORE:    0.00 PKD
ROOT
HETATM    1  O   UNL     1     -11.667  12.609  68.037  1.00  0.00    -0.321 OA 
HETATM    2  C   UNL     1     -11.015  11.333  67.984  1.00  0.00    -0.247 C  
HETATM    3  H   UNL     1     -12.602  12.495  67.921  1.00  0.00     0.000 HD 
ENDROOT
BRANCH   2   4
HETATM    4  C   UNL     1     -11.632  10.387  69.040  1.00  0.00    -0.150 C  
HETATM    5  C   UNL     1     -11.641   6.449  72.098  1.00  0.00    -0.313 A  
HETATM    6  C   UNL     1     -10.912   6.073  70.977  1.00  0.00    -0.350 A  
HETATM    7  C   UNL     1     -11.695  11.021  70.433  1.00  0.00    -0.437 C  
HETATM    8  C   UNL     1     -12.433  10.080  71.368  1.00  0.00    -0.510 C  
HETATM    9  F   UNL     1     -11.865   5.554  73.071  1.00  0.00    -0.313 F  
HETATM   10  C   UNL     1     -10.678   7.009  69.967  1.00  0.00    -0.267 A  
HETATM   11  O   UNL     1     -10.879   9.161  69.058  1.00  0.00    -0.191 OA 
HETATM   12  C   UNL     1     -11.899   8.686  71.224  1.00  0.00    -0.344 A  
HETATM   13  C   UNL     1     -11.178   8.306  70.085  1.00  0.00    -0.132 A  
HETATM   14  C   UNL     1     -12.138   7.741  72.231  1.00  0.00    -0.332 A  
ENDBRANCH   2   4
BRANCH   2  15
HETATM   15  C   UNL     1      -9.495  11.520  68.173  1.00  0.00    -0.184 C  
BRANCH  15  16
HETATM   16  N   UNL     1      -9.139  12.920  68.462  1.00  0.00    -0.370 NA 
HETATM   17  H   UNL     1      -8.724  13.031  69.387  1.00  0.00     0.000 HD 
BRANCH  16  18
HETATM   18  C   UNL     1      -8.264  13.429  67.391  1.00  0.00    -0.183 C  
BRANCH  18  19
HETATM   19  C   UNL     1      -7.068  14.213  67.968  1.00  0.00    -0.144 C  
HETATM   20  H   UNL     1      -5.123  14.228  67.695  1.00  0.00     0.000 HD 
HETATM   21  O   UNL     1      -5.860  13.745  67.340  1.00  0.00    -0.353 OA 
BRANCH  19  22
HETATM   22  C   UNL     1      -7.196  15.739  67.752  1.00  0.00    -0.153 C  
HETATM   23  C   UNL     1      -6.664  18.014  68.586  1.00  0.00    -0.240 C  
HETATM   24  C   UNL     1      -6.602  16.533  68.916  1.00  0.00    -0.173 C  
HETATM   25  C   UNL     1      -8.034  18.369  68.092  1.00  0.00    -0.303 A  
HETATM   26  C   UNL     1      -8.904  17.385  67.602  1.00  0.00    -0.225 A  
HETATM   27  O   UNL     1      -8.594  16.050  67.567  1.00  0.00    -0.172 OA 
HETATM   28  C   UNL     1     -10.183  17.730  67.157  1.00  0.00    -0.353 A  
HETATM   29  C   UNL     1     -10.594  19.063  67.177  1.00  0.00    -0.545 A  
HETATM   30  C   UNL     1      -9.723  20.039  67.647  1.00  0.00    -0.403 A  
HETATM   31  F   UNL     1     -10.115  21.320  67.669  1.00  0.00    -0.462 F  
HETATM   32  C   UNL     1      -8.451  19.707  68.100  1.00  0.00    -0.357 A  
ENDBRANCH  19  22
ENDBRANCH  18  19
ENDBRANCH  16  18
ENDBRANCH  15  16
ENDBRANCH   2  15
TORSDOF 6
ENDMDL
MODEL      141
REMARK 921   NORMALIZED FREE ENERGY PREDICTED BY IDOCK:   -5.96 KCAL/MOL
REMARK 922        TOTAL FREE ENERGY PREDICTED BY IDOCK:   -9.24 KCAL/MOL
REMARK 923 INTER-LIGAND FREE ENERGY PREDICTED BY IDOCK:   -8.55 KCAL/MOL
REMARK 924 INTRA-LIGAND FREE ENERGY PREDICTED BY IDOCK:   -0.69 KCAL/MOL
REMARK 927      BINDING AFFINITY PREDICTED BY RF-SCORE:    0.00 PKD
ROOT
HETATM    1  O   UNL     1     -13.433  10.427  72.093  1.00  0.00    -0.528 OA 
HETATM    2  C   UNL     1     -12.695  10.228  70.880  1.00  0.00    -0.370 C  
HETATM    3  H   UNL     1     -13.827   9.606  72.364  1.00  0.00     0.000 HD 
ENDROOT
BRANCH   2   4
HETATM    4  C   UNL     1     -11.650   9.106  71.082  1.00  0.00    -0.317 C  
HETATM    5  C   UNL     1      -7.030   7.288  71.546  1.00  0.00    -0.059 A  
HETATM    6  C   UNL     1      -6.949   8.341  70.644  1.00  0.00    -0.038 A  
HETATM    7  C   UNL     1     -11.619   8.585  72.522  1.00  0.00    -0.376 C  
HETATM    8  C   UNL     1     -10.668   7.403  72.596  1.00  0.00    -0.334 C  
HETATM    9  F   UNL     1      -5.936   6.563  71.817  1.00  0.00    -0.034 F  
HETATM   10  C   UNL     1      -8.091   9.097  70.368  1.00  0.00    -0.166 A  
HETATM   11  O   UNL     1     -10.360   9.599  70.677  1.00  0.00    -0.278 OA 
HETATM   12  C   UNL     1      -9.376   7.737  71.912  1.00  0.00    -0.195 A  
HETATM   13  C   UNL     1      -9.301   8.790  70.990  1.00  0.00    -0.222 A  
HETATM   14  C   UNL     1      -8.229   6.977  72.179  1.00  0.00    -0.101 A  
ENDBRANCH   2   4
BRANCH   2  15
HETATM   15  C   UNL     1     -12.055  11.561  70.440  1.00  0.00    -0.382 C  
BRANCH  15  16
HETATM   16  N   UNL     1     -11.925  11.658  68.975  1.00  0.00    -0.326 NA 
HETATM   17  H   UNL     1     -12.606  11.077  68.487  1.00  0.00     0.000 HD 
BRANCH  16  18
HETATM   18  C   UNL     1     -12.007  13.074  68.573  1.00  0.00    -0.261 C  
BRANCH  18  19
HETATM   19  C   UNL     1     -11.217  13.337  67.275  1.00  0.00    -0.292 C  
HETATM   20  H   UNL     1     -11.345  12.765  65.401  1.00  0.00     0.000 HD 
HETATM   21  O   UNL     1     -11.832  12.603  66.200  1.00  0.00    -0.394 OA 
BRANCH  19  22
HETATM   22  C   UNL     1     -11.165  14.837  66.904  1.00  0.00    -0.347 C  
HETATM   23  C   UNL     1     -10.419  16.555  65.278  1.00  0.00    -0.236 C  
HETATM   24  C   UNL     1     -10.336  15.084  65.643  1.00  0.00    -0.374 C  
HETATM   25  C   UNL     1     -10.160  17.397  66.492  1.00  0.00    -0.320 A  
HETATM   26  C   UNL     1     -10.292  16.865  67.782  1.00  0.00    -0.327 A  
HETATM   27  O   UNL     1     -10.627  15.560  68.032  1.00  0.00    -0.257 OA 
HETATM   28  C   UNL     1     -10.034  17.659  68.903  1.00  0.00    -0.324 A  
HETATM   29  C   UNL     1      -9.664  18.994  68.744  1.00  0.00    -0.473 A  
HETATM   30  C   UNL     1      -9.551  19.524  67.465  1.00  0.00    -0.327 A  
HETATM   31  F   UNL     1      -9.194  20.806  67.308  1.00  0.00    -0.486 F  
HETATM   32  C   UNL     1      -9.797  18.742  66.341  1.00  0.00    -0.403 A  
ENDBRANCH  19  22
ENDBRANCH  18  19
ENDBRANCH  16  18
ENDBRANCH  15  16
ENDBRANCH   2  15
TORSDOF 6
ENDMDL
MODEL      142
REMARK 921   NORMALIZED FREE ENERGY PREDICTED BY IDOCK:   -5.95 KCAL/MOL
REMARK 922        TOTAL FREE ENERGY PREDICTED BY IDOCK:   -9.23 KCAL/MOL
REMARK 923 INTER-LIGAND FREE ENERGY PREDICTED BY IDOCK:   -8.77 KCAL/MOL
REMARK 924 INTRA-LIGAND FREE ENERGY PREDICTED BY IDOCK:   -0.46 KCAL/MOL
REMARK 927      BINDING AFFINITY PREDICTED BY RF-SCORE:    0.00 PKD
ROOT
HETATM    1  O   UNL     1      -9.041  13.325  68.503  1.00  0.00    -0.308 OA 
HETATM    2  C   UNL     1      -9.794  13.454  67.288  1.00  0.00    -0.233 C  
HETATM    3  H   UNL     1      -8.303  13.923  68.486  1.00  0.00     0.000 HD 
ENDROOT
BRANCH   2   4
HETATM    4  C   UNL     1     -10.226  14.927  67.096  1.00  0.00    -0.245 C  
HETATM    5  C   UNL     1      -9.590  19.868  67.307  1.00  0.00    -0.375 A  
HETATM    6  C   UNL     1      -8.921  19.339  68.403  1.00  0.00    -0.397 A  
HETATM    7  C   UNL     1     -10.239  15.348  65.624  1.00  0.00    -0.403 C  
HETATM    8  C   UNL     1     -10.801  16.755  65.520  1.00  0.00    -0.135 C  
HETATM    9  F   UNL     1      -9.643  21.197  67.144  1.00  0.00    -0.548 F  
HETATM   10  C   UNL     1      -8.864  17.953  68.568  1.00  0.00    -0.293 A  
HETATM   11  O   UNL     1      -9.354  15.768  67.872  1.00  0.00    -0.198 OA 
HETATM   12  C   UNL     1     -10.142  17.648  66.529  1.00  0.00    -0.350 A  
HETATM   13  C   UNL     1      -9.481  17.112  67.642  1.00  0.00    -0.241 A  
HETATM   14  C   UNL     1     -10.203  19.040  66.373  1.00  0.00    -0.502 A  
ENDBRANCH   2   4
BRANCH   2  15
HETATM   15  C   UNL     1     -10.993  12.484  67.317  1.00  0.00    -0.261 C  
BRANCH  15  16
HETATM   16  N   UNL     1     -10.678  11.193  66.679  1.00  0.00    -0.268 NA 
HETATM   17  H   UNL     1      -9.707  11.140  66.372  1.00  0.00     0.000 HD 
BRANCH  16  18
HETATM   18  C   UNL     1     -11.034  10.099  67.600  1.00  0.00    -0.268 C  
BRANCH  18  19
HETATM   19  C   UNL     1     -10.429   8.757  67.139  1.00  0.00    -0.283 C  
HETATM   20  H   UNL     1      -8.819   8.191  66.166  1.00  0.00     0.000 HD 
HETATM   21  O   UNL     1      -9.192   9.018  66.450  1.00  0.00    -0.162 OA 
BRANCH  19  22
HETATM   22  C   UNL     1     -10.163   7.788  68.315  1.00  0.00    -0.201 C  
HETATM   23  C   UNL     1     -10.434   5.498  69.228  1.00  0.00    -0.336 C  
HETATM   24  C   UNL     1     -10.826   6.428  68.094  1.00  0.00    -0.386 C  
HETATM   25  C   UNL     1     -10.623   6.192  70.545  1.00  0.00    -0.312 A  
HETATM   26  C   UNL     1     -10.699   7.589  70.621  1.00  0.00    -0.230 A  
HETATM   27  O   UNL     1     -10.641   8.412  69.526  1.00  0.00    -0.227 OA 
HETATM   28  C   UNL     1     -10.889   8.220  71.853  1.00  0.00    -0.350 A  
HETATM   29  C   UNL     1     -10.983   7.461  73.020  1.00  0.00    -0.422 A  
HETATM   30  C   UNL     1     -10.890   6.077  72.944  1.00  0.00    -0.258 A  
HETATM   31  F   UNL     1     -10.981   5.345  74.062  1.00  0.00    -0.307 F  
HETATM   32  C   UNL     1     -10.708   5.437  71.723  1.00  0.00    -0.271 A  
ENDBRANCH  19  22
ENDBRANCH  18  19
ENDBRANCH  16  18
ENDBRANCH  15  16
ENDBRANCH   2  15
TORSDOF 6
ENDMDL
MODEL      143
REMARK 921   NORMALIZED FREE ENERGY PREDICTED BY IDOCK:   -5.94 KCAL/MOL
REMARK 922        TOTAL FREE ENERGY PREDICTED BY IDOCK:   -9.21 KCAL/MOL
REMARK 923 INTER-LIGAND FREE ENERGY PREDICTED BY IDOCK:   -8.59 KCAL/MOL
REMARK 924 INTRA-LIGAND FREE ENERGY PREDICTED BY IDOCK:   -0.62 KCAL/MOL
REMARK 927      BINDING AFFINITY PREDICTED BY RF-SCORE:    0.00 PKD
ROOT
HETATM    1  O   UNL     1      -9.804   7.177  65.782  1.00  0.00    -0.238 OA 
HETATM    2  C   UNL     1      -9.051   8.281  66.303  1.00  0.00    -0.188 C  
HETATM    3  H   UNL     1      -9.758   6.446  66.387  1.00  0.00     0.000 HD 
ENDROOT
BRANCH   2   4
HETATM    4  C   UNL     1      -9.569   8.645  67.714  1.00  0.00    -0.148 C  
HETATM    5  C   UNL     1     -11.081   7.625  72.355  1.00  0.00    -0.310 A  
HETATM    6  C   UNL     1     -11.517   6.574  71.561  1.00  0.00    -0.351 A  
HETATM    7  C   UNL     1      -8.489   9.292  68.588  1.00  0.00    -0.123 C  
HETATM    8  C   UNL     1      -9.117   9.735  69.897  1.00  0.00    -0.257 C  
HETATM    9  F   UNL     1     -11.405   7.650  73.656  1.00  0.00    -0.294 F  
HETATM   10  C   UNL     1     -11.174   6.550  70.206  1.00  0.00    -0.433 A  
HETATM   11  O   UNL     1     -10.098   7.458  68.332  1.00  0.00    -0.166 OA 
HETATM   12  C   UNL     1      -9.953   8.629  70.469  1.00  0.00    -0.220 A  
HETATM   13  C   UNL     1     -10.405   7.578  69.661  1.00  0.00    -0.225 A  
HETATM   14  C   UNL     1     -10.307   8.652  71.825  1.00  0.00    -0.386 A  
ENDBRANCH   2   4
BRANCH   2  15
HETATM   15  C   UNL     1      -9.126   9.468  65.321  1.00  0.00    -0.224 C  
BRANCH  15  16
HETATM   16  N   UNL     1     -10.247  10.373  65.627  1.00  0.00    -0.260 NA 
HETATM   17  H   UNL     1     -10.631  10.213  66.559  1.00  0.00     0.000 HD 
BRANCH  16  18
HETATM   18  C   UNL     1      -9.812  11.768  65.433  1.00  0.00    -0.233 C  
BRANCH  18  19
HETATM   19  C   UNL     1     -10.975  12.756  65.653  1.00  0.00    -0.273 C  
HETATM   20  H   UNL     1     -12.778  12.669  66.428  1.00  0.00     0.000 HD 
HETATM   21  O   UNL     1     -12.061  12.060  66.293  1.00  0.00    -0.596 OA 
BRANCH  19  22
HETATM   22  C   UNL     1     -10.569  13.971  66.518  1.00  0.00    -0.279 C  
HETATM   23  C   UNL     1     -10.879  15.213  68.643  1.00  0.00    -0.245 C  
HETATM   24  C   UNL     1     -11.404  14.068  67.796  1.00  0.00    -0.328 C  
HETATM   25  C   UNL     1     -10.708  16.438  67.795  1.00  0.00    -0.328 A  
HETATM   26  C   UNL     1     -10.617  16.345  66.400  1.00  0.00    -0.236 A  
HETATM   27  O   UNL     1     -10.707  15.162  65.712  1.00  0.00    -0.318 OA 
HETATM   28  C   UNL     1     -10.470  17.496  65.622  1.00  0.00    -0.156 A  
HETATM   29  C   UNL     1     -10.392  18.747  66.234  1.00  0.00    -0.497 A  
HETATM   30  C   UNL     1     -10.465  18.836  67.619  1.00  0.00    -0.435 A  
HETATM   31  F   UNL     1     -10.392  20.036  68.210  1.00  0.00    -0.519 F  
HETATM   32  C   UNL     1     -10.619  17.698  68.403  1.00  0.00    -0.318 A  
ENDBRANCH  19  22
ENDBRANCH  18  19
ENDBRANCH  16  18
ENDBRANCH  15  16
ENDBRANCH   2  15
TORSDOF 6
ENDMDL
MODEL      144
REMARK 921   NORMALIZED FREE ENERGY PREDICTED BY IDOCK:   -5.92 KCAL/MOL
REMARK 922        TOTAL FREE ENERGY PREDICTED BY IDOCK:   -9.18 KCAL/MOL
REMARK 923 INTER-LIGAND FREE ENERGY PREDICTED BY IDOCK:   -8.41 KCAL/MOL
REMARK 924 INTRA-LIGAND FREE ENERGY PREDICTED BY IDOCK:   -0.77 KCAL/MOL
REMARK 927      BINDING AFFINITY PREDICTED BY RF-SCORE:    0.00 PKD
ROOT
HETATM    1  O   UNL     1     -12.936  12.924  64.718  1.00  0.00    -0.743 OA 
HETATM    2  C   UNL     1     -11.820  12.837  65.615  1.00  0.00    -0.425 C  
HETATM    3  H   UNL     1     -13.746  12.881  65.212  1.00  0.00     0.000 HD 
ENDROOT
BRANCH   2   4
HETATM    4  C   UNL     1     -11.922  13.948  66.685  1.00  0.00    -0.442 C  
HETATM    5  C   UNL     1     -11.701  15.763  71.324  1.00  0.00    -0.440 A  
HETATM    6  C   UNL     1     -12.177  14.463  71.434  1.00  0.00    -0.424 A  
HETATM    7  C   UNL     1     -10.751  14.934  66.624  1.00  0.00    -0.312 C  
HETATM    8  C   UNL     1     -11.003  16.058  67.613  1.00  0.00    -0.284 C  
HETATM    9  F   UNL     1     -11.600  16.525  72.423  1.00  0.00    -0.545 F  
HETATM   10  C   UNL     1     -12.278  13.671  70.287  1.00  0.00    -0.423 A  
HETATM   11  O   UNL     1     -12.018  13.332  67.982  1.00  0.00    -0.350 OA 
HETATM   12  C   UNL     1     -11.414  15.494  68.941  1.00  0.00    -0.362 A  
HETATM   13  C   UNL     1     -11.908  14.187  69.046  1.00  0.00    -0.348 A  
HETATM   14  C   UNL     1     -11.323  16.287  70.093  1.00  0.00    -0.292 A  
ENDBRANCH   2   4
BRANCH   2  15
HETATM   15  C   UNL     1     -10.504  12.907  64.813  1.00  0.00    -0.350 C  
BRANCH  15  16
HETATM   16  N   UNL     1      -9.742  11.647  64.884  1.00  0.00    -0.325 NA 
HETATM   17  H   UNL     1      -8.978  11.619  64.209  1.00  0.00     0.000 HD 
BRANCH  16  18
HETATM   18  C   UNL     1      -9.276  11.441  66.267  1.00  0.00    -0.208 C  
BRANCH  18  19
HETATM   19  C   UNL     1      -8.043  10.515  66.312  1.00  0.00    -0.142 C  
HETATM   20  H   UNL     1      -6.104  10.750  66.520  1.00  0.00     0.000 HD 
HETATM   21  O   UNL     1      -6.863  11.321  66.492  1.00  0.00    -0.138 OA 
BRANCH  19  22
HETATM   22  C   UNL     1      -8.125   9.470  67.450  1.00  0.00    -0.110 C  
HETATM   23  C   UNL     1      -7.104   7.486  68.532  1.00  0.00    -0.081 C  
HETATM   24  C   UNL     1      -7.030   8.409  67.329  1.00  0.00    -0.075 C  
HETATM   25  C   UNL     1      -8.520   7.045  68.751  1.00  0.00    -0.122 A  
HETATM   26  C   UNL     1      -9.593   7.760  68.203  1.00  0.00    -0.151 A  
HETATM   27  O   UNL     1      -9.439   8.873  67.416  1.00  0.00    -0.139 OA 
HETATM   28  C   UNL     1     -10.907   7.329  68.404  1.00  0.00    -0.109 A  
HETATM   29  C   UNL     1     -11.159   6.193  69.173  1.00  0.00    -0.448 A  
HETATM   30  C   UNL     1     -10.095   5.496  69.730  1.00  0.00    -0.232 A  
HETATM   31  F   UNL     1     -10.334   4.403  70.468  1.00  0.00    -0.275 F  
HETATM   32  C   UNL     1      -8.783   5.910  69.530  1.00  0.00    -0.116 A  
ENDBRANCH  19  22
ENDBRANCH  18  19
ENDBRANCH  16  18
ENDBRANCH  15  16
ENDBRANCH   2  15
TORSDOF 6
ENDMDL
MODEL      145
REMARK 921   NORMALIZED FREE ENERGY PREDICTED BY IDOCK:   -5.91 KCAL/MOL
REMARK 922        TOTAL FREE ENERGY PREDICTED BY IDOCK:   -9.17 KCAL/MOL
REMARK 923 INTER-LIGAND FREE ENERGY PREDICTED BY IDOCK:   -8.61 KCAL/MOL
REMARK 924 INTRA-LIGAND FREE ENERGY PREDICTED BY IDOCK:   -0.56 KCAL/MOL
REMARK 927      BINDING AFFINITY PREDICTED BY RF-SCORE:    0.00 PKD
ROOT
HETATM    1  O   UNL     1     -10.542   8.994  70.614  1.00  0.00    -0.207 OA 
HETATM    2  C   UNL     1     -10.943   8.858  69.243  1.00  0.00    -0.006 C  
HETATM    3  H   UNL     1     -10.747   8.196  71.087  1.00  0.00     0.000 HD 
ENDROOT
BRANCH   2   4
HETATM    4  C   UNL     1     -10.270   7.612  68.624  1.00  0.00    -0.199 C  
HETATM    5  C   UNL     1      -9.287   2.736  68.268  1.00  0.00    -0.200 A  
HETATM    6  C   UNL     1      -9.436   3.009  69.622  1.00  0.00    -0.177 A  
HETATM    7  C   UNL     1     -10.877   7.227  67.271  1.00  0.00    -0.354 C  
HETATM    8  C   UNL     1     -10.072   6.084  66.679  1.00  0.00    -0.226 C  
HETATM    9  F   UNL     1      -8.950   1.499  67.876  1.00  0.00    -0.103 F  
HETATM   10  C   UNL     1      -9.791   4.298  70.026  1.00  0.00    -0.275 A  
HETATM   11  O   UNL     1     -10.357   6.525  69.564  1.00  0.00    -0.180 OA 
HETATM   12  C   UNL     1      -9.853   5.018  67.711  1.00  0.00    -0.199 A  
HETATM   13  C   UNL     1      -9.988   5.300  69.076  1.00  0.00    -0.189 A  
HETATM   14  C   UNL     1      -9.488   3.725  67.311  1.00  0.00    -0.238 A  
ENDBRANCH   2   4
BRANCH   2  15
HETATM   15  C   UNL     1     -10.611  10.154  68.476  1.00  0.00    -0.216 C  
BRANCH  15  16
HETATM   16  N   UNL     1     -11.657  10.505  67.498  1.00  0.00    -0.543 NA 
HETATM   17  H   UNL     1     -12.581  10.566  67.926  1.00  0.00     0.000 HD 
BRANCH  16  18
HETATM   18  C   UNL     1     -11.276  11.749  66.806  1.00  0.00    -0.328 C  
BRANCH  18  19
HETATM   19  C   UNL     1     -10.342  12.613  67.677  1.00  0.00    -0.220 C  
HETATM   20  H   UNL     1      -8.803  13.792  67.362  1.00  0.00     0.000 HD 
HETATM   21  O   UNL     1      -9.378  13.259  66.825  1.00  0.00    -0.243 OA 
BRANCH  19  22
HETATM   22  C   UNL     1     -11.107  13.687  68.487  1.00  0.00    -0.275 C  
HETATM   23  C   UNL     1     -11.023  15.888  69.627  1.00  0.00    -0.319 C  
HETATM   24  C   UNL     1     -10.189  14.823  68.937  1.00  0.00    -0.237 C  
HETATM   25  C   UNL     1     -11.933  15.249  70.634  1.00  0.00    -0.386 A  
HETATM   26  C   UNL     1     -12.243  13.884  70.565  1.00  0.00    -0.373 A  
HETATM   27  O   UNL     1     -11.728  13.037  69.617  1.00  0.00    -0.296 OA 
HETATM   28  C   UNL     1     -13.082  13.300  71.518  1.00  0.00    -0.414 A  
HETATM   29  C   UNL     1     -13.635  14.081  72.533  1.00  0.00    -0.670 A  
HETATM   30  C   UNL     1     -13.340  15.437  72.590  1.00  0.00    -0.504 A  
HETATM   31  F   UNL     1     -13.868  16.189  73.565  1.00  0.00    -0.607 F  
HETATM   32  C   UNL     1     -12.500  16.028  71.652  1.00  0.00    -0.428 A  
ENDBRANCH  19  22
ENDBRANCH  18  19
ENDBRANCH  16  18
ENDBRANCH  15  16
ENDBRANCH   2  15
TORSDOF 6
ENDMDL
MODEL      146
REMARK 921   NORMALIZED FREE ENERGY PREDICTED BY IDOCK:   -5.90 KCAL/MOL
REMARK 922        TOTAL FREE ENERGY PREDICTED BY IDOCK:   -9.16 KCAL/MOL
REMARK 923 INTER-LIGAND FREE ENERGY PREDICTED BY IDOCK:   -8.38 KCAL/MOL
REMARK 924 INTRA-LIGAND FREE ENERGY PREDICTED BY IDOCK:   -0.77 KCAL/MOL
REMARK 927      BINDING AFFINITY PREDICTED BY RF-SCORE:    0.00 PKD
ROOT
HETATM    1  O   UNL     1     -10.016  12.627  69.366  1.00  0.00    -0.131 OA 
HETATM    2  C   UNL     1     -11.421  12.348  69.290  1.00  0.00    -0.288 C  
HETATM    3  H   UNL     1      -9.675  12.319  70.197  1.00  0.00     0.000 HD 
ENDROOT
BRANCH   2   4
HETATM    4  C   UNL     1     -11.665  10.837  69.509  1.00  0.00    -0.312 C  
HETATM    5  C   UNL     1     -10.395   6.015  69.437  1.00  0.00    -0.236 A  
HETATM    6  C   UNL     1      -9.770   6.602  68.344  1.00  0.00    -0.126 A  
HETATM    7  C   UNL     1     -11.664  10.449  70.991  1.00  0.00    -0.430 C  
HETATM    8  C   UNL     1     -12.043   8.984  71.116  1.00  0.00    -0.345 C  
HETATM    9  F   UNL     1     -10.281   4.694  69.633  1.00  0.00    -0.294 F  
HETATM   10  C   UNL     1      -9.887   7.980  68.146  1.00  0.00    -0.195 A  
HETATM   11  O   UNL     1     -10.672  10.098  68.775  1.00  0.00    -0.201 OA 
HETATM   12  C   UNL     1     -11.248   8.162  70.146  1.00  0.00    -0.134 A  
HETATM   13  C   UNL     1     -10.632   8.754  69.036  1.00  0.00    -0.171 A  
HETATM   14  C   UNL     1     -11.133   6.777  70.336  1.00  0.00    -0.357 A  
ENDBRANCH   2   4
BRANCH   2  15
HETATM   15  C   UNL     1     -11.976  12.848  67.940  1.00  0.00    -0.282 C  
BRANCH  15  16
HETATM   16  N   UNL     1     -11.680  14.274  67.712  1.00  0.00    -0.356 NA 
HETATM   17  H   UNL     1     -10.818  14.568  68.171  1.00  0.00     0.000 HD 
BRANCH  16  18
HETATM   18  C   UNL     1     -11.662  14.540  66.263  1.00  0.00    -0.358 C  
BRANCH  18  19
HETATM   19  C   UNL     1     -10.275  14.248  65.655  1.00  0.00    -0.347 C  
HETATM   20  H   UNL     1      -9.591  13.654  63.912  1.00  0.00     0.000 HD 
HETATM   21  O   UNL     1     -10.445  13.834  64.287  1.00  0.00    -0.359 OA 
BRANCH  19  22
HETATM   22  C   UNL     1      -9.334  15.475  65.703  1.00  0.00    -0.163 C  
HETATM   23  C   UNL     1      -7.259  16.473  66.623  1.00  0.00    -0.246 C  
HETATM   24  C   UNL     1      -8.199  15.284  66.709  1.00  0.00    -0.215 C  
HETATM   25  C   UNL     1      -8.046  17.750  66.651  1.00  0.00    -0.288 A  
HETATM   26  C   UNL     1      -9.413  17.763  66.340  1.00  0.00    -0.264 A  
HETATM   27  O   UNL     1     -10.129  16.637  66.024  1.00  0.00    -0.322 OA 
HETATM   28  C   UNL     1     -10.136  18.957  66.384  1.00  0.00    -0.457 A  
HETATM   29  C   UNL     1      -9.495  20.150  66.717  1.00  0.00    -0.533 A  
HETATM   30  C   UNL     1      -8.137  20.138  67.009  1.00  0.00    -0.326 A  
HETATM   31  F   UNL     1      -7.519  21.281  67.332  1.00  0.00    -0.424 F  
HETATM   32  C   UNL     1      -7.408  18.954  66.977  1.00  0.00    -0.224 A  
ENDBRANCH  19  22
ENDBRANCH  18  19
ENDBRANCH  16  18
ENDBRANCH  15  16
ENDBRANCH   2  15
TORSDOF 6
ENDMDL
MODEL      147
REMARK 921   NORMALIZED FREE ENERGY PREDICTED BY IDOCK:   -5.87 KCAL/MOL
REMARK 922        TOTAL FREE ENERGY PREDICTED BY IDOCK:   -9.11 KCAL/MOL
REMARK 923 INTER-LIGAND FREE ENERGY PREDICTED BY IDOCK:   -7.83 KCAL/MOL
REMARK 924 INTRA-LIGAND FREE ENERGY PREDICTED BY IDOCK:   -1.28 KCAL/MOL
REMARK 927      BINDING AFFINITY PREDICTED BY RF-SCORE:    0.00 PKD
ROOT
HETATM    1  O   UNL     1     -11.510  10.893  66.920  1.00  0.00    -0.342 OA 
HETATM    2  C   UNL     1     -10.526  10.113  66.226  1.00  0.00    -0.122 C  
HETATM    3  H   UNL     1     -11.828  10.409  67.672  1.00  0.00     0.000 HD 
ENDROOT
BRANCH   2   4
HETATM    4  C   UNL     1      -9.393   9.716  67.200  1.00  0.00    -0.139 C  
HETATM    5  C   UNL     1      -6.026  10.573  70.777  1.00  0.00    -0.073 A  
HETATM    6  C   UNL     1      -6.094  11.732  70.016  1.00  0.00    -0.158 A  
HETATM    7  C   UNL     1      -9.894   8.862  68.369  1.00  0.00    -0.191 C  
HETATM    8  C   UNL     1      -8.702   8.409  69.193  1.00  0.00    -0.142 C  
HETATM    9  F   UNL     1      -5.144  10.492  71.783  1.00  0.00    -0.088 F  
HETATM   10  C   UNL     1      -7.018  11.813  68.971  1.00  0.00    -0.107 A  
HETATM   11  O   UNL     1      -8.746  10.913  67.667  1.00  0.00    -0.126 OA 
HETATM   12  C   UNL     1      -7.797   9.572  69.473  1.00  0.00    -0.103 A  
HETATM   13  C   UNL     1      -7.857  10.735  68.694  1.00  0.00    -0.122 A  
HETATM   14  C   UNL     1      -6.863   9.493  70.516  1.00  0.00    -0.112 A  
ENDBRANCH   2   4
BRANCH   2  15
HETATM   15  C   UNL     1     -10.009  10.900  65.004  1.00  0.00    -0.298 C  
BRANCH  15  16
HETATM   16  N   UNL     1     -11.019  10.991  63.934  1.00  0.00    -0.477 NA 
HETATM   17  H   UNL     1     -11.952  10.738  64.260  1.00  0.00     0.000 HD 
BRANCH  16  18
HETATM   18  C   UNL     1     -10.979  12.340  63.344  1.00  0.00    -0.405 C  
BRANCH  18  19
HETATM   19  C   UNL     1     -12.172  13.196  63.815  1.00  0.00    -0.456 C  
HETATM   20  H   UNL     1     -13.976  12.847  64.509  1.00  0.00     0.000 HD 
HETATM   21  O   UNL     1     -13.241  12.320  64.219  1.00  0.00    -0.785 OA 
BRANCH  19  22
HETATM   22  C   UNL     1     -11.807  14.130  64.993  1.00  0.00    -0.389 C  
HETATM   23  C   UNL     1     -10.059  15.492  66.107  1.00  0.00    -0.329 C  
HETATM   24  C   UNL     1     -10.321  14.492  64.995  1.00  0.00    -0.442 C  
HETATM   25  C   UNL     1     -10.690  15.016  67.381  1.00  0.00    -0.289 A  
HETATM   26  C   UNL     1     -11.714  14.058  67.367  1.00  0.00    -0.388 A  
HETATM   27  O   UNL     1     -12.186  13.471  66.221  1.00  0.00    -0.417 OA 
HETATM   28  C   UNL     1     -12.283  13.615  68.563  1.00  0.00    -0.183 A  
HETATM   29  C   UNL     1     -11.850  14.140  69.780  1.00  0.00    -0.381 A  
HETATM   30  C   UNL     1     -10.847  15.101  69.791  1.00  0.00    -0.284 A  
HETATM   31  F   UNL     1     -10.427  15.607  70.958  1.00  0.00    -0.263 F  
HETATM   32  C   UNL     1     -10.267  15.545  68.608  1.00  0.00    -0.216 A  
ENDBRANCH  19  22
ENDBRANCH  18  19
ENDBRANCH  16  18
ENDBRANCH  15  16
ENDBRANCH   2  15
TORSDOF 6
ENDMDL
MODEL      148
REMARK 921   NORMALIZED FREE ENERGY PREDICTED BY IDOCK:   -5.76 KCAL/MOL
REMARK 922        TOTAL FREE ENERGY PREDICTED BY IDOCK:   -8.97 KCAL/MOL
REMARK 923 INTER-LIGAND FREE ENERGY PREDICTED BY IDOCK:   -8.21 KCAL/MOL
REMARK 924 INTRA-LIGAND FREE ENERGY PREDICTED BY IDOCK:   -0.76 KCAL/MOL
REMARK 927      BINDING AFFINITY PREDICTED BY RF-SCORE:    0.00 PKD
ROOT
HETATM    1  O   UNL     1     -10.120  10.427  65.666  1.00  0.00    -0.259 OA 
HETATM    2  C   UNL     1      -9.980  10.851  67.029  1.00  0.00    -0.192 C  
HETATM    3  H   UNL     1      -9.437   9.801  65.455  1.00  0.00     0.000 HD 
ENDROOT
BRANCH   2   4
HETATM    4  C   UNL     1      -9.995   9.619  67.964  1.00  0.00    -0.160 C  
HETATM    5  C   UNL     1     -11.671   6.888  71.784  1.00  0.00    -0.302 A  
HETATM    6  C   UNL     1     -11.799   8.217  72.166  1.00  0.00    -0.417 A  
HETATM    7  C   UNL     1     -10.566   8.372  67.282  1.00  0.00    -0.328 C  
HETATM    8  C   UNL     1     -10.418   7.188  68.222  1.00  0.00    -0.235 C  
HETATM    9  F   UNL     1     -11.989   5.916  72.652  1.00  0.00    -0.321 F  
HETATM   10  C   UNL     1     -11.470   9.226  71.257  1.00  0.00    -0.418 A  
HETATM   11  O   UNL     1     -10.736   9.950  69.152  1.00  0.00    -0.210 OA 
HETATM   12  C   UNL     1     -10.899   7.555  69.594  1.00  0.00    -0.210 A  
HETATM   13  C   UNL     1     -11.012   8.897  69.982  1.00  0.00    -0.206 A  
HETATM   14  C   UNL     1     -11.223   6.547  70.512  1.00  0.00    -0.401 A  
ENDBRANCH   2   4
BRANCH   2  15
HETATM   15  C   UNL     1     -11.090  11.867  67.371  1.00  0.00    -0.279 C  
BRANCH  15  16
HETATM   16  N   UNL     1     -10.712  12.745  68.493  1.00  0.00    -0.248 NA 
HETATM   17  H   UNL     1     -10.127  12.267  69.179  1.00  0.00     0.000 HD 
BRANCH  16  18
HETATM   18  C   UNL     1     -10.072  13.962  67.963  1.00  0.00    -0.244 C  
BRANCH  18  19
HETATM   19  C   UNL     1     -11.053  15.152  67.948  1.00  0.00    -0.321 C  
HETATM   20  H   UNL     1     -12.751  15.597  68.830  1.00  0.00     0.000 HD 
HETATM   21  O   UNL     1     -12.146  14.864  68.839  1.00  0.00    -0.273 OA 
BRANCH  19  22
HETATM   22  C   UNL     1     -10.385  16.480  68.373  1.00  0.00    -0.294 C  
HETATM   23  C   UNL     1     -10.027  18.884  67.877  1.00  0.00    -0.408 C  
HETATM   24  C   UNL     1     -10.613  17.588  67.344  1.00  0.00    -0.311 C  
HETATM   25  C   UNL     1      -8.637  18.643  68.386  1.00  0.00    -0.366 A  
HETATM   26  C   UNL     1      -8.201  17.352  68.714  1.00  0.00    -0.226 A  
HETATM   27  O   UNL     1      -8.976  16.231  68.569  1.00  0.00    -0.201 OA 
HETATM   28  C   UNL     1      -6.898  17.141  69.175  1.00  0.00    -0.236 A  
HETATM   29  C   UNL     1      -6.030  18.221  69.333  1.00  0.00    -0.247 A  
HETATM   30  C   UNL     1      -6.470  19.502  69.024  1.00  0.00    -0.307 A  
HETATM   31  F   UNL     1      -5.638  20.542  69.173  1.00  0.00    -0.269 F  
HETATM   32  C   UNL     1      -7.761  19.724  68.557  1.00  0.00    -0.324 A  
ENDBRANCH  19  22
ENDBRANCH  18  19
ENDBRANCH  16  18
ENDBRANCH  15  16
ENDBRANCH   2  15
TORSDOF 6
ENDMDL
MODEL      149
REMARK 921   NORMALIZED FREE ENERGY PREDICTED BY IDOCK:   -5.75 KCAL/MOL
REMARK 922        TOTAL FREE ENERGY PREDICTED BY IDOCK:   -8.96 KCAL/MOL
REMARK 923 INTER-LIGAND FREE ENERGY PREDICTED BY IDOCK:   -7.68 KCAL/MOL
REMARK 924 INTRA-LIGAND FREE ENERGY PREDICTED BY IDOCK:   -1.28 KCAL/MOL
REMARK 927      BINDING AFFINITY PREDICTED BY RF-SCORE:    0.00 PKD
ROOT
HETATM    1  O   UNL     1      -7.289  11.490  66.402  1.00  0.00    -0.326 OA 
HETATM    2  C   UNL     1      -6.835  11.307  67.750  1.00  0.00    -0.074 C  
HETATM    3  H   UNL     1      -7.488  10.646  66.014  1.00  0.00     0.000 HD 
ENDROOT
BRANCH   2   4
HETATM    4  C   UNL     1      -7.893  10.518  68.555  1.00  0.00    -0.111 C  
HETATM    5  C   UNL     1     -10.922   6.655  69.432  1.00  0.00    -0.309 A  
HETATM    6  C   UNL     1     -10.885   6.820  68.054  1.00  0.00    -0.306 A  
HETATM    7  C   UNL     1      -7.320   9.903  69.835  1.00  0.00    -0.147 C  
HETATM    8  C   UNL     1      -8.451   9.267  70.624  1.00  0.00    -0.258 C  
HETATM    9  F   UNL     1     -11.719   5.718  69.965  1.00  0.00    -0.295 F  
HETATM   10  C   UNL     1     -10.051   7.795  67.502  1.00  0.00    -0.272 A  
HETATM   11  O   UNL     1      -8.464   9.509  67.702  1.00  0.00    -0.121 OA 
HETATM   12  C   UNL     1      -9.296   8.418  69.721  1.00  0.00    -0.158 A  
HETATM   13  C   UNL     1      -9.268   8.597  68.332  1.00  0.00    -0.138 A  
HETATM   14  C   UNL     1     -10.141   7.443  70.270  1.00  0.00    -0.197 A  
ENDBRANCH   2   4
BRANCH   2  15
HETATM   15  C   UNL     1      -6.513  12.678  68.379  1.00  0.00    -0.078 C  
BRANCH  15  16
HETATM   16  N   UNL     1      -7.732  13.422  68.742  1.00  0.00    -0.286 NA 
HETATM   17  H   UNL     1      -7.867  13.473  69.752  1.00  0.00     0.000 HD 
BRANCH  16  18
HETATM   18  C   UNL     1      -7.692  14.755  68.115  1.00  0.00    -0.122 C  
BRANCH  18  19
HETATM   19  C   UNL     1      -8.999  15.534  68.366  1.00  0.00    -0.189 C  
HETATM   20  H   UNL     1      -9.542  17.421  68.371  1.00  0.00     0.000 HD 
HETATM   21  O   UNL     1      -8.737  16.942  68.217  1.00  0.00    -0.218 OA 
BRANCH  19  22
HETATM   22  C   UNL     1     -10.133  15.121  67.398  1.00  0.00    -0.229 C  
HETATM   23  C   UNL     1     -12.370  14.084  67.133  1.00  0.00    -0.234 C  
HETATM   24  C   UNL     1     -11.247  14.359  68.116  1.00  0.00    -0.300 C  
HETATM   25  C   UNL     1     -11.808  13.520  65.861  1.00  0.00    -0.405 A  
HETATM   26  C   UNL     1     -10.455  13.684  65.533  1.00  0.00    -0.306 A  
HETATM   27  O   UNL     1      -9.553  14.327  66.340  1.00  0.00    -0.282 OA 
HETATM   28  C   UNL     1      -9.944  13.142  64.352  1.00  0.00    -0.095 A  
HETATM   29  C   UNL     1     -10.784  12.450  63.479  1.00  0.00    -0.473 A  
HETATM   30  C   UNL     1     -12.128  12.304  63.798  1.00  0.00    -0.532 A  
HETATM   31  F   UNL     1     -12.938  11.639  62.963  1.00  0.00    -0.682 F  
HETATM   32  C   UNL     1     -12.648  12.832  64.974  1.00  0.00    -0.538 A  
ENDBRANCH  19  22
ENDBRANCH  18  19
ENDBRANCH  16  18
ENDBRANCH  15  16
ENDBRANCH   2  15
TORSDOF 6
ENDMDL
MODEL      150
REMARK 921   NORMALIZED FREE ENERGY PREDICTED BY IDOCK:   -5.75 KCAL/MOL
REMARK 922        TOTAL FREE ENERGY PREDICTED BY IDOCK:   -8.96 KCAL/MOL
REMARK 923 INTER-LIGAND FREE ENERGY PREDICTED BY IDOCK:   -8.27 KCAL/MOL
REMARK 924 INTRA-LIGAND FREE ENERGY PREDICTED BY IDOCK:   -0.69 KCAL/MOL
REMARK 927      BINDING AFFINITY PREDICTED BY RF-SCORE:    0.00 PKD
ROOT
HETATM    1  O   UNL     1     -12.924   5.936  72.358  1.00  0.00    -0.342 OA 
HETATM    2  C   UNL     1     -12.329   6.956  71.543  1.00  0.00    -0.376 C  
HETATM    3  H   UNL     1     -13.214   5.218  71.809  1.00  0.00     0.000 HD 
ENDROOT
BRANCH   2   4
HETATM    4  C   UNL     1     -11.181   6.348  70.703  1.00  0.00    -0.339 C  
HETATM    5  C   UNL     1      -8.702   5.411  66.479  1.00  0.00    -0.117 A  
HETATM    6  C   UNL     1     -10.051   5.424  66.148  1.00  0.00    -0.173 A  
HETATM    7  C   UNL     1      -9.854   7.088  70.901  1.00  0.00    -0.190 C  
HETATM    8  C   UNL     1      -8.762   6.346  70.149  1.00  0.00    -0.139 C  
HETATM    9  F   UNL     1      -7.794   5.116  65.539  1.00  0.00    -0.086 F  
HETATM   10  C   UNL     1     -10.995   5.736  67.130  1.00  0.00    -0.205 A  
HETATM   11  O   UNL     1     -11.574   6.343  69.319  1.00  0.00    -0.354 OA 
HETATM   12  C   UNL     1      -9.220   6.027  68.757  1.00  0.00    -0.123 A  
HETATM   13  C   UNL     1     -10.582   6.025  68.431  1.00  0.00    -0.261 A  
HETATM   14  C   UNL     1      -8.278   5.705  67.770  1.00  0.00    -0.101 A  
ENDBRANCH   2   4
BRANCH   2  15
HETATM   15  C   UNL     1     -11.858   8.123  72.434  1.00  0.00    -0.388 C  
BRANCH  15  16
HETATM   16  N   UNL     1     -12.654   9.344  72.218  1.00  0.00    -0.340 NA 
HETATM   17  H   UNL     1     -12.804   9.866  73.081  1.00  0.00     0.000 HD 
BRANCH  16  18
HETATM   18  C   UNL     1     -12.013  10.162  71.173  1.00  0.00    -0.386 C  
BRANCH  18  19
HETATM   19  C   UNL     1     -12.733  11.513  70.996  1.00  0.00    -0.328 C  
HETATM   20  H   UNL     1     -13.317  12.971  72.176  1.00  0.00     0.000 HD 
HETATM   21  O   UNL     1     -12.873  12.138  72.285  1.00  0.00    -0.180 OA 
BRANCH  19  22
HETATM   22  C   UNL     1     -11.978  12.471  70.045  1.00  0.00    -0.299 C  
HETATM   23  C   UNL     1     -11.567  14.814  69.344  1.00  0.00    -0.342 C  
HETATM   24  C   UNL     1     -12.422  13.923  70.226  1.00  0.00    -0.380 C  
HETATM   25  C   UNL     1     -11.497  14.245  67.958  1.00  0.00    -0.342 A  
HETATM   26  C   UNL     1     -11.797  12.898  67.714  1.00  0.00    -0.339 A  
HETATM   27  O   UNL     1     -12.198  12.022  68.690  1.00  0.00    -0.299 OA 
HETATM   28  C   UNL     1     -11.741  12.385  66.415  1.00  0.00    -0.453 A  
HETATM   29  C   UNL     1     -11.365  13.209  65.354  1.00  0.00    -0.323 A  
HETATM   30  C   UNL     1     -11.051  14.540  65.601  1.00  0.00    -0.327 A  
HETATM   31  F   UNL     1     -10.691  15.335  64.584  1.00  0.00    -0.406 F  
HETATM   32  C   UNL     1     -11.111  15.064  66.888  1.00  0.00    -0.331 A  
ENDBRANCH  19  22
ENDBRANCH  18  19
ENDBRANCH  16  18
ENDBRANCH  15  16
ENDBRANCH   2  15
TORSDOF 6
ENDMDL
MODEL      151
REMARK 921   NORMALIZED FREE ENERGY PREDICTED BY IDOCK:   -5.75 KCAL/MOL
REMARK 922        TOTAL FREE ENERGY PREDICTED BY IDOCK:   -8.96 KCAL/MOL
REMARK 923 INTER-LIGAND FREE ENERGY PREDICTED BY IDOCK:   -8.33 KCAL/MOL
REMARK 924 INTRA-LIGAND FREE ENERGY PREDICTED BY IDOCK:   -0.63 KCAL/MOL
REMARK 927      BINDING AFFINITY PREDICTED BY RF-SCORE:    0.00 PKD
ROOT
HETATM    1  O   UNL     1      -9.295  11.133  69.288  1.00  0.00    -0.400 OA 
HETATM    2  C   UNL     1      -9.866  10.086  68.492  1.00  0.00    -0.156 C  
HETATM    3  H   UNL     1      -9.715  11.153  70.140  1.00  0.00     0.000 HD 
ENDROOT
BRANCH   2   4
HETATM    4  C   UNL     1      -9.751   8.738  69.242  1.00  0.00    -0.172 C  
HETATM    5  C   UNL     1     -10.750   5.546  72.940  1.00  0.00    -0.249 A  
HETATM    6  C   UNL     1     -10.734   6.813  73.509  1.00  0.00    -0.319 A  
HETATM    7  C   UNL     1     -10.507   7.607  68.538  1.00  0.00    -0.206 C  
HETATM    8  C   UNL     1     -10.229   6.304  69.265  1.00  0.00    -0.236 C  
HETATM    9  F   UNL     1     -10.932   4.472  73.722  1.00  0.00    -0.272 F  
HETATM   10  C   UNL     1     -10.547   7.929  72.690  1.00  0.00    -0.394 A  
HETATM   11  O   UNL     1     -10.220   8.919  70.590  1.00  0.00    -0.193 OA 
HETATM   12  C   UNL     1     -10.405   6.490  70.743  1.00  0.00    -0.241 A  
HETATM   13  C   UNL     1     -10.373   7.768  71.316  1.00  0.00    -0.198 A  
HETATM   14  C   UNL     1     -10.584   5.372  71.570  1.00  0.00    -0.285 A  
ENDBRANCH   2   4
BRANCH   2  15
HETATM   15  C   UNL     1      -9.183  10.055  67.110  1.00  0.00    -0.141 C  
BRANCH  15  16
HETATM   16  N   UNL     1     -10.095  10.471  66.030  1.00  0.00    -0.248 NA 
HETATM   17  H   UNL     1     -11.072  10.278  66.252  1.00  0.00     0.000 HD 
BRANCH  16  18
HETATM   18  C   UNL     1      -9.863  11.893  65.720  1.00  0.00    -0.238 C  
BRANCH  18  19
HETATM   19  C   UNL     1     -11.090  12.755  66.080  1.00  0.00    -0.285 C  
HETATM   20  H   UNL     1     -12.819  12.455  66.963  1.00  0.00     0.000 HD 
HETATM   21  O   UNL     1     -12.063  11.925  66.742  1.00  0.00    -0.593 OA 
BRANCH  19  22
HETATM   22  C   UNL     1     -10.732  13.949  66.996  1.00  0.00    -0.283 C  
HETATM   23  C   UNL     1     -11.484  15.516  68.765  1.00  0.00    -0.363 C  
HETATM   24  C   UNL     1     -11.934  14.420  67.815  1.00  0.00    -0.368 C  
HETATM   25  C   UNL     1     -10.670  16.533  68.022  1.00  0.00    -0.343 A  
HETATM   26  C   UNL     1     -10.077  16.224  66.790  1.00  0.00    -0.278 A  
HETATM   27  O   UNL     1     -10.216  15.011  66.165  1.00  0.00    -0.269 OA 
HETATM   28  C   UNL     1      -9.332  17.186  66.103  1.00  0.00    -0.222 A  
HETATM   29  C   UNL     1      -9.155  18.456  66.652  1.00  0.00    -0.301 A  
HETATM   30  C   UNL     1      -9.729  18.754  67.882  1.00  0.00    -0.329 A  
HETATM   31  F   UNL     1      -9.564  19.974  68.411  1.00  0.00    -0.411 F  
HETATM   32  C   UNL     1     -10.480  17.808  68.571  1.00  0.00    -0.332 A  
ENDBRANCH  19  22
ENDBRANCH  18  19
ENDBRANCH  16  18
ENDBRANCH  15  16
ENDBRANCH   2  15
TORSDOF 6
ENDMDL
MODEL      152
REMARK 921   NORMALIZED FREE ENERGY PREDICTED BY IDOCK:   -5.74 KCAL/MOL
REMARK 922        TOTAL FREE ENERGY PREDICTED BY IDOCK:   -8.95 KCAL/MOL
REMARK 923 INTER-LIGAND FREE ENERGY PREDICTED BY IDOCK:   -6.86 KCAL/MOL
REMARK 924 INTRA-LIGAND FREE ENERGY PREDICTED BY IDOCK:   -2.09 KCAL/MOL
REMARK 927      BINDING AFFINITY PREDICTED BY RF-SCORE:    0.00 PKD
ROOT
HETATM    1  O   UNL     1      -6.551   7.941  65.978  1.00  0.00    -0.048 OA 
HETATM    2  C   UNL     1      -7.942   7.617  66.109  1.00  0.00    -0.110 C  
HETATM    3  H   UNL     1      -6.284   7.842  65.072  1.00  0.00     0.000 HD 
ENDROOT
BRANCH   2   4
HETATM    4  C   UNL     1      -8.775   8.495  65.146  1.00  0.00    -0.120 C  
HETATM    5  C   UNL     1     -11.508  12.480  63.916  1.00  0.00    -0.437 A  
HETATM    6  C   UNL     1     -11.808  12.193  65.241  1.00  0.00    -0.356 A  
HETATM    7  C   UNL     1      -7.909   9.210  64.105  1.00  0.00    -0.128 C  
HETATM    8  C   UNL     1      -8.815   9.936  63.126  1.00  0.00    -0.254 C  
HETATM    9  F   UNL     1     -12.153  13.477  63.293  1.00  0.00    -0.542 F  
HETATM   10  C   UNL     1     -11.130  11.156  65.887  1.00  0.00    -0.105 A  
HETATM   11  O   UNL     1      -9.539   9.435  65.923  1.00  0.00    -0.232 OA 
HETATM   12  C   UNL     1      -9.856  10.718  63.871  1.00  0.00    -0.389 A  
HETATM   13  C   UNL     1     -10.167  10.415  65.203  1.00  0.00    -0.256 A  
HETATM   14  C   UNL     1     -10.545  11.754  63.224  1.00  0.00    -0.427 A  
ENDBRANCH   2   4
BRANCH   2  15
HETATM   15  C   UNL     1      -8.375   7.777  67.581  1.00  0.00    -0.121 C  
BRANCH  15  16
HETATM   16  N   UNL     1      -7.608   8.828  68.274  1.00  0.00    -0.095 NA 
HETATM   17  H   UNL     1      -7.811   9.759  67.909  1.00  0.00     0.000 HD 
BRANCH  16  18
HETATM   18  C   UNL     1      -7.852   8.729  69.724  1.00  0.00    -0.090 C  
BRANCH  18  19
HETATM   19  C   UNL     1      -9.360   8.649  70.036  1.00  0.00    -0.162 C  
HETATM   20  H   UNL     1     -10.465   7.973  71.513  1.00  0.00     0.000 HD 
HETATM   21  O   UNL     1      -9.536   8.023  71.321  1.00  0.00    -0.152 OA 
BRANCH  19  22
HETATM   22  C   UNL     1     -10.041  10.038  70.049  1.00  0.00    -0.239 C  
HETATM   23  C   UNL     1     -12.152  11.324  69.855  1.00  0.00    -0.414 C  
HETATM   24  C   UNL     1     -11.531   9.946  69.717  1.00  0.00    -0.194 C  
HETATM   25  C   UNL     1     -11.311  12.338  69.137  1.00  0.00    -0.330 A  
HETATM   26  C   UNL     1      -9.971  12.072  68.822  1.00  0.00    -0.073 A  
HETATM   27  O   UNL     1      -9.347  10.885  69.108  1.00  0.00    -0.170 OA 
HETATM   28  C   UNL     1      -9.204  13.021  68.142  1.00  0.00    -0.212 A  
HETATM   29  C   UNL     1      -9.762  14.250  67.790  1.00  0.00    -0.222 A  
HETATM   30  C   UNL     1     -11.085  14.517  68.118  1.00  0.00    -0.266 A  
HETATM   31  F   UNL     1     -11.626  15.696  67.780  1.00  0.00    -0.328 F  
HETATM   32  C   UNL     1     -11.862  13.578  68.789  1.00  0.00    -0.390 A  
ENDBRANCH  19  22
ENDBRANCH  18  19
ENDBRANCH  16  18
ENDBRANCH  15  16
ENDBRANCH   2  15
TORSDOF 6
ENDMDL
MODEL      153
REMARK 921   NORMALIZED FREE ENERGY PREDICTED BY IDOCK:   -5.72 KCAL/MOL
REMARK 922        TOTAL FREE ENERGY PREDICTED BY IDOCK:   -8.91 KCAL/MOL
REMARK 923 INTER-LIGAND FREE ENERGY PREDICTED BY IDOCK:   -8.16 KCAL/MOL
REMARK 924 INTRA-LIGAND FREE ENERGY PREDICTED BY IDOCK:   -0.75 KCAL/MOL
REMARK 927      BINDING AFFINITY PREDICTED BY RF-SCORE:    0.00 PKD
ROOT
HETATM    1  O   UNL     1     -12.022   7.746  73.149  1.00  0.00    -0.644 OA 
HETATM    2  C   UNL     1     -11.782   8.068  71.772  1.00  0.00    -0.291 C  
HETATM    3  H   UNL     1     -12.707   7.092  73.209  1.00  0.00     0.000 HD 
ENDROOT
BRANCH   2   4
HETATM    4  C   UNL     1     -11.443   6.780  70.987  1.00  0.00    -0.324 C  
HETATM    5  C   UNL     1      -9.789   4.217  67.041  1.00  0.00    -0.179 A  
HETATM    6  C   UNL     1     -10.412   5.353  66.539  1.00  0.00    -0.352 A  
HETATM    7  C   UNL     1     -10.192   6.077  71.521  1.00  0.00    -0.249 C  
HETATM    8  C   UNL     1     -10.014   4.761  70.783  1.00  0.00    -0.291 C  
HETATM    9  F   UNL     1      -9.301   3.301  66.193  1.00  0.00    -0.151 F  
HETATM   10  C   UNL     1     -10.916   6.307  67.426  1.00  0.00    -0.447 A  
HETATM   11  O   UNL     1     -11.300   7.113  69.594  1.00  0.00    -0.180 OA 
HETATM   12  C   UNL     1     -10.156   4.976  69.306  1.00  0.00    -0.270 A  
HETATM   13  C   UNL     1     -10.798   6.114  68.802  1.00  0.00    -0.336 A  
HETATM   14  C   UNL     1      -9.659   4.017  68.411  1.00  0.00    -0.186 A  
ENDBRANCH   2   4
BRANCH   2  15
HETATM   15  C   UNL     1     -10.668   9.131  71.675  1.00  0.00    -0.371 C  
BRANCH  15  16
HETATM   16  N   UNL     1     -11.057  10.267  70.821  1.00  0.00    -0.380 NA 
HETATM   17  H   UNL     1     -10.850  11.166  71.255  1.00  0.00     0.000 HD 
BRANCH  16  18
HETATM   18  C   UNL     1     -10.418  10.122  69.501  1.00  0.00    -0.241 C  
BRANCH  18  19
HETATM   19  C   UNL     1     -11.372  10.542  68.365  1.00  0.00    -0.262 C  
HETATM   20  H   UNL     1     -13.225  11.182  68.238  1.00  0.00     0.000 HD 
HETATM   21  O   UNL     1     -12.637  10.923  68.938  1.00  0.00    -0.338 OA 
BRANCH  19  22
HETATM   22  C   UNL     1     -10.819  11.718  67.526  1.00  0.00    -0.239 C  
HETATM   23  C   UNL     1      -8.824  12.823  66.551  1.00  0.00    -0.046 C  
HETATM   24  C   UNL     1      -9.291  11.713  67.476  1.00  0.00    -0.168 C  
HETATM   25  C   UNL     1      -9.535  14.100  66.888  1.00  0.00    -0.275 A  
HETATM   26  C   UNL     1     -10.733  14.091  67.615  1.00  0.00    -0.257 A  
HETATM   27  O   UNL     1     -11.320  12.948  68.093  1.00  0.00    -0.252 OA 
HETATM   28  C   UNL     1     -11.376  15.290  67.933  1.00  0.00    -0.339 A  
HETATM   29  C   UNL     1     -10.839  16.505  67.507  1.00  0.00    -0.237 A  
HETATM   30  C   UNL     1      -9.661  16.511  66.772  1.00  0.00    -0.254 A  
HETATM   31  F   UNL     1      -9.141  17.676  66.363  1.00  0.00    -0.256 F  
HETATM   32  C   UNL     1      -9.007  15.325  66.456  1.00  0.00    -0.340 A  
ENDBRANCH  19  22
ENDBRANCH  18  19
ENDBRANCH  16  18
ENDBRANCH  15  16
ENDBRANCH   2  15
TORSDOF 6
ENDMDL
MODEL      154
REMARK 921   NORMALIZED FREE ENERGY PREDICTED BY IDOCK:   -5.71 KCAL/MOL
REMARK 922        TOTAL FREE ENERGY PREDICTED BY IDOCK:   -8.90 KCAL/MOL
REMARK 923 INTER-LIGAND FREE ENERGY PREDICTED BY IDOCK:   -8.46 KCAL/MOL
REMARK 924 INTRA-LIGAND FREE ENERGY PREDICTED BY IDOCK:   -0.44 KCAL/MOL
REMARK 927      BINDING AFFINITY PREDICTED BY RF-SCORE:    0.00 PKD
ROOT
HETATM    1  O   UNL     1     -11.962   8.034  73.253  1.00  0.00    -0.598 OA 
HETATM    2  C   UNL     1     -12.287   7.617  71.920  1.00  0.00    -0.306 C  
HETATM    3  H   UNL     1     -12.295   7.400  73.876  1.00  0.00     0.000 HD 
ENDROOT
BRANCH   2   4
HETATM    4  C   UNL     1     -11.735   6.194  71.670  1.00  0.00    -0.228 C  
HETATM    5  C   UNL     1      -8.792   2.833  69.455  1.00  0.00    -0.095 A  
HETATM    6  C   UNL     1      -9.100   3.781  68.489  1.00  0.00    -0.196 A  
HETATM    7  C   UNL     1     -10.839   5.702  72.811  1.00  0.00    -0.303 C  
HETATM    8  C   UNL     1     -10.455   4.257  72.546  1.00  0.00    -0.222 C  
HETATM    9  F   UNL     1      -8.057   1.762  69.120  1.00  0.00    -0.047 F  
HETATM   10  C   UNL     1      -9.862   4.897  68.843  1.00  0.00    -0.241 A  
HETATM   11  O   UNL     1     -11.032   6.186  70.414  1.00  0.00    -0.286 OA 
HETATM   12  C   UNL     1      -9.986   4.099  71.130  1.00  0.00    -0.211 A  
HETATM   13  C   UNL     1     -10.312   5.050  70.154  1.00  0.00    -0.236 A  
HETATM   14  C   UNL     1      -9.228   2.977  70.767  1.00  0.00    -0.206 A  
ENDBRANCH   2   4
BRANCH   2  15
HETATM   15  C   UNL     1     -11.746   8.648  70.908  1.00  0.00    -0.252 C  
BRANCH  15  16
HETATM   16  N   UNL     1     -12.745   9.681  70.581  1.00  0.00    -0.526 NA 
HETATM   17  H   UNL     1     -13.374   9.872  71.361  1.00  0.00     0.000 HD 
BRANCH  16  18
HETATM   18  C   UNL     1     -12.051  10.894  70.112  1.00  0.00    -0.349 C  
BRANCH  18  19
HETATM   19  C   UNL     1     -12.772  12.172  70.585  1.00  0.00    -0.067 C  
HETATM   20  H   UNL     1     -13.489  12.846  72.286  1.00  0.00     0.000 HD 
HETATM   21  O   UNL     1     -13.044  12.058  71.994  1.00  0.00    -0.456 OA 
BRANCH  19  22
HETATM   22  C   UNL     1     -11.944  13.453  70.328  1.00  0.00    -0.308 C  
HETATM   23  C   UNL     1     -11.635  15.866  70.813  1.00  0.00    -0.441 C  
HETATM   24  C   UNL     1     -12.554  14.675  71.016  1.00  0.00    -0.400 C  
HETATM   25  C   UNL     1     -11.243  15.968  69.369  1.00  0.00    -0.349 A  
HETATM   26  C   UNL     1     -11.356  14.866  68.510  1.00  0.00    -0.298 A  
HETATM   27  O   UNL     1     -11.852  13.649  68.901  1.00  0.00    -0.324 OA 
HETATM   28  C   UNL     1     -11.000  14.980  67.164  1.00  0.00    -0.329 A  
HETATM   29  C   UNL     1     -10.507  16.188  66.671  1.00  0.00    -0.300 A  
HETATM   30  C   UNL     1     -10.379  17.273  67.528  1.00  0.00    -0.346 A  
HETATM   31  F   UNL     1      -9.907  18.436  67.058  1.00  0.00    -0.287 F  
HETATM   32  C   UNL     1     -10.738  17.175  68.868  1.00  0.00    -0.257 A  
ENDBRANCH  19  22
ENDBRANCH  18  19
ENDBRANCH  16  18
ENDBRANCH  15  16
ENDBRANCH   2  15
TORSDOF 6
ENDMDL
MODEL      155
REMARK 921   NORMALIZED FREE ENERGY PREDICTED BY IDOCK:   -5.70 KCAL/MOL
REMARK 922        TOTAL FREE ENERGY PREDICTED BY IDOCK:   -8.89 KCAL/MOL
REMARK 923 INTER-LIGAND FREE ENERGY PREDICTED BY IDOCK:   -8.17 KCAL/MOL
REMARK 924 INTRA-LIGAND FREE ENERGY PREDICTED BY IDOCK:   -0.72 KCAL/MOL
REMARK 927      BINDING AFFINITY PREDICTED BY RF-SCORE:    0.00 PKD
ROOT
HETATM    1  O   UNL     1      -7.548  10.817  67.330  1.00  0.00    -0.095 OA 
HETATM    2  C   UNL     1      -8.871  11.301  67.601  1.00  0.00    -0.138 C  
HETATM    3  H   UNL     1      -6.992  10.969  68.085  1.00  0.00     0.000 HD 
ENDROOT
BRANCH   2   4
HETATM    4  C   UNL     1      -9.418  10.635  68.885  1.00  0.00    -0.192 C  
HETATM    5  C   UNL     1     -12.969   9.456  72.181  1.00  0.00    -0.421 A  
HETATM    6  C   UNL     1     -13.272  10.729  71.717  1.00  0.00    -0.523 A  
HETATM    7  C   UNL     1      -9.528   9.113  68.757  1.00  0.00    -0.147 C  
HETATM    8  C   UNL     1      -9.941   8.535  70.099  1.00  0.00    -0.187 C  
HETATM    9  F   UNL     1     -13.727   8.903  73.138  1.00  0.00    -0.373 F  
HETATM   10  C   UNL     1     -12.481  11.300  70.716  1.00  0.00    -0.471 A  
HETATM   11  O   UNL     1     -10.691  11.225  69.204  1.00  0.00    -0.215 OA 
HETATM   12  C   UNL     1     -11.101   9.306  70.656  1.00  0.00    -0.335 A  
HETATM   13  C   UNL     1     -11.394  10.597  70.197  1.00  0.00    -0.323 A  
HETATM   14  C   UNL     1     -11.892   8.741  71.666  1.00  0.00    -0.399 A  
ENDBRANCH   2   4
BRANCH   2  15
HETATM   15  C   UNL     1      -9.774  11.054  66.375  1.00  0.00    -0.201 C  
BRANCH  15  16
HETATM   16  N   UNL     1     -10.334  12.306  65.836  1.00  0.00    -0.246 NA 
HETATM   17  H   UNL     1     -11.324  12.413  66.056  1.00  0.00     0.000 HD 
BRANCH  16  18
HETATM   18  C   UNL     1      -9.528  13.443  66.314  1.00  0.00    -0.183 C  
BRANCH  18  19
HETATM   19  C   UNL     1     -10.363  14.737  66.377  1.00  0.00    -0.293 C  
HETATM   20  H   UNL     1     -12.203  15.211  66.878  1.00  0.00     0.000 HD 
HETATM   21  O   UNL     1     -11.688  14.413  66.839  1.00  0.00    -0.372 OA 
BRANCH  19  22
HETATM   22  C   UNL     1      -9.744  15.801  67.314  1.00  0.00    -0.223 C  
HETATM   23  C   UNL     1     -10.125  17.785  68.753  1.00  0.00    -0.381 C  
HETATM   24  C   UNL     1     -10.773  16.842  67.755  1.00  0.00    -0.321 C  
HETATM   25  C   UNL     1      -8.801  18.253  68.227  1.00  0.00    -0.301 A  
HETATM   26  C   UNL     1      -8.134  17.547  67.216  1.00  0.00    -0.203 A  
HETATM   27  O   UNL     1      -8.639  16.420  66.620  1.00  0.00    -0.206 OA 
HETATM   28  C   UNL     1      -6.908  18.003  66.727  1.00  0.00    -0.228 A  
HETATM   29  C   UNL     1      -6.328  19.155  67.258  1.00  0.00    -0.189 A  
HETATM   30  C   UNL     1      -6.982  19.843  68.272  1.00  0.00    -0.297 A  
HETATM   31  F   UNL     1      -6.429  20.951  68.784  1.00  0.00    -0.328 F  
HETATM   32  C   UNL     1      -8.207  19.404  68.762  1.00  0.00    -0.382 A  
ENDBRANCH  19  22
ENDBRANCH  18  19
ENDBRANCH  16  18
ENDBRANCH  15  16
ENDBRANCH   2  15
TORSDOF 6
ENDMDL
MODEL      156
REMARK 921   NORMALIZED FREE ENERGY PREDICTED BY IDOCK:   -5.69 KCAL/MOL
REMARK 922        TOTAL FREE ENERGY PREDICTED BY IDOCK:   -8.88 KCAL/MOL
REMARK 923 INTER-LIGAND FREE ENERGY PREDICTED BY IDOCK:   -8.38 KCAL/MOL
REMARK 924 INTRA-LIGAND FREE ENERGY PREDICTED BY IDOCK:   -0.50 KCAL/MOL
REMARK 927      BINDING AFFINITY PREDICTED BY RF-SCORE:    0.00 PKD
ROOT
HETATM    1  O   UNL     1     -11.382   6.072  66.405  1.00  0.00    -0.732 OA 
HETATM    2  C   UNL     1     -10.071   6.384  66.899  1.00  0.00    -0.187 C  
HETATM    3  H   UNL     1     -11.523   5.134  66.445  1.00  0.00     0.000 HD 
ENDROOT
BRANCH   2   4
HETATM    4  C   UNL     1      -9.905   5.820  68.329  1.00  0.00    -0.139 C  
HETATM    5  C   UNL     1      -8.634   2.353  71.680  1.00  0.00    -0.063 A  
HETATM    6  C   UNL     1      -9.119   1.669  70.572  1.00  0.00    -0.145 A  
HETATM    7  C   UNL     1      -8.742   6.469  69.086  1.00  0.00    -0.129 C  
HETATM    8  C   UNL     1      -8.739   5.955  70.515  1.00  0.00    -0.140 C  
HETATM    9  F   UNL     1      -8.274   1.667  72.774  1.00  0.00    -0.048 F  
HETATM   10  C   UNL     1      -9.489   2.386  69.432  1.00  0.00    -0.126 A  
HETATM   11  O   UNL     1      -9.741   4.392  68.245  1.00  0.00    -0.150 OA 
HETATM   12  C   UNL     1      -8.873   4.462  70.526  1.00  0.00    -0.136 A  
HETATM   13  C   UNL     1      -9.377   3.776  69.413  1.00  0.00    -0.175 A  
HETATM   14  C   UNL     1      -8.511   3.738  71.670  1.00  0.00    -0.097 A  
ENDBRANCH   2   4
BRANCH   2  15
HETATM   15  C   UNL     1      -9.842   7.908  66.833  1.00  0.00    -0.239 C  
BRANCH  15  16
HETATM   16  N   UNL     1     -10.940   8.663  67.463  1.00  0.00    -0.459 NA 
HETATM   17  H   UNL     1     -11.667   8.051  67.834  1.00  0.00     0.000 HD 
BRANCH  16  18
HETATM   18  C   UNL     1     -10.383   9.558  68.493  1.00  0.00    -0.207 C  
BRANCH  18  19
HETATM   19  C   UNL     1     -10.899  11.001  68.321  1.00  0.00    -0.215 C  
HETATM   20  H   UNL     1     -12.344  11.877  67.320  1.00  0.00     0.000 HD 
HETATM   21  O   UNL     1     -12.027  10.988  67.426  1.00  0.00    -0.450 OA 
BRANCH  19  22
HETATM   22  C   UNL     1     -11.321  11.647  69.662  1.00  0.00    -0.236 C  
HETATM   23  C   UNL     1     -12.893  11.626  71.581  1.00  0.00    -0.454 C  
HETATM   24  C   UNL     1     -12.601  11.022  70.218  1.00  0.00    -0.321 C  
HETATM   25  C   UNL     1     -12.786  13.120  71.510  1.00  0.00    -0.401 A  
HETATM   26  C   UNL     1     -12.085  13.747  70.471  1.00  0.00    -0.345 A  
HETATM   27  O   UNL     1     -11.483  13.065  69.445  1.00  0.00    -0.273 OA 
HETATM   28  C   UNL     1     -12.006  15.141  70.411  1.00  0.00    -0.364 A  
HETATM   29  C   UNL     1     -12.608  15.917  71.400  1.00  0.00    -0.437 A  
HETATM   30  C   UNL     1     -13.288  15.294  72.439  1.00  0.00    -0.435 A  
HETATM   31  F   UNL     1     -13.870  16.037  73.390  1.00  0.00    -0.623 F  
HETATM   32  C   UNL     1     -13.381  13.908  72.505  1.00  0.00    -0.656 A  
ENDBRANCH  19  22
ENDBRANCH  18  19
ENDBRANCH  16  18
ENDBRANCH  15  16
ENDBRANCH   2  15
TORSDOF 6
ENDMDL
MODEL      157
REMARK 921   NORMALIZED FREE ENERGY PREDICTED BY IDOCK:   -5.69 KCAL/MOL
REMARK 922        TOTAL FREE ENERGY PREDICTED BY IDOCK:   -8.87 KCAL/MOL
REMARK 923 INTER-LIGAND FREE ENERGY PREDICTED BY IDOCK:   -8.05 KCAL/MOL
REMARK 924 INTRA-LIGAND FREE ENERGY PREDICTED BY IDOCK:   -0.81 KCAL/MOL
REMARK 927      BINDING AFFINITY PREDICTED BY RF-SCORE:    0.00 PKD
ROOT
HETATM    1  O   UNL     1     -11.647  16.299  68.431  1.00  0.00    -0.327 OA 
HETATM    2  C   UNL     1     -10.645  15.275  68.499  1.00  0.00    -0.237 C  
HETATM    3  H   UNL     1     -11.439  16.903  67.728  1.00  0.00     0.000 HD 
ENDROOT
BRANCH   2   4
HETATM    4  C   UNL     1     -10.523  14.571  67.128  1.00  0.00    -0.267 C  
HETATM    5  C   UNL     1      -9.874  10.642  64.127  1.00  0.00    -0.335 A  
HETATM    6  C   UNL     1      -9.081  10.417  65.244  1.00  0.00    -0.227 A  
HETATM    7  C   UNL     1     -11.870  14.450  66.407  1.00  0.00    -0.402 C  
HETATM    8  C   UNL     1     -11.636  13.874  65.022  1.00  0.00    -0.350 C  
HETATM    9  F   UNL     1      -9.848   9.768  63.111  1.00  0.00    -0.170 F  
HETATM   10  C   UNL     1      -9.115  11.328  66.303  1.00  0.00    -0.209 A  
HETATM   11  O   UNL     1      -9.918  13.280  67.324  1.00  0.00    -0.226 OA 
HETATM   12  C   UNL     1     -10.743  12.671  65.108  1.00  0.00    -0.321 A  
HETATM   13  C   UNL     1      -9.933  12.456  66.230  1.00  0.00    -0.246 A  
HETATM   14  C   UNL     1     -10.700  11.758  64.045  1.00  0.00    -0.434 A  
ENDBRANCH   2   4
BRANCH   2  15
HETATM   15  C   UNL     1     -10.984  14.294  69.640  1.00  0.00    -0.119 C  
BRANCH  15  16
HETATM   16  N   UNL     1     -12.139  13.438  69.312  1.00  0.00    -0.297 NA 
HETATM   17  H   UNL     1     -12.029  12.967  68.414  1.00  0.00     0.000 HD 
BRANCH  16  18
HETATM   18  C   UNL     1     -12.369  12.490  70.417  1.00  0.00    -0.232 C  
BRANCH  18  19
HETATM   19  C   UNL     1     -12.398  11.034  69.911  1.00  0.00    -0.288 C  
HETATM   20  H   UNL     1     -11.952  10.108  68.237  1.00  0.00     0.000 HD 
HETATM   21  O   UNL     1     -11.934  11.006  68.549  1.00  0.00    -0.535 OA 
BRANCH  19  22
HETATM   22  C   UNL     1     -11.524  10.088  70.767  1.00  0.00    -0.356 C  
HETATM   23  C   UNL     1      -9.298   9.048  71.108  1.00  0.00    -0.336 C  
HETATM   24  C   UNL     1     -10.132   9.895  70.164  1.00  0.00    -0.309 C  
HETATM   25  C   UNL     1     -10.078   7.839  71.533  1.00  0.00    -0.212 A  
HETATM   26  C   UNL     1     -11.475   7.803  71.419  1.00  0.00    -0.260 A  
HETATM   27  O   UNL     1     -12.218   8.828  70.894  1.00  0.00    -0.240 OA 
HETATM   28  C   UNL     1     -12.186   6.665  71.806  1.00  0.00    -0.400 A  
HETATM   29  C   UNL     1     -11.510   5.563  72.331  1.00  0.00    -0.266 A  
HETATM   30  C   UNL     1     -10.128   5.608  72.460  1.00  0.00    -0.178 A  
HETATM   31  F   UNL     1      -9.475   4.551  72.962  1.00  0.00    -0.131 F  
HETATM   32  C   UNL     1      -9.408   6.732  72.070  1.00  0.00    -0.144 A  
ENDBRANCH  19  22
ENDBRANCH  18  19
ENDBRANCH  16  18
ENDBRANCH  15  16
ENDBRANCH   2  15
TORSDOF 6
ENDMDL
MODEL      158
REMARK 921   NORMALIZED FREE ENERGY PREDICTED BY IDOCK:   -5.68 KCAL/MOL
REMARK 922        TOTAL FREE ENERGY PREDICTED BY IDOCK:   -8.85 KCAL/MOL
REMARK 923 INTER-LIGAND FREE ENERGY PREDICTED BY IDOCK:   -6.46 KCAL/MOL
REMARK 924 INTRA-LIGAND FREE ENERGY PREDICTED BY IDOCK:   -2.40 KCAL/MOL
REMARK 927      BINDING AFFINITY PREDICTED BY RF-SCORE:    0.00 PKD
ROOT
HETATM    1  O   UNL     1     -10.621   7.105  74.414  1.00  0.00    -0.505 OA 
HETATM    2  C   UNL     1      -9.400   7.454  73.746  1.00  0.00    -0.267 C  
HETATM    3  H   UNL     1     -11.198   7.859  74.437  1.00  0.00     0.000 HD 
ENDROOT
BRANCH   2   4
HETATM    4  C   UNL     1      -9.716   8.002  72.335  1.00  0.00    -0.240 C  
HETATM    5  C   UNL     1     -11.897  11.102  69.095  1.00  0.00    -0.350 A  
HETATM    6  C   UNL     1     -12.802  10.918  70.132  1.00  0.00    -0.144 A  
HETATM    7  C   UNL     1      -8.535   8.760  71.721  1.00  0.00    -0.178 C  
HETATM    8  C   UNL     1      -8.885   9.143  70.294  1.00  0.00    -0.238 C  
HETATM    9  F   UNL     1     -12.246  11.848  68.037  1.00  0.00    -0.354 F  
HETATM   10  C   UNL     1     -12.433  10.143  71.235  1.00  0.00    -0.510 A  
HETATM   11  O   UNL     1     -10.886   8.836  72.415  1.00  0.00    -0.320 OA 
HETATM   12  C   UNL     1     -10.252   9.759  70.246  1.00  0.00    -0.346 A  
HETATM   13  C   UNL     1     -11.168   9.557  71.286  1.00  0.00    -0.382 A  
HETATM   14  C   UNL     1     -10.630  10.530  69.138  1.00  0.00    -0.258 A  
ENDBRANCH   2   4
BRANCH   2  15
HETATM   15  C   UNL     1      -8.462   6.230  73.710  1.00  0.00    -0.122 C  
BRANCH  15  16
HETATM   16  N   UNL     1      -9.198   4.973  73.485  1.00  0.00    -0.126 NA 
HETATM   17  H   UNL     1      -9.863   5.046  72.715  1.00  0.00     0.000 HD 
BRANCH  16  18
HETATM   18  C   UNL     1      -8.234   3.875  73.290  1.00  0.00    -0.088 C  
BRANCH  18  19
HETATM   19  C   UNL     1      -8.730   2.874  72.226  1.00  0.00    -0.074 C  
HETATM   20  H   UNL     1     -10.328   1.761  71.967  1.00  0.00     0.000 HD 
HETATM   21  O   UNL     1     -10.022   2.377  72.622  1.00  0.00    -0.119 OA 
BRANCH  19  22
HETATM   22  C   UNL     1      -8.837   3.505  70.818  1.00  0.00    -0.081 C  
HETATM   23  C   UNL     1      -7.673   4.675  68.966  1.00  0.00    -0.071 C  
HETATM   24  C   UNL     1      -7.531   4.176  70.393  1.00  0.00    -0.045 C  
HETATM   25  C   UNL     1      -8.960   5.431  68.816  1.00  0.00    -0.127 A  
HETATM   26  C   UNL     1     -10.006   5.267  69.734  1.00  0.00    -0.236 A  
HETATM   27  O   UNL     1      -9.930   4.449  70.832  1.00  0.00    -0.197 OA 
HETATM   28  C   UNL     1     -11.193   5.990  69.589  1.00  0.00    -0.428 A  
HETATM   29  C   UNL     1     -11.352   6.864  68.514  1.00  0.00     0.035 A  
HETATM   30  C   UNL     1     -10.320   7.012  67.596  1.00  0.00    -0.211 A  
HETATM   31  F   UNL     1     -10.469   7.853  66.563  1.00  0.00    -0.361 F  
HETATM   32  C   UNL     1      -9.131   6.305  67.734  1.00  0.00    -0.114 A  
ENDBRANCH  19  22
ENDBRANCH  18  19
ENDBRANCH  16  18
ENDBRANCH  15  16
ENDBRANCH   2  15
TORSDOF 6
ENDMDL
MODEL      159
REMARK 921   NORMALIZED FREE ENERGY PREDICTED BY IDOCK:   -5.67 KCAL/MOL
REMARK 922        TOTAL FREE ENERGY PREDICTED BY IDOCK:   -8.85 KCAL/MOL
REMARK 923 INTER-LIGAND FREE ENERGY PREDICTED BY IDOCK:   -7.71 KCAL/MOL
REMARK 924 INTRA-LIGAND FREE ENERGY PREDICTED BY IDOCK:   -1.13 KCAL/MOL
REMARK 927      BINDING AFFINITY PREDICTED BY RF-SCORE:    0.00 PKD
ROOT
HETATM    1  O   UNL     1     -12.527  12.458  65.480  1.00  0.00    -0.643 OA 
HETATM    2  C   UNL     1     -11.394  13.107  66.075  1.00  0.00    -0.308 C  
HETATM    3  H   UNL     1     -12.249  11.972  64.713  1.00  0.00     0.000 HD 
ENDROOT
BRANCH   2   4
HETATM    4  C   UNL     1     -10.303  12.059  66.399  1.00  0.00    -0.216 C  
HETATM    5  C   UNL     1      -6.895   8.607  65.244  1.00  0.00    -0.071 A  
HETATM    6  C   UNL     1      -7.917   8.476  64.313  1.00  0.00    -0.149 A  
HETATM    7  C   UNL     1      -8.986  12.701  66.844  1.00  0.00    -0.213 C  
HETATM    8  C   UNL     1      -8.024  11.604  67.267  1.00  0.00    -0.157 C  
HETATM    9  F   UNL     1      -5.861   7.754  65.216  1.00  0.00    -0.036 F  
HETATM   10  C   UNL     1      -8.990   9.370  64.343  1.00  0.00    -0.215 A  
HETATM   11  O   UNL     1     -10.112  11.221  65.244  1.00  0.00    -0.240 OA 
HETATM   12  C   UNL     1      -7.994  10.518  66.234  1.00  0.00    -0.144 A  
HETATM   13  C   UNL     1      -9.034  10.379  65.306  1.00  0.00    -0.187 A  
HETATM   14  C   UNL     1      -6.923   9.613  66.204  1.00  0.00    -0.093 A  
ENDBRANCH   2   4
BRANCH   2  15
HETATM   15  C   UNL     1     -11.845  13.896  67.321  1.00  0.00    -0.407 C  
BRANCH  15  16
HETATM   16  N   UNL     1     -11.724  13.101  68.556  1.00  0.00    -0.331 NA 
HETATM   17  H   UNL     1     -10.754  12.877  68.779  1.00  0.00     0.000 HD 
BRANCH  16  18
HETATM   18  C   UNL     1     -12.402  13.808  69.657  1.00  0.00    -0.232 C  
BRANCH  18  19
HETATM   19  C   UNL     1     -12.356  12.991  70.963  1.00  0.00    -0.244 C  
HETATM   20  H   UNL     1     -13.347  12.976  72.659  1.00  0.00     0.000 HD 
HETATM   21  O   UNL     1     -13.376  13.480  71.854  1.00  0.00    -0.391 OA 
BRANCH  19  22
HETATM   22  C   UNL     1     -12.569  11.477  70.727  1.00  0.00    -0.298 C  
HETATM   23  C   UNL     1     -13.464   9.338  71.606  1.00  0.00    -0.465 C  
HETATM   24  C   UNL     1     -13.184  10.790  71.947  1.00  0.00    -0.524 C  
HETATM   25  C   UNL     1     -12.259   8.723  70.958  1.00  0.00    -0.226 A  
HETATM   26  C   UNL     1     -11.264   9.522  70.379  1.00  0.00    -0.270 A  
HETATM   27  O   UNL     1     -11.294  10.893  70.385  1.00  0.00    -0.294 OA 
HETATM   28  C   UNL     1     -10.140   8.936  69.791  1.00  0.00    -0.205 A  
HETATM   29  C   UNL     1     -10.013   7.547  69.758  1.00  0.00    -0.186 A  
HETATM   30  C   UNL     1     -11.009   6.757  70.318  1.00  0.00    -0.291 A  
HETATM   31  F   UNL     1     -10.889   5.423  70.290  1.00  0.00    -0.354 F  
HETATM   32  C   UNL     1     -12.128   7.329  70.913  1.00  0.00    -0.326 A  
ENDBRANCH  19  22
ENDBRANCH  18  19
ENDBRANCH  16  18
ENDBRANCH  15  16
ENDBRANCH   2  15
TORSDOF 6
ENDMDL
MODEL      160
REMARK 921   NORMALIZED FREE ENERGY PREDICTED BY IDOCK:   -5.65 KCAL/MOL
REMARK 922        TOTAL FREE ENERGY PREDICTED BY IDOCK:   -8.82 KCAL/MOL
REMARK 923 INTER-LIGAND FREE ENERGY PREDICTED BY IDOCK:   -7.23 KCAL/MOL
REMARK 924 INTRA-LIGAND FREE ENERGY PREDICTED BY IDOCK:   -1.59 KCAL/MOL
REMARK 927      BINDING AFFINITY PREDICTED BY RF-SCORE:    0.00 PKD
ROOT
HETATM    1  O   UNL     1      -9.038   5.717  72.614  1.00  0.00    -0.132 OA 
HETATM    2  C   UNL     1      -9.935   6.447  71.765  1.00  0.00    -0.177 C  
HETATM    3  H   UNL     1      -8.609   5.035  72.112  1.00  0.00     0.000 HD 
ENDROOT
BRANCH   2   4
HETATM    4  C   UNL     1      -9.162   7.004  70.546  1.00  0.00    -0.159 C  
HETATM    5  C   UNL     1      -8.747   9.390  66.187  1.00  0.00    -0.147 A  
HETATM    6  C   UNL     1      -9.971   8.735  66.161  1.00  0.00    -0.244 A  
HETATM    7  C   UNL     1      -8.320   8.235  70.896  1.00  0.00    -0.139 C  
HETATM    8  C   UNL     1      -7.498   8.629  69.682  1.00  0.00    -0.068 C  
HETATM    9  F   UNL     1      -8.336  10.068  65.106  1.00  0.00    -0.129 F  
HETATM   10  C   UNL     1     -10.397   8.033  67.291  1.00  0.00    -0.371 A  
HETATM   11  O   UNL     1     -10.103   7.296  69.497  1.00  0.00    -0.174 OA 
HETATM   12  C   UNL     1      -8.367   8.661  68.459  1.00  0.00    -0.123 A  
HETATM   13  C   UNL     1      -9.594   7.987  68.431  1.00  0.00    -0.150 A  
HETATM   14  C   UNL     1      -7.940   9.358  67.320  1.00  0.00    -0.106 A  
ENDBRANCH   2   4
BRANCH   2  15
HETATM   15  C   UNL     1     -10.633   7.555  72.580  1.00  0.00    -0.270 C  
BRANCH  15  16
HETATM   16  N   UNL     1     -11.834   8.072  71.900  1.00  0.00    -0.290 NA 
HETATM   17  H   UNL     1     -12.680   7.938  72.455  1.00  0.00     0.000 HD 
BRANCH  16  18
HETATM   18  C   UNL     1     -11.618   9.485  71.541  1.00  0.00    -0.395 C  
BRANCH  18  19
HETATM   19  C   UNL     1     -12.934  10.162  71.109  1.00  0.00    -0.395 C  
HETATM   20  H   UNL     1     -14.322  11.243  71.982  1.00  0.00     0.000 HD 
HETATM   21  O   UNL     1     -13.511  10.826  72.249  1.00  0.00    -0.330 OA 
BRANCH  19  22
HETATM   22  C   UNL     1     -12.729  11.190  69.971  1.00  0.00    -0.059 C  
HETATM   23  C   UNL     1     -11.470  11.811  67.927  1.00  0.00    -0.387 C  
HETATM   24  C   UNL     1     -11.543  10.825  69.079  1.00  0.00    -0.370 C  
HETATM   25  C   UNL     1     -11.580  13.213  68.448  1.00  0.00    -0.372 A  
HETATM   26  C   UNL     1     -12.121  13.473  69.714  1.00  0.00    -0.318 A  
HETATM   27  O   UNL     1     -12.552  12.492  70.570  1.00  0.00    -0.214 OA 
HETATM   28  C   UNL     1     -12.206  14.784  70.192  1.00  0.00    -0.391 A  
HETATM   29  C   UNL     1     -11.770  15.845  69.399  1.00  0.00    -0.350 A  
HETATM   30  C   UNL     1     -11.250  15.587  68.137  1.00  0.00    -0.343 A  
HETATM   31  F   UNL     1     -10.829  16.604  67.373  1.00  0.00    -0.319 F  
HETATM   32  C   UNL     1     -11.154  14.286  67.654  1.00  0.00    -0.305 A  
ENDBRANCH  19  22
ENDBRANCH  18  19
ENDBRANCH  16  18
ENDBRANCH  15  16
ENDBRANCH   2  15
TORSDOF 6
ENDMDL
MODEL      161
REMARK 921   NORMALIZED FREE ENERGY PREDICTED BY IDOCK:   -5.65 KCAL/MOL
REMARK 922        TOTAL FREE ENERGY PREDICTED BY IDOCK:   -8.82 KCAL/MOL
REMARK 923 INTER-LIGAND FREE ENERGY PREDICTED BY IDOCK:   -7.76 KCAL/MOL
REMARK 924 INTRA-LIGAND FREE ENERGY PREDICTED BY IDOCK:   -1.06 KCAL/MOL
REMARK 927      BINDING AFFINITY PREDICTED BY RF-SCORE:    0.00 PKD
ROOT
HETATM    1  O   UNL     1      -6.513  13.302  66.956  1.00  0.00    -0.460 OA 
HETATM    2  C   UNL     1      -7.760  13.443  67.650  1.00  0.00    -0.177 C  
HETATM    3  H   UNL     1      -6.473  13.926  66.242  1.00  0.00     0.000 HD 
ENDROOT
BRANCH   2   4
HETATM    4  C   UNL     1      -7.928  14.904  68.129  1.00  0.00    -0.130 C  
HETATM    5  C   UNL     1      -6.281  19.379  69.589  1.00  0.00    -0.291 A  
HETATM    6  C   UNL     1      -5.372  18.448  70.076  1.00  0.00    -0.231 A  
HETATM    7  C   UNL     1      -8.405  15.838  67.013  1.00  0.00    -0.259 C  
HETATM    8  C   UNL     1      -8.670  17.212  67.602  1.00  0.00    -0.213 C  
HETATM    9  F   UNL     1      -6.124  20.676  69.889  1.00  0.00    -0.383 F  
HETATM   10  C   UNL     1      -5.538  17.098  69.758  1.00  0.00    -0.213 A  
HETATM   11  O   UNL     1      -6.679  15.353  68.687  1.00  0.00    -0.099 OA 
HETATM   12  C   UNL     1      -7.517  17.635  68.464  1.00  0.00    -0.269 A  
HETATM   13  C   UNL     1      -6.611  16.691  68.965  1.00  0.00    -0.198 A  
HETATM   14  C   UNL     1      -7.351  18.987  68.792  1.00  0.00    -0.366 A  
ENDBRANCH   2   4
BRANCH   2  15
HETATM   15  C   UNL     1      -7.825  12.428  68.810  1.00  0.00     0.020 C  
BRANCH  15  16
HETATM   16  N   UNL     1      -7.479  11.064  68.374  1.00  0.00    -0.094 NA 
HETATM   17  H   UNL     1      -6.563  10.770  68.715  1.00  0.00     0.000 HD 
BRANCH  16  18
HETATM   18  C   UNL     1      -8.551  10.138  68.779  1.00  0.00    -0.133 C  
BRANCH  18  19
HETATM   19  C   UNL     1      -8.770   9.035  67.725  1.00  0.00    -0.125 C  
HETATM   20  H   UNL     1      -9.619   7.264  67.685  1.00  0.00     0.000 HD 
HETATM   21  O   UNL     1      -9.485   7.944  68.334  1.00  0.00    -0.147 OA 
BRANCH  19  22
HETATM   22  C   UNL     1      -9.560   9.536  66.493  1.00  0.00    -0.201 C  
HETATM   23  C   UNL     1      -9.509  10.124  64.084  1.00  0.00    -0.353 C  
HETATM   24  C   UNL     1      -8.654   9.740  65.278  1.00  0.00    -0.168 C  
HETATM   25  C   UNL     1     -10.462  11.217  64.469  1.00  0.00    -0.415 A  
HETATM   26  C   UNL     1     -10.776  11.461  65.813  1.00  0.00    -0.251 A  
HETATM   27  O   UNL     1     -10.229  10.763  66.858  1.00  0.00    -0.210 OA 
HETATM   28  C   UNL     1     -11.655  12.491  66.158  1.00  0.00    -0.448 A  
HETATM   29  C   UNL     1     -12.243  13.270  65.161  1.00  0.00    -0.487 A  
HETATM   30  C   UNL     1     -11.944  13.015  63.829  1.00  0.00    -0.518 A  
HETATM   31  F   UNL     1     -12.505  13.762  62.869  1.00  0.00    -0.426 F  
HETATM   32  C   UNL     1     -11.064  11.998  63.474  1.00  0.00    -0.519 A  
ENDBRANCH  19  22
ENDBRANCH  18  19
ENDBRANCH  16  18
ENDBRANCH  15  16
ENDBRANCH   2  15
TORSDOF 6
ENDMDL
MODEL      162
REMARK 921   NORMALIZED FREE ENERGY PREDICTED BY IDOCK:   -5.64 KCAL/MOL
REMARK 922        TOTAL FREE ENERGY PREDICTED BY IDOCK:   -8.80 KCAL/MOL
REMARK 923 INTER-LIGAND FREE ENERGY PREDICTED BY IDOCK:   -7.84 KCAL/MOL
REMARK 924 INTRA-LIGAND FREE ENERGY PREDICTED BY IDOCK:   -0.96 KCAL/MOL
REMARK 927      BINDING AFFINITY PREDICTED BY RF-SCORE:    0.00 PKD
ROOT
HETATM    1  O   UNL     1     -13.604  11.695  72.566  1.00  0.00    -0.498 OA 
HETATM    2  C   UNL     1     -12.884  10.932  71.588  1.00  0.00    -0.449 C  
HETATM    3  H   UNL     1     -13.159  12.520  72.718  1.00  0.00     0.000 HD 
ENDROOT
BRANCH   2   4
HETATM    4  C   UNL     1     -12.719  11.764  70.295  1.00  0.00     0.069 C  
HETATM    5  C   UNL     1     -11.071  15.629  67.610  1.00  0.00    -0.305 A  
HETATM    6  C   UNL     1     -11.341  16.120  68.881  1.00  0.00    -0.350 A  
HETATM    7  C   UNL     1     -11.753  11.115  69.298  1.00  0.00    -0.401 C  
HETATM    8  C   UNL     1     -11.757  11.925  68.014  1.00  0.00    -0.382 C  
HETATM    9  F   UNL     1     -10.670  16.471  66.647  1.00  0.00    -0.312 F  
HETATM   10  C   UNL     1     -11.755  15.239  69.883  1.00  0.00    -0.349 A  
HETATM   11  O   UNL     1     -12.288  13.090  70.652  1.00  0.00    -0.356 OA 
HETATM   12  C   UNL     1     -11.613  13.386  68.325  1.00  0.00    -0.379 A  
HETATM   13  C   UNL     1     -11.901  13.880  69.603  1.00  0.00    -0.327 A  
HETATM   14  C   UNL     1     -11.206  14.275  67.321  1.00  0.00    -0.330 A  
ENDBRANCH   2   4
BRANCH   2  15
HETATM   15  C   UNL     1     -13.607   9.591  71.342  1.00  0.00    -0.283 C  
BRANCH  15  16
HETATM   16  N   UNL     1     -12.689   8.442  71.425  1.00  0.00    -0.402 NA 
HETATM   17  H   UNL     1     -12.259   8.224  70.526  1.00  0.00     0.000 HD 
BRANCH  16  18
HETATM   18  C   UNL     1     -11.688   8.695  72.477  1.00  0.00    -0.260 C  
BRANCH  18  19
HETATM   19  C   UNL     1     -10.350   7.997  72.160  1.00  0.00    -0.254 C  
HETATM   20  H   UNL     1      -8.916   7.148  73.199  1.00  0.00     0.000 HD 
HETATM   21  O   UNL     1      -9.740   7.578  73.395  1.00  0.00    -0.240 OA 
BRANCH  19  22
HETATM   22  C   UNL     1     -10.523   6.769  71.235  1.00  0.00    -0.213 C  
HETATM   23  C   UNL     1      -9.941   4.400  70.788  1.00  0.00    -0.247 C  
HETATM   24  C   UNL     1      -9.640   5.599  71.669  1.00  0.00    -0.184 C  
HETATM   25  C   UNL     1      -9.941   4.813  69.346  1.00  0.00    -0.269 A  
HETATM   26  C   UNL     1     -10.095   6.157  68.979  1.00  0.00    -0.173 A  
HETATM   27  O   UNL     1     -10.222   7.179  69.884  1.00  0.00    -0.198 OA 
HETATM   28  C   UNL     1     -10.079   6.528  67.632  1.00  0.00    -0.180 A  
HETATM   29  C   UNL     1      -9.931   5.558  66.642  1.00  0.00    -0.213 A  
HETATM   30  C   UNL     1      -9.797   4.224  67.007  1.00  0.00    -0.179 A  
HETATM   31  F   UNL     1      -9.653   3.289  66.058  1.00  0.00    -0.168 F  
HETATM   32  C   UNL     1      -9.803   3.843  68.344  1.00  0.00    -0.012 A  
ENDBRANCH  19  22
ENDBRANCH  18  19
ENDBRANCH  16  18
ENDBRANCH  15  16
ENDBRANCH   2  15
TORSDOF 6
ENDMDL
MODEL      163
REMARK 921   NORMALIZED FREE ENERGY PREDICTED BY IDOCK:   -5.63 KCAL/MOL
REMARK 922        TOTAL FREE ENERGY PREDICTED BY IDOCK:   -8.79 KCAL/MOL
REMARK 923 INTER-LIGAND FREE ENERGY PREDICTED BY IDOCK:   -6.81 KCAL/MOL
REMARK 924 INTRA-LIGAND FREE ENERGY PREDICTED BY IDOCK:   -1.98 KCAL/MOL
REMARK 927      BINDING AFFINITY PREDICTED BY RF-SCORE:    0.00 PKD
ROOT
HETATM    1  O   UNL     1      -8.489  14.884  66.536  1.00  0.00    -0.422 OA 
HETATM    2  C   UNL     1      -7.910  14.205  67.659  1.00  0.00    -0.179 C  
HETATM    3  H   UNL     1      -8.260  14.428  65.735  1.00  0.00     0.000 HD 
ENDROOT
BRANCH   2   4
HETATM    4  C   UNL     1      -8.364  12.726  67.665  1.00  0.00    -0.175 C  
HETATM    5  C   UNL     1      -8.653   8.100  65.828  1.00  0.00    -0.154 A  
HETATM    6  C   UNL     1      -8.640   8.956  64.734  1.00  0.00    -0.184 A  
HETATM    7  C   UNL     1      -7.614  11.886  68.704  1.00  0.00    -0.119 C  
HETATM    8  C   UNL     1      -8.214  10.491  68.732  1.00  0.00    -0.134 C  
HETATM    9  F   UNL     1      -8.792   6.781  65.633  1.00  0.00    -0.159 F  
HETATM   10  C   UNL     1      -8.491  10.330  64.942  1.00  0.00    -0.182 A  
HETATM   11  O   UNL     1      -8.199  12.188  66.341  1.00  0.00    -0.014 OA 
HETATM   12  C   UNL     1      -8.361   9.964  67.336  1.00  0.00    -0.118 A  
HETATM   13  C   UNL     1      -8.363  10.832  66.236  1.00  0.00    -0.160 A  
HETATM   14  C   UNL     1      -8.519   8.588  67.123  1.00  0.00    -0.118 A  
ENDBRANCH   2   4
BRANCH   2  15
HETATM   15  C   UNL     1      -8.284  14.944  68.960  1.00  0.00    -0.168 C  
BRANCH  15  16
HETATM   16  N   UNL     1      -9.664  15.460  68.928  1.00  0.00    -0.208 NA 
HETATM   17  H   UNL     1     -10.197  15.094  68.140  1.00  0.00     0.000 HD 
BRANCH  16  18
HETATM   18  C   UNL     1     -10.315  15.182  70.221  1.00  0.00    -0.066 C  
BRANCH  18  19
HETATM   19  C   UNL     1     -11.827  14.933  70.047  1.00  0.00    -0.307 C  
HETATM   20  H   UNL     1     -13.406  16.031  69.648  1.00  0.00     0.000 HD 
HETATM   21  O   UNL     1     -12.474  16.185  69.755  1.00  0.00    -0.111 OA 
BRANCH  19  22
HETATM   22  C   UNL     1     -12.138  13.924  68.916  1.00  0.00    -0.319 C  
HETATM   23  C   UNL     1     -11.725  11.672  67.963  1.00  0.00    -0.351 C  
HETATM   24  C   UNL     1     -11.291  12.656  69.034  1.00  0.00    -0.345 C  
HETATM   25  C   UNL     1     -11.810  12.366  66.636  1.00  0.00    -0.394 A  
HETATM   26  C   UNL     1     -11.915  13.761  66.556  1.00  0.00    -0.434 A  
HETATM   27  O   UNL     1     -11.916  14.585  67.652  1.00  0.00    -0.374 OA 
HETATM   28  C   UNL     1     -11.980  14.395  65.312  1.00  0.00    -0.382 A  
HETATM   29  C   UNL     1     -11.962  13.638  64.141  1.00  0.00    -0.488 A  
HETATM   30  C   UNL     1     -11.875  12.254  64.223  1.00  0.00    -0.403 A  
HETATM   31  F   UNL     1     -11.856  11.524  63.100  1.00  0.00    -0.468 F  
HETATM   32  C   UNL     1     -11.803  11.613  65.454  1.00  0.00     0.126 A  
ENDBRANCH  19  22
ENDBRANCH  18  19
ENDBRANCH  16  18
ENDBRANCH  15  16
ENDBRANCH   2  15
TORSDOF 6
ENDMDL
MODEL      164
REMARK 921   NORMALIZED FREE ENERGY PREDICTED BY IDOCK:   -5.62 KCAL/MOL
REMARK 922        TOTAL FREE ENERGY PREDICTED BY IDOCK:   -8.78 KCAL/MOL
REMARK 923 INTER-LIGAND FREE ENERGY PREDICTED BY IDOCK:   -6.06 KCAL/MOL
REMARK 924 INTRA-LIGAND FREE ENERGY PREDICTED BY IDOCK:   -2.72 KCAL/MOL
REMARK 927      BINDING AFFINITY PREDICTED BY RF-SCORE:    0.00 PKD
ROOT
HETATM    1  O   UNL     1      -5.216  12.922  68.638  1.00  0.00    -0.056 OA 
HETATM    2  C   UNL     1      -6.356  13.169  67.802  1.00  0.00    -0.156 C  
HETATM    3  H   UNL     1      -4.637  13.674  68.616  1.00  0.00     0.000 HD 
ENDROOT
BRANCH   2   4
HETATM    4  C   UNL     1      -7.058  14.473  68.248  1.00  0.00    -0.113 C  
HETATM    5  C   UNL     1     -10.200  18.306  67.704  1.00  0.00    -0.382 A  
HETATM    6  C   UNL     1      -9.698  18.028  66.439  1.00  0.00    -0.324 A  
HETATM    7  C   UNL     1      -8.099  14.235  69.346  1.00  0.00     0.260 C  
HETATM    8  C   UNL     1      -8.636  15.577  69.813  1.00  0.00     0.013 C  
HETATM    9  F   UNL     1     -11.031  19.345  67.872  1.00  0.00    -0.482 F  
HETATM   10  C   UNL     1      -8.835  16.943  66.268  1.00  0.00    -0.314 A  
HETATM   11  O   UNL     1      -7.649  15.096  67.094  1.00  0.00    -0.205 OA 
HETATM   12  C   UNL     1      -9.001  16.425  68.632  1.00  0.00    -0.233 A  
HETATM   13  C   UNL     1      -8.480  16.152  67.361  1.00  0.00    -0.170 A  
HETATM   14  C   UNL     1      -9.860  17.521  68.800  1.00  0.00    -0.326 A  
ENDBRANCH   2   4
BRANCH   2  15
HETATM   15  C   UNL     1      -7.298  11.948  67.838  1.00  0.00    -0.104 C  
BRANCH  15  16
HETATM   16  N   UNL     1      -7.948  11.709  66.537  1.00  0.00    -0.332 NA 
HETATM   17  H   UNL     1      -7.273  11.526  65.795  1.00  0.00     0.000 HD 
BRANCH  16  18
HETATM   18  C   UNL     1      -8.932  10.621  66.679  1.00  0.00    -0.150 C  
BRANCH  18  19
HETATM   19  C   UNL     1     -10.199  10.897  65.845  1.00  0.00    -0.257 C  
HETATM   20  H   UNL     1     -11.727   9.844  65.202  1.00  0.00     0.000 HD 
HETATM   21  O   UNL     1     -10.947   9.674  65.716  1.00  0.00     0.613 OA 
BRANCH  19  22
HETATM   22  C   UNL     1     -11.104  11.982  66.477  1.00  0.00    -0.314 C  
HETATM   23  C   UNL     1     -11.732  14.380  66.562  1.00  0.00    -0.404 C  
HETATM   24  C   UNL     1     -10.739  13.384  65.989  1.00  0.00    -0.283 C  
HETATM   25  C   UNL     1     -11.898  14.145  68.034  1.00  0.00    -0.400 A  
HETATM   26  C   UNL     1     -11.537  12.922  68.616  1.00  0.00    -0.316 A  
HETATM   27  O   UNL     1     -10.988  11.881  67.913  1.00  0.00    -0.200 OA 
HETATM   28  C   UNL     1     -11.686  12.723  69.991  1.00  0.00    -0.282 A  
HETATM   29  C   UNL     1     -12.216  13.735  70.791  1.00  0.00    -0.437 A  
HETATM   30  C   UNL     1     -12.589  14.940  70.209  1.00  0.00    -0.313 A  
HETATM   31  F   UNL     1     -13.097  15.915  70.974  1.00  0.00    -0.518 F  
HETATM   32  C   UNL     1     -12.439  15.153  68.843  1.00  0.00     0.123 A  
ENDBRANCH  19  22
ENDBRANCH  18  19
ENDBRANCH  16  18
ENDBRANCH  15  16
ENDBRANCH   2  15
TORSDOF 6
ENDMDL
MODEL      165
REMARK 921   NORMALIZED FREE ENERGY PREDICTED BY IDOCK:   -5.62 KCAL/MOL
REMARK 922        TOTAL FREE ENERGY PREDICTED BY IDOCK:   -8.78 KCAL/MOL
REMARK 923 INTER-LIGAND FREE ENERGY PREDICTED BY IDOCK:   -6.79 KCAL/MOL
REMARK 924 INTRA-LIGAND FREE ENERGY PREDICTED BY IDOCK:   -1.98 KCAL/MOL
REMARK 927      BINDING AFFINITY PREDICTED BY RF-SCORE:    0.00 PKD
ROOT
HETATM    1  O   UNL     1     -12.081   6.927  72.662  1.00  0.00    -0.495 OA 
HETATM    2  C   UNL     1     -10.841   7.636  72.521  1.00  0.00    -0.314 C  
HETATM    3  H   UNL     1     -12.715   7.479  73.103  1.00  0.00     0.000 HD 
ENDROOT
BRANCH   2   4
HETATM    4  C   UNL     1     -11.085   8.970  71.778  1.00  0.00    -0.374 C  
HETATM    5  C   UNL     1     -10.393  12.265  68.100  1.00  0.00    -0.216 A  
HETATM    6  C   UNL     1      -9.168  11.646  68.307  1.00  0.00    -0.187 A  
HETATM    7  C   UNL     1     -12.449   9.016  71.084  1.00  0.00    -0.285 C  
HETATM    8  C   UNL     1     -12.656  10.402  70.500  1.00  0.00    -0.384 C  
HETATM    9  F   UNL     1     -10.490  13.254  67.201  1.00  0.00    -0.242 F  
HETATM   10  C   UNL     1      -9.072  10.612  69.242  1.00  0.00    -0.117 A  
HETATM   11  O   UNL     1     -10.014   9.177  70.839  1.00  0.00    -0.240 OA 
HETATM   12  C   UNL     1     -11.436  10.829  69.739  1.00  0.00    -0.386 A  
HETATM   13  C   UNL     1     -10.198  10.213  69.963  1.00  0.00    -0.220 A  
HETATM   14  C   UNL     1     -11.525  11.871  68.806  1.00  0.00    -0.347 A  
ENDBRANCH   2   4
BRANCH   2  15
HETATM   15  C   UNL     1      -9.811   6.739  71.805  1.00  0.00    -0.163 C  
BRANCH  15  16
HETATM   16  N   UNL     1     -10.414   5.490  71.304  1.00  0.00    -0.235 NA 
HETATM   17  H   UNL     1     -11.300   5.278  71.762  1.00  0.00     0.000 HD 
BRANCH  16  18
HETATM   18  C   UNL     1     -10.545   5.570  69.838  1.00  0.00    -0.317 C  
BRANCH  18  19
HETATM   19  C   UNL     1      -9.184   5.838  69.166  1.00  0.00    -0.120 C  
HETATM   20  H   UNL     1      -7.989   4.860  67.952  1.00  0.00     0.000 HD 
HETATM   21  O   UNL     1      -8.827   4.695  68.366  1.00  0.00    -0.100 OA 
BRANCH  19  22
HETATM   22  C   UNL     1      -9.199   7.100  68.272  1.00  0.00    -0.132 C  
HETATM   23  C   UNL     1     -10.533   8.621  66.838  1.00  0.00    -0.329 C  
HETATM   24  C   UNL     1     -10.559   7.312  67.607  1.00  0.00    -0.316 C  
HETATM   25  C   UNL     1      -9.295   8.693  65.995  1.00  0.00    -0.284 A  
HETATM   26  C   UNL     1      -8.184   7.885  66.272  1.00  0.00    -0.117 A  
HETATM   27  O   UNL     1      -8.151   6.965  67.288  1.00  0.00    -0.115 OA 
HETATM   28  C   UNL     1      -7.042   7.953  65.469  1.00  0.00    -0.060 A  
HETATM   29  C   UNL     1      -6.994   8.845  64.398  1.00  0.00    -0.088 A  
HETATM   30  C   UNL     1      -8.090   9.657  64.136  1.00  0.00    -0.151 A  
HETATM   31  F   UNL     1      -8.048  10.513  63.106  1.00  0.00    -0.154 F  
HETATM   32  C   UNL     1      -9.235   9.593  64.922  1.00  0.00    -0.306 A  
ENDBRANCH  19  22
ENDBRANCH  18  19
ENDBRANCH  16  18
ENDBRANCH  15  16
ENDBRANCH   2  15
TORSDOF 6
ENDMDL
MODEL      166
REMARK 921   NORMALIZED FREE ENERGY PREDICTED BY IDOCK:   -5.59 KCAL/MOL
REMARK 922        TOTAL FREE ENERGY PREDICTED BY IDOCK:   -8.73 KCAL/MOL
REMARK 923 INTER-LIGAND FREE ENERGY PREDICTED BY IDOCK:   -7.54 KCAL/MOL
REMARK 924 INTRA-LIGAND FREE ENERGY PREDICTED BY IDOCK:   -1.19 KCAL/MOL
REMARK 927      BINDING AFFINITY PREDICTED BY RF-SCORE:    0.00 PKD
ROOT
HETATM    1  O   UNL     1     -11.255   6.100  66.261  1.00  0.00    -0.657 OA 
HETATM    2  C   UNL     1      -9.919   6.356  66.717  1.00  0.00    -0.171 C  
HETATM    3  H   UNL     1     -11.577   5.298  66.652  1.00  0.00     0.000 HD 
ENDROOT
BRANCH   2   4
HETATM    4  C   UNL     1      -9.894   6.397  68.263  1.00  0.00    -0.128 C  
HETATM    5  C   UNL     1      -8.655   8.317  72.695  1.00  0.00    -0.198 A  
HETATM    6  C   UNL     1      -7.588   8.574  71.844  1.00  0.00    -0.139 A  
HETATM    7  C   UNL     1     -11.244   6.803  68.862  1.00  0.00    -0.196 C  
HETATM    8  C   UNL     1     -11.166   6.686  70.374  1.00  0.00    -0.398 C  
HETATM    9  F   UNL     1      -8.571   8.669  73.986  1.00  0.00    -0.252 F  
HETATM   10  C   UNL     1      -7.682   8.210  70.498  1.00  0.00    -0.085 A  
HETATM   11  O   UNL     1      -8.846   7.289  68.684  1.00  0.00    -0.130 OA 
HETATM   12  C   UNL     1      -9.916   7.345  70.877  1.00  0.00    -0.184 A  
HETATM   13  C   UNL     1      -8.835   7.589  70.020  1.00  0.00    -0.144 A  
HETATM   14  C   UNL     1      -9.814   7.705  72.228  1.00  0.00    -0.229 A  
ENDBRANCH   2   4
BRANCH   2  15
HETATM   15  C   UNL     1      -9.395   7.660  66.081  1.00  0.00    -0.080 C  
BRANCH  15  16
HETATM   16  N   UNL     1     -10.221   8.825  66.444  1.00  0.00    -0.346 NA 
HETATM   17  H   UNL     1     -10.702   8.697  67.334  1.00  0.00     0.000 HD 
BRANCH  16  18
HETATM   18  C   UNL     1      -9.382  10.037  66.430  1.00  0.00    -0.168 C  
BRANCH  18  19
HETATM   19  C   UNL     1     -10.235  11.313  66.583  1.00  0.00    -0.229 C  
HETATM   20  H   UNL     1     -11.967  11.946  65.907  1.00  0.00     0.000 HD 
HETATM   21  O   UNL     1     -11.442  11.160  65.813  1.00  0.00    -0.011 OA 
BRANCH  19  22
HETATM   22  C   UNL     1     -10.604  11.609  68.055  1.00  0.00    -0.202 C  
HETATM   23  C   UNL     1     -11.777  10.847  70.103  1.00  0.00    -0.433 C  
HETATM   24  C   UNL     1     -11.547  10.553  68.632  1.00  0.00    -0.241 C  
HETATM   25  C   UNL     1     -12.115  12.297  70.287  1.00  0.00    -0.376 A  
HETATM   26  C   UNL     1     -11.797  13.243  69.303  1.00  0.00    -0.331 A  
HETATM   27  O   UNL     1     -11.197  12.925  68.112  1.00  0.00    -0.239 OA 
HETATM   28  C   UNL     1     -12.129  14.588  69.483  1.00  0.00    -0.348 A  
HETATM   29  C   UNL     1     -12.763  15.001  70.655  1.00  0.00    -0.428 A  
HETATM   30  C   UNL     1     -13.062  14.064  71.636  1.00  0.00    -0.359 A  
HETATM   31  F   UNL     1     -13.672  14.456  72.762  1.00  0.00    -0.511 F  
HETATM   32  C   UNL     1     -12.742  12.721  71.466  1.00  0.00    -0.330 A  
ENDBRANCH  19  22
ENDBRANCH  18  19
ENDBRANCH  16  18
ENDBRANCH  15  16
ENDBRANCH   2  15
TORSDOF 6
ENDMDL
MODEL      167
REMARK 921   NORMALIZED FREE ENERGY PREDICTED BY IDOCK:   -5.58 KCAL/MOL
REMARK 922        TOTAL FREE ENERGY PREDICTED BY IDOCK:   -8.72 KCAL/MOL
REMARK 923 INTER-LIGAND FREE ENERGY PREDICTED BY IDOCK:   -7.13 KCAL/MOL
REMARK 924 INTRA-LIGAND FREE ENERGY PREDICTED BY IDOCK:   -1.59 KCAL/MOL
REMARK 927      BINDING AFFINITY PREDICTED BY RF-SCORE:    0.00 PKD
ROOT
HETATM    1  O   UNL     1     -10.094  13.241  67.086  1.00  0.00    -0.235 OA 
HETATM    2  C   UNL     1      -8.666  13.285  66.955  1.00  0.00    -0.142 C  
HETATM    3  H   UNL     1     -10.431  12.469  66.647  1.00  0.00     0.000 HD 
ENDROOT
BRANCH   2   4
HETATM    4  C   UNL     1      -8.051  11.975  67.502  1.00  0.00    -0.159 C  
HETATM    5  C   UNL     1      -5.780   9.160  70.934  1.00  0.00    -0.043 A  
HETATM    6  C   UNL     1      -5.252  10.438  71.063  1.00  0.00    -0.083 A  
HETATM    7  C   UNL     1      -9.114  10.934  67.865  1.00  0.00    -0.149 C  
HETATM    8  C   UNL     1      -8.421   9.643  68.262  1.00  0.00    -0.118 C  
HETATM    9  F   UNL     1      -5.301   8.167  71.697  1.00  0.00    -0.033 F  
HETATM   10  C   UNL     1      -5.756  11.471  70.269  1.00  0.00    -0.148 A  
HETATM   11  O   UNL     1      -7.223  12.293  68.635  1.00  0.00    -0.098 OA 
HETATM   12  C   UNL     1      -7.317   9.929  69.237  1.00  0.00    -0.084 A  
HETATM   13  C   UNL     1      -6.776  11.216  69.353  1.00  0.00    -0.120 A  
HETATM   14  C   UNL     1      -6.802   8.894  70.030  1.00  0.00    -0.043 A  
ENDBRANCH   2   4
BRANCH   2  15
HETATM   15  C   UNL     1      -8.118  14.539  67.667  1.00  0.00    -0.179 C  
BRANCH  15  16
HETATM   16  N   UNL     1      -9.093  15.645  67.671  1.00  0.00    -0.191 NA 
HETATM   17  H   UNL     1      -9.973  15.386  67.226  1.00  0.00     0.000 HD 
BRANCH  16  18
HETATM   18  C   UNL     1      -9.282  16.118  69.054  1.00  0.00    -0.252 C  
BRANCH  18  19
HETATM   19  C   UNL     1     -10.663  16.780  69.237  1.00  0.00    -0.324 C  
HETATM   20  H   UNL     1     -12.009  17.594  68.060  1.00  0.00     0.000 HD 
HETATM   21  O   UNL     1     -11.158  17.187  67.947  1.00  0.00    -0.288 OA 
BRANCH  19  22
HETATM   22  C   UNL     1     -11.692  15.837  69.903  1.00  0.00    -0.357 C  
HETATM   23  C   UNL     1     -12.967  15.260  71.951  1.00  0.00    -0.467 C  
HETATM   24  C   UNL     1     -11.869  16.146  71.390  1.00  0.00    -0.490 C  
HETATM   25  C   UNL     1     -12.741  13.838  71.527  1.00  0.00    -0.432 A  
HETATM   26  C   UNL     1     -11.921  13.532  70.433  1.00  0.00    -0.295 A  
HETATM   27  O   UNL     1     -11.250  14.477  69.701  1.00  0.00    -0.253 OA 
HETATM   28  C   UNL     1     -11.709  12.202  70.059  1.00  0.00    -0.330 A  
HETATM   29  C   UNL     1     -12.333  11.171  70.761  1.00  0.00    -0.504 A  
HETATM   30  C   UNL     1     -13.160  11.478  71.835  1.00  0.00    -0.387 A  
HETATM   31  F   UNL     1     -13.759  10.490  72.513  1.00  0.00    -0.362 F  
HETATM   32  C   UNL     1     -13.372  12.797  72.222  1.00  0.00    -0.563 A  
ENDBRANCH  19  22
ENDBRANCH  18  19
ENDBRANCH  16  18
ENDBRANCH  15  16
ENDBRANCH   2  15
TORSDOF 6
ENDMDL
MODEL      168
REMARK 921   NORMALIZED FREE ENERGY PREDICTED BY IDOCK:   -5.57 KCAL/MOL
REMARK 922        TOTAL FREE ENERGY PREDICTED BY IDOCK:   -8.72 KCAL/MOL
REMARK 923 INTER-LIGAND FREE ENERGY PREDICTED BY IDOCK:   -7.64 KCAL/MOL
REMARK 924 INTRA-LIGAND FREE ENERGY PREDICTED BY IDOCK:   -1.07 KCAL/MOL
REMARK 927      BINDING AFFINITY PREDICTED BY RF-SCORE:    0.00 PKD
ROOT
HETATM    1  O   UNL     1     -11.924  12.985  71.613  1.00  0.00     0.124 OA 
HETATM    2  C   UNL     1     -12.541  12.281  70.525  1.00  0.00    -0.092 C  
HETATM    3  H   UNL     1     -12.318  12.713  72.433  1.00  0.00     0.000 HD 
ENDROOT
BRANCH   2   4
HETATM    4  C   UNL     1     -12.430  10.757  70.760  1.00  0.00    -0.387 C  
HETATM    5  C   UNL     1      -9.980   6.506  71.650  1.00  0.00    -0.177 A  
HETATM    6  C   UNL     1      -9.143   7.284  70.862  1.00  0.00    -0.151 A  
HETATM    7  C   UNL     1     -12.943  10.336  72.141  1.00  0.00    -0.410 C  
HETATM    8  C   UNL     1     -12.922   8.820  72.231  1.00  0.00    -0.462 C  
HETATM    9  F   UNL     1      -9.602   5.267  71.994  1.00  0.00    -0.161 F  
HETATM   10  C   UNL     1      -9.539   8.577  70.509  1.00  0.00    -0.194 A  
HETATM   11  O   UNL     1     -11.061  10.359  70.568  1.00  0.00    -0.311 OA 
HETATM   12  C   UNL     1     -11.603   8.293  71.751  1.00  0.00    -0.356 A  
HETATM   13  C   UNL     1     -10.767   9.075  70.942  1.00  0.00    -0.253 A  
HETATM   14  C   UNL     1     -11.205   6.994  72.094  1.00  0.00    -0.291 A  
ENDBRANCH   2   4
BRANCH   2  15
HETATM   15  C   UNL     1     -11.900  12.724  69.194  1.00  0.00    -0.301 C  
BRANCH  15  16
HETATM   16  N   UNL     1     -11.105  13.955  69.342  1.00  0.00    -0.382 NA 
HETATM   17  H   UNL     1     -10.102  13.777  69.287  1.00  0.00     0.000 HD 
BRANCH  16  18
HETATM   18  C   UNL     1     -11.553  14.945  68.345  1.00  0.00    -0.325 C  
BRANCH  18  19
HETATM   19  C   UNL     1     -10.381  15.430  67.469  1.00  0.00    -0.264 C  
HETATM   20  H   UNL     1      -8.441  15.644  67.693  1.00  0.00     0.000 HD 
HETATM   21  O   UNL     1      -9.163  15.345  68.233  1.00  0.00    -0.183 OA 
BRANCH  19  22
HETATM   22  C   UNL     1     -10.226  14.605  66.170  1.00  0.00    -0.301 C  
HETATM   23  C   UNL     1     -11.312  13.716  64.125  1.00  0.00    -0.330 C  
HETATM   24  C   UNL     1     -11.558  14.437  65.438  1.00  0.00    -0.347 C  
HETATM   25  C   UNL     1     -10.457  12.506  64.361  1.00  0.00    -0.384 A  
HETATM   26  C   UNL     1      -9.676  12.386  65.519  1.00  0.00    -0.136 A  
HETATM   27  O   UNL     1      -9.656  13.324  66.518  1.00  0.00    -0.258 OA 
HETATM   28  C   UNL     1      -8.895  11.247  65.730  1.00  0.00    -0.154 A  
HETATM   29  C   UNL     1      -8.871  10.230  64.777  1.00  0.00    -0.217 A  
HETATM   30  C   UNL     1      -9.632  10.358  63.621  1.00  0.00    -0.310 A  
HETATM   31  F   UNL     1      -9.613   9.382  62.704  1.00  0.00    -0.166 F  
HETATM   32  C   UNL     1     -10.420  11.483  63.403  1.00  0.00    -0.466 A  
ENDBRANCH  19  22
ENDBRANCH  18  19
ENDBRANCH  16  18
ENDBRANCH  15  16
ENDBRANCH   2  15
TORSDOF 6
ENDMDL
MODEL      169
REMARK 921   NORMALIZED FREE ENERGY PREDICTED BY IDOCK:   -5.57 KCAL/MOL
REMARK 922        TOTAL FREE ENERGY PREDICTED BY IDOCK:   -8.71 KCAL/MOL
REMARK 923 INTER-LIGAND FREE ENERGY PREDICTED BY IDOCK:   -7.95 KCAL/MOL
REMARK 924 INTRA-LIGAND FREE ENERGY PREDICTED BY IDOCK:   -0.77 KCAL/MOL
REMARK 927      BINDING AFFINITY PREDICTED BY RF-SCORE:    0.00 PKD
ROOT
HETATM    1  O   UNL     1     -12.989  13.838  65.421  1.00  0.00    -0.706 OA 
HETATM    2  C   UNL     1     -11.561  13.767  65.301  1.00  0.00    -0.321 C  
HETATM    3  H   UNL     1     -13.374  13.016  65.142  1.00  0.00     0.000 HD 
ENDROOT
BRANCH   2   4
HETATM    4  C   UNL     1     -11.030  12.558  66.107  1.00  0.00    -0.284 C  
HETATM    5  C   UNL     1      -7.711  10.148  68.942  1.00  0.00    -0.093 A  
HETATM    6  C   UNL     1      -6.979  10.953  68.079  1.00  0.00    -0.072 A  
HETATM    7  C   UNL     1     -11.774  12.362  67.431  1.00  0.00    -0.417 C  
HETATM    8  C   UNL     1     -11.281  11.084  68.086  1.00  0.00    -0.364 C  
HETATM    9  F   UNL     1      -7.069   9.328  69.786  1.00  0.00    -0.051 F  
HETATM   10  C   UNL     1      -7.652  11.809  67.204  1.00  0.00    -0.155 A  
HETATM   11  O   UNL     1      -9.618  12.732  66.321  1.00  0.00    -0.257 OA 
HETATM   12  C   UNL     1      -9.781  11.045  68.078  1.00  0.00    -0.181 A  
HETATM   13  C   UNL     1      -9.046  11.847  67.195  1.00  0.00    -0.178 A  
HETATM   14  C   UNL     1      -9.102  10.182  68.949  1.00  0.00    -0.165 A  
ENDBRANCH   2   4
BRANCH   2  15
HETATM   15  C   UNL     1     -10.936  15.102  65.755  1.00  0.00    -0.349 C  
BRANCH  15  16
HETATM   16  N   UNL     1     -10.561  15.084  67.180  1.00  0.00    -0.289 NA 
HETATM   17  H   UNL     1      -9.573  15.294  67.323  1.00  0.00     0.000 HD 
BRANCH  16  18
HETATM   18  C   UNL     1     -11.442  16.000  67.925  1.00  0.00    -0.140 C  
BRANCH  18  19
HETATM   19  C   UNL     1     -10.675  16.731  69.045  1.00  0.00    -0.331 C  
HETATM   20  H   UNL     1      -9.362  16.232  70.419  1.00  0.00     0.000 HD 
HETATM   21  O   UNL     1      -9.835  15.782  69.729  1.00  0.00    -0.273 OA 
BRANCH  19  22
HETATM   22  C   UNL     1      -9.802  17.891  68.511  1.00  0.00    -0.367 C  
HETATM   23  C   UNL     1      -9.738  20.162  67.517  1.00  0.00    -0.557 C  
HETATM   24  C   UNL     1     -10.650  19.017  67.919  1.00  0.00    -0.441 C  
HETATM   25  C   UNL     1      -8.577  19.636  66.726  1.00  0.00    -0.360 A  
HETATM   26  C   UNL     1      -8.213  18.284  66.788  1.00  0.00    -0.253 A  
HETATM   27  O   UNL     1      -8.891  17.351  67.530  1.00  0.00    -0.221 OA 
HETATM   28  C   UNL     1      -7.137  17.806  66.036  1.00  0.00    -0.335 A  
HETATM   29  C   UNL     1      -6.403  18.679  65.233  1.00  0.00    -0.296 A  
HETATM   30  C   UNL     1      -6.754  20.022  65.187  1.00  0.00    -0.286 A  
HETATM   31  F   UNL     1      -6.053  20.864  64.416  1.00  0.00    -0.274 F  
HETATM   32  C   UNL     1      -7.828  20.508  65.925  1.00  0.00     0.069 A  
ENDBRANCH  19  22
ENDBRANCH  18  19
ENDBRANCH  16  18
ENDBRANCH  15  16
ENDBRANCH   2  15
TORSDOF 6
ENDMDL
MODEL      170
REMARK 921   NORMALIZED FREE ENERGY PREDICTED BY IDOCK:   -5.57 KCAL/MOL
REMARK 922        TOTAL FREE ENERGY PREDICTED BY IDOCK:   -8.71 KCAL/MOL
REMARK 923 INTER-LIGAND FREE ENERGY PREDICTED BY IDOCK:   -7.53 KCAL/MOL
REMARK 924 INTRA-LIGAND FREE ENERGY PREDICTED BY IDOCK:   -1.18 KCAL/MOL
REMARK 927      BINDING AFFINITY PREDICTED BY RF-SCORE:    0.00 PKD
ROOT
HETATM    1  O   UNL     1     -10.812  16.371  68.117  1.00  0.00    -0.324 OA 
HETATM    2  C   UNL     1     -11.263  15.270  67.316  1.00  0.00    -0.306 C  
HETATM    3  H   UNL     1     -11.335  16.426  68.908  1.00  0.00     0.000 HD 
ENDROOT
BRANCH   2   4
HETATM    4  C   UNL     1     -11.221  13.967  68.147  1.00  0.00    -0.275 C  
HETATM    5  C   UNL     1     -12.886  10.773  71.596  1.00  0.00    -0.457 A  
HETATM    6  C   UNL     1     -13.175  12.046  72.068  1.00  0.00    -0.481 A  
HETATM    7  C   UNL     1     -11.611  12.733  67.328  1.00  0.00    -0.420 C  
HETATM    8  C   UNL     1     -11.412  11.493  68.181  1.00  0.00    -0.385 C  
HETATM    9  F   UNL     1     -13.166   9.706  72.357  1.00  0.00    -0.460 F  
HETATM   10  C   UNL     1     -12.885  13.156  71.270  1.00  0.00    -0.384 A  
HETATM   11  O   UNL     1     -12.077  14.124  69.294  1.00  0.00    -0.326 OA 
HETATM   12  C   UNL     1     -12.028  11.695  69.534  1.00  0.00    -0.383 A  
HETATM   13  C   UNL     1     -12.304  12.982  70.014  1.00  0.00    -0.152 A  
HETATM   14  C   UNL     1     -12.313  10.586  70.342  1.00  0.00    -0.409 A  
ENDBRANCH   2   4
BRANCH   2  15
HETATM   15  C   UNL     1     -10.412  15.181  66.032  1.00  0.00    -0.319 C  
BRANCH  15  16
HETATM   16  N   UNL     1      -9.238  14.307  66.203  1.00  0.00    -0.510 NA 
HETATM   17  H   UNL     1      -8.911  13.921  65.318  1.00  0.00     0.000 HD 
BRANCH  16  18
HETATM   18  C   UNL     1      -8.182  15.048  66.916  1.00  0.00    -0.171 C  
BRANCH  18  19
HETATM   19  C   UNL     1      -7.283  14.098  67.733  1.00  0.00    -0.176 C  
HETATM   20  H   UNL     1      -6.458  14.115  69.516  1.00  0.00     0.000 HD 
HETATM   21  O   UNL     1      -7.012  14.700  69.012  1.00  0.00    -0.104 OA 
BRANCH  19  22
HETATM   22  C   UNL     1      -7.926  12.708  67.950  1.00  0.00    -0.156 C  
HETATM   23  C   UNL     1      -7.944  10.603  69.260  1.00  0.00    -0.139 C  
HETATM   24  C   UNL     1      -7.196  11.903  69.025  1.00  0.00    -0.068 C  
HETATM   25  C   UNL     1      -8.252   9.946  67.947  1.00  0.00    -0.113 A  
HETATM   26  C   UNL     1      -8.241  10.679  66.752  1.00  0.00    -0.130 A  
HETATM   27  O   UNL     1      -7.926  12.012  66.684  1.00  0.00    -0.106 OA 
HETATM   28  C   UNL     1      -8.517  10.051  65.535  1.00  0.00    -0.155 A  
HETATM   29  C   UNL     1      -8.827   8.692  65.505  1.00  0.00    -0.220 A  
HETATM   30  C   UNL     1      -8.853   7.971  66.692  1.00  0.00    -0.145 A  
HETATM   31  F   UNL     1      -9.148   6.664  66.667  1.00  0.00    -0.125 F  
HETATM   32  C   UNL     1      -8.573   8.583  67.909  1.00  0.00    -0.134 A  
ENDBRANCH  19  22
ENDBRANCH  18  19
ENDBRANCH  16  18
ENDBRANCH  15  16
ENDBRANCH   2  15
TORSDOF 6
ENDMDL
MODEL      171
REMARK 921   NORMALIZED FREE ENERGY PREDICTED BY IDOCK:   -5.57 KCAL/MOL
REMARK 922        TOTAL FREE ENERGY PREDICTED BY IDOCK:   -8.71 KCAL/MOL
REMARK 923 INTER-LIGAND FREE ENERGY PREDICTED BY IDOCK:   -8.42 KCAL/MOL
REMARK 924 INTRA-LIGAND FREE ENERGY PREDICTED BY IDOCK:   -0.29 KCAL/MOL
REMARK 927      BINDING AFFINITY PREDICTED BY RF-SCORE:    0.00 PKD
ROOT
HETATM    1  O   UNL     1     -10.400  10.202  63.185  1.00  0.00    -0.339 OA 
HETATM    2  C   UNL     1      -9.741  11.246  63.916  1.00  0.00    -0.277 C  
HETATM    3  H   UNL     1      -9.882   9.407  63.228  1.00  0.00     0.000 HD 
ENDROOT
BRANCH   2   4
HETATM    4  C   UNL     1      -9.484  10.784  65.369  1.00  0.00    -0.214 C  
HETATM    5  C   UNL     1      -6.917  10.579  69.639  1.00  0.00    -0.135 A  
HETATM    6  C   UNL     1      -5.977  10.666  68.620  1.00  0.00    -0.040 A  
HETATM    7  C   UNL     1     -10.418  11.461  66.376  1.00  0.00    -0.299 C  
HETATM    8  C   UNL     1     -10.188  10.852  67.747  1.00  0.00    -0.209 C  
HETATM    9  F   UNL     1      -6.506  10.444  70.908  1.00  0.00    -0.099 F  
HETATM   10  C   UNL     1      -6.410  10.810  67.299  1.00  0.00    -0.065 A  
HETATM   11  O   UNL     1      -8.103  11.027  65.692  1.00  0.00    -0.113 OA 
HETATM   12  C   UNL     1      -8.718  10.789  68.043  1.00  0.00    -0.132 A  
HETATM   13  C   UNL     1      -7.774  10.861  67.011  1.00  0.00    -0.129 A  
HETATM   14  C   UNL     1      -8.279  10.635  69.365  1.00  0.00    -0.089 A  
ENDBRANCH   2   4
BRANCH   2  15
HETATM   15  C   UNL     1     -10.582  12.537  63.845  1.00  0.00    -0.440 C  
BRANCH  15  16
HETATM   16  N   UNL     1     -10.218  13.496  64.904  1.00  0.00    -0.537 NA 
HETATM   17  H   UNL     1      -9.255  13.820  64.818  1.00  0.00     0.000 HD 
BRANCH  16  18
HETATM   18  C   UNL     1     -11.185  14.609  64.904  1.00  0.00    -0.396 C  
BRANCH  18  19
HETATM   19  C   UNL     1     -10.535  15.918  65.396  1.00  0.00    -0.405 C  
HETATM   20  H   UNL     1     -10.579  17.807  64.861  1.00  0.00     0.000 HD 
HETATM   21  O   UNL     1     -10.979  17.001  64.558  1.00  0.00    -1.031 OA 
BRANCH  19  22
HETATM   22  C   UNL     1     -10.881  16.237  66.869  1.00  0.00    -0.151 C  
HETATM   23  C   UNL     1     -10.127  17.210  69.022  1.00  0.00    -0.297 C  
HETATM   24  C   UNL     1      -9.686  16.821  67.623  1.00  0.00    -0.251 C  
HETATM   25  C   UNL     1     -10.898  16.085  69.646  1.00  0.00    -0.329 A  
HETATM   26  C   UNL     1     -11.472  15.078  68.857  1.00  0.00    -0.314 A  
HETATM   27  O   UNL     1     -11.351  15.023  67.493  1.00  0.00    -0.322 OA 
HETATM   28  C   UNL     1     -12.176  14.028  69.453  1.00  0.00    -0.336 A  
HETATM   29  C   UNL     1     -12.331  13.989  70.839  1.00  0.00    -0.443 A  
HETATM   30  C   UNL     1     -11.776  14.998  71.617  1.00  0.00    -0.377 A  
HETATM   31  F   UNL     1     -11.921  14.963  72.948  1.00  0.00    -0.408 F  
HETATM   32  C   UNL     1     -11.067  16.043  71.036  1.00  0.00    -0.238 A  
ENDBRANCH  19  22
ENDBRANCH  18  19
ENDBRANCH  16  18
ENDBRANCH  15  16
ENDBRANCH   2  15
TORSDOF 6
ENDMDL
MODEL      172
REMARK 921   NORMALIZED FREE ENERGY PREDICTED BY IDOCK:   -5.55 KCAL/MOL
REMARK 922        TOTAL FREE ENERGY PREDICTED BY IDOCK:   -8.69 KCAL/MOL
REMARK 923 INTER-LIGAND FREE ENERGY PREDICTED BY IDOCK:   -7.28 KCAL/MOL
REMARK 924 INTRA-LIGAND FREE ENERGY PREDICTED BY IDOCK:   -1.41 KCAL/MOL
REMARK 927      BINDING AFFINITY PREDICTED BY RF-SCORE:    0.00 PKD
ROOT
HETATM    1  O   UNL     1      -7.582  11.383  66.133  1.00  0.00    -0.349 OA 
HETATM    2  C   UNL     1      -8.876  10.965  66.591  1.00  0.00    -0.159 C  
HETATM    3  H   UNL     1      -6.909  10.982  66.670  1.00  0.00     0.000 HD 
ENDROOT
BRANCH   2   4
HETATM    4  C   UNL     1      -8.956   9.421  66.588  1.00  0.00    -0.146 C  
HETATM    5  C   UNL     1      -7.714   4.846  68.135  1.00  0.00    -0.082 A  
HETATM    6  C   UNL     1      -6.560   5.613  68.214  1.00  0.00    -0.049 A  
HETATM    7  C   UNL     1     -10.250   8.898  67.220  1.00  0.00    -0.326 C  
HETATM    8  C   UNL     1     -10.304   7.390  67.052  1.00  0.00    -0.384 C  
HETATM    9  F   UNL     1      -7.662   3.540  68.432  1.00  0.00    -0.056 F  
HETATM   10  C   UNL     1      -6.620   6.975  67.907  1.00  0.00    -0.052 A  
HETATM   11  O   UNL     1      -7.797   8.897  67.262  1.00  0.00    -0.095 OA 
HETATM   12  C   UNL     1      -8.995   6.779  67.457  1.00  0.00    -0.115 A  
HETATM   13  C   UNL     1      -7.829   7.553  67.520  1.00  0.00    -0.116 A  
HETATM   14  C   UNL     1      -8.928   5.411  67.758  1.00  0.00    -0.108 A  
ENDBRANCH   2   4
BRANCH   2  15
HETATM   15  C   UNL     1      -9.969  11.617  65.720  1.00  0.00    -0.237 C  
BRANCH  15  16
HETATM   16  N   UNL     1     -10.556  12.806  66.363  1.00  0.00    -0.253 NA 
HETATM   17  H   UNL     1     -10.791  13.534  65.689  1.00  0.00     0.000 HD 
BRANCH  16  18
HETATM   18  C   UNL     1     -11.717  12.396  67.173  1.00  0.00    -0.345 C  
BRANCH  18  19
HETATM   19  C   UNL     1     -11.461  12.618  68.677  1.00  0.00    -0.308 C  
HETATM   20  H   UNL     1     -12.107  13.863  70.053  1.00  0.00     0.000 HD 
HETATM   21  O   UNL     1     -12.265  13.725  69.126  1.00  0.00    -0.344 OA 
BRANCH  19  22
HETATM   22  C   UNL     1     -11.791  11.370  69.529  1.00  0.00    -0.357 C  
HETATM   23  C   UNL     1     -12.878  10.468  71.567  1.00  0.00    -0.568 C  
HETATM   24  C   UNL     1     -12.488  11.741  70.838  1.00  0.00    -0.416 C  
HETATM   25  C   UNL     1     -11.711   9.526  71.608  1.00  0.00    -0.460 A  
HETATM   26  C   UNL     1     -10.641   9.661  70.714  1.00  0.00    -0.322 A  
HETATM   27  O   UNL     1     -10.559  10.658  69.775  1.00  0.00    -0.238 OA 
HETATM   28  C   UNL     1      -9.555   8.784  70.773  1.00  0.00    -0.256 A  
HETATM   29  C   UNL     1      -9.540   7.753  71.711  1.00  0.00    -0.204 A  
HETATM   30  C   UNL     1     -10.610   7.610  72.586  1.00  0.00    -0.299 A  
HETATM   31  F   UNL     1     -10.598   6.621  73.490  1.00  0.00    -0.242 F  
HETATM   32  C   UNL     1     -11.693   8.481  72.542  1.00  0.00    -0.390 A  
ENDBRANCH  19  22
ENDBRANCH  18  19
ENDBRANCH  16  18
ENDBRANCH  15  16
ENDBRANCH   2  15
TORSDOF 6
ENDMDL
MODEL      173
REMARK 921   NORMALIZED FREE ENERGY PREDICTED BY IDOCK:   -5.53 KCAL/MOL
REMARK 922        TOTAL FREE ENERGY PREDICTED BY IDOCK:   -8.65 KCAL/MOL
REMARK 923 INTER-LIGAND FREE ENERGY PREDICTED BY IDOCK:   -7.87 KCAL/MOL
REMARK 924 INTRA-LIGAND FREE ENERGY PREDICTED BY IDOCK:   -0.79 KCAL/MOL
REMARK 927      BINDING AFFINITY PREDICTED BY RF-SCORE:    0.00 PKD
ROOT
HETATM    1  O   UNL     1      -6.476  13.105  68.424  1.00  0.00    -0.072 OA 
HETATM    2  C   UNL     1      -7.670  13.249  67.642  1.00  0.00    -0.171 C  
HETATM    3  H   UNL     1      -5.877  13.814  68.225  1.00  0.00     0.000 HD 
ENDROOT
BRANCH   2   4
HETATM    4  C   UNL     1      -8.294  14.641  67.895  1.00  0.00    -0.152 C  
HETATM    5  C   UNL     1      -9.452  19.340  66.692  1.00  0.00    -0.344 A  
HETATM    6  C   UNL     1      -8.216  19.081  66.115  1.00  0.00    -0.246 A  
HETATM    7  C   UNL     1      -9.824  14.622  67.824  1.00  0.00    -0.216 C  
HETATM    8  C   UNL     1     -10.352  15.991  68.216  1.00  0.00    -0.261 C  
HETATM    9  F   UNL     1      -9.987  20.565  66.586  1.00  0.00    -0.549 F  
HETATM   10  C   UNL     1      -7.663  17.802  66.224  1.00  0.00    -0.308 A  
HETATM   11  O   UNL     1      -7.740  15.574  66.948  1.00  0.00    -0.218 OA 
HETATM   12  C   UNL     1      -9.601  17.062  67.481  1.00  0.00    -0.249 A  
HETATM   13  C   UNL     1      -8.347  16.801  66.913  1.00  0.00    -0.209 A  
HETATM   14  C   UNL     1     -10.147  18.348  67.375  1.00  0.00    -0.369 A  
ENDBRANCH   2   4
BRANCH   2  15
HETATM   15  C   UNL     1      -8.643  12.097  67.964  1.00  0.00    -0.175 C  
BRANCH  15  16
HETATM   16  N   UNL     1      -8.924  11.260  66.784  1.00  0.00    -0.165 NA 
HETATM   17  H   UNL     1      -8.145  10.645  66.551  1.00  0.00     0.000 HD 
BRANCH  16  18
HETATM   18  C   UNL     1     -10.178  10.518  67.004  1.00  0.00    -0.226 C  
BRANCH  18  19
HETATM   19  C   UNL     1     -11.013  11.147  68.137  1.00  0.00    -0.238 C  
HETATM   20  H   UNL     1     -12.654  12.219  68.258  1.00  0.00     0.000 HD 
HETATM   21  O   UNL     1     -12.140  11.831  67.560  1.00  0.00    -0.599 OA 
BRANCH  19  22
HETATM   22  C   UNL     1     -11.520  10.099  69.156  1.00  0.00    -0.095 C  
HETATM   23  C   UNL     1     -12.117   9.602  71.511  1.00  0.00    -0.482 C  
HETATM   24  C   UNL     1     -11.506  10.639  70.586  1.00  0.00    -0.374 C  
HETATM   25  C   UNL     1     -11.512   8.257  71.239  1.00  0.00    -0.314 A  
HETATM   26  C   UNL     1     -10.859   7.989  70.028  1.00  0.00    -0.235 A  
HETATM   27  O   UNL     1     -10.696   8.920  69.034  1.00  0.00    -0.209 OA 
HETATM   28  C   UNL     1     -10.290   6.735  69.794  1.00  0.00    -0.226 A  
HETATM   29  C   UNL     1     -10.387   5.733  70.758  1.00  0.00    -0.301 A  
HETATM   30  C   UNL     1     -11.050   5.994  71.951  1.00  0.00    -0.277 A  
HETATM   31  F   UNL     1     -11.143   5.034  72.881  1.00  0.00    -0.264 F  
HETATM   32  C   UNL     1     -11.614   7.241  72.199  1.00  0.00    -0.324 A  
ENDBRANCH  19  22
ENDBRANCH  18  19
ENDBRANCH  16  18
ENDBRANCH  15  16
ENDBRANCH   2  15
TORSDOF 6
ENDMDL
MODEL      174
REMARK 921   NORMALIZED FREE ENERGY PREDICTED BY IDOCK:   -5.52 KCAL/MOL
REMARK 922        TOTAL FREE ENERGY PREDICTED BY IDOCK:   -8.65 KCAL/MOL
REMARK 923 INTER-LIGAND FREE ENERGY PREDICTED BY IDOCK:   -7.54 KCAL/MOL
REMARK 924 INTRA-LIGAND FREE ENERGY PREDICTED BY IDOCK:   -1.10 KCAL/MOL
REMARK 927      BINDING AFFINITY PREDICTED BY RF-SCORE:    0.00 PKD
ROOT
HETATM    1  O   UNL     1     -13.092   8.586  72.491  1.00  0.00    -0.552 OA 
HETATM    2  C   UNL     1     -11.671   8.713  72.342  1.00  0.00    -0.323 C  
HETATM    3  H   UNL     1     -13.478   9.445  72.611  1.00  0.00     0.000 HD 
ENDROOT
BRANCH   2   4
HETATM    4  C   UNL     1     -11.353   9.676  71.174  1.00  0.00    -0.386 C  
HETATM    5  C   UNL     1     -10.580  10.848  66.390  1.00  0.00    -0.229 A  
HETATM    6  C   UNL     1     -10.073   9.568  66.567  1.00  0.00    -0.326 A  
HETATM    7  C   UNL     1     -12.523  10.608  70.846  1.00  0.00    -0.495 C  
HETATM    8  C   UNL     1     -12.077  11.601  69.787  1.00  0.00    -0.357 C  
HETATM    9  F   UNL     1     -10.450  11.452  65.200  1.00  0.00    -0.296 F  
HETATM   10  C   UNL     1     -10.214   8.940  67.807  1.00  0.00    -0.283 A  
HETATM   11  O   UNL     1     -10.966   8.898  70.027  1.00  0.00    -0.236 OA 
HETATM   12  C   UNL     1     -11.378  10.885  68.670  1.00  0.00    -0.360 A  
HETATM   13  C   UNL     1     -10.854   9.599  68.856  1.00  0.00    -0.174 A  
HETATM   14  C   UNL     1     -11.227  11.513  67.426  1.00  0.00    -0.367 A  
ENDBRANCH   2   4
BRANCH   2  15
HETATM   15  C   UNL     1     -11.044   7.317  72.145  1.00  0.00    -0.246 C  
BRANCH  15  16
HETATM   16  N   UNL     1     -11.873   6.249  72.733  1.00  0.00    -0.504 NA 
HETATM   17  H   UNL     1     -12.791   6.186  72.294  1.00  0.00     0.000 HD 
BRANCH  16  18
HETATM   18  C   UNL     1     -11.134   4.975  72.673  1.00  0.00    -0.197 C  
BRANCH  18  19
HETATM   19  C   UNL     1      -9.850   5.108  71.830  1.00  0.00    -0.177 C  
HETATM   20  H   UNL     1      -7.935   4.767  72.104  1.00  0.00     0.000 HD 
HETATM   21  O   UNL     1      -8.726   4.684  72.624  1.00  0.00    -0.113 OA 
BRANCH  19  22
HETATM   22  C   UNL     1      -9.901   4.271  70.531  1.00  0.00    -0.198 C  
HETATM   23  C   UNL     1      -8.833   2.515  69.141  1.00  0.00    -0.150 C  
HETATM   24  C   UNL     1      -8.665   3.384  70.375  1.00  0.00    -0.129 C  
HETATM   25  C   UNL     1      -9.273   3.357  67.980  1.00  0.00    -0.238 A  
HETATM   26  C   UNL     1      -9.856   4.616  68.180  1.00  0.00    -0.107 A  
HETATM   27  O   UNL     1     -10.037   5.179  69.417  1.00  0.00    -0.205 OA 
HETATM   28  C   UNL     1     -10.248   5.394  67.088  1.00  0.00    -0.266 A  
HETATM   29  C   UNL     1     -10.082   4.912  65.790  1.00  0.00    -0.195 A  
HETATM   30  C   UNL     1      -9.520   3.656  65.595  1.00  0.00    -0.156 A  
HETATM   31  F   UNL     1      -9.356   3.190  64.350  1.00  0.00    -0.119 F  
HETATM   32  C   UNL     1      -9.118   2.875  66.673  1.00  0.00    -0.161 A  
ENDBRANCH  19  22
ENDBRANCH  18  19
ENDBRANCH  16  18
ENDBRANCH  15  16
ENDBRANCH   2  15
TORSDOF 6
ENDMDL
MODEL      175
REMARK 921   NORMALIZED FREE ENERGY PREDICTED BY IDOCK:   -5.52 KCAL/MOL
REMARK 922        TOTAL FREE ENERGY PREDICTED BY IDOCK:   -8.64 KCAL/MOL
REMARK 923 INTER-LIGAND FREE ENERGY PREDICTED BY IDOCK:   -7.34 KCAL/MOL
REMARK 924 INTRA-LIGAND FREE ENERGY PREDICTED BY IDOCK:   -1.30 KCAL/MOL
REMARK 927      BINDING AFFINITY PREDICTED BY RF-SCORE:    0.00 PKD
ROOT
HETATM    1  O   UNL     1      -5.313  16.737  70.557  1.00  0.00    -0.203 OA 
HETATM    2  C   UNL     1      -6.087  15.945  69.646  1.00  0.00    -0.167 C  
HETATM    3  H   UNL     1      -5.121  17.580  70.163  1.00  0.00     0.000 HD 
ENDROOT
BRANCH   2   4
HETATM    4  C   UNL     1      -7.364  16.715  69.238  1.00  0.00    -0.184 C  
HETATM    5  C   UNL     1     -10.163  19.497  66.189  1.00  0.00    -0.496 A  
HETATM    6  C   UNL     1      -8.851  19.917  66.010  1.00  0.00    -0.287 A  
HETATM    7  C   UNL     1      -8.522  15.782  68.872  1.00  0.00    -0.218 C  
HETATM    8  C   UNL     1      -9.765  16.617  68.618  1.00  0.00    -0.248 C  
HETATM    9  F   UNL     1     -11.152  20.122  65.535  1.00  0.00    -0.437 F  
HETATM   10  C   UNL     1      -7.822  19.260  66.690  1.00  0.00    -0.284 A  
HETATM   11  O   UNL     1      -7.042  17.600  68.149  1.00  0.00    -0.203 OA 
HETATM   12  C   UNL     1      -9.437  17.766  67.710  1.00  0.00    -0.262 A  
HETATM   13  C   UNL     1      -8.115  18.197  67.544  1.00  0.00    -0.238 A  
HETATM   14  C   UNL     1     -10.467  18.433  67.032  1.00  0.00    -0.429 A  
ENDBRANCH   2   4
BRANCH   2  15
HETATM   15  C   UNL     1      -6.400  14.577  70.286  1.00  0.00    -0.170 C  
BRANCH  15  16
HETATM   16  N   UNL     1      -5.458  13.530  69.848  1.00  0.00    -0.094 NA 
HETATM   17  H   UNL     1      -5.509  12.696  70.432  1.00  0.00     0.000 HD 
BRANCH  16  18
HETATM   18  C   UNL     1      -5.692  13.233  68.424  1.00  0.00    -0.084 C  
BRANCH  18  19
HETATM   19  C   UNL     1      -6.718  12.096  68.248  1.00  0.00    -0.063 C  
HETATM   20  H   UNL     1      -7.224  10.480  69.244  1.00  0.00     0.000 HD 
HETATM   21  O   UNL     1      -6.592  11.181  69.353  1.00  0.00    -0.083 OA 
BRANCH  19  22
HETATM   22  C   UNL     1      -8.174  12.613  68.179  1.00  0.00    -0.170 C  
HETATM   23  C   UNL     1     -10.578  12.121  68.540  1.00  0.00    -0.252 C  
HETATM   24  C   UNL     1      -9.185  11.518  68.521  1.00  0.00    -0.167 C  
HETATM   25  C   UNL     1     -10.794  12.947  67.307  1.00  0.00    -0.277 A  
HETATM   26  C   UNL     1      -9.710  13.416  66.553  1.00  0.00    -0.282 A  
HETATM   27  O   UNL     1      -8.401  13.138  66.854  1.00  0.00    -0.129 OA 
HETATM   28  C   UNL     1      -9.926  14.173  65.399  1.00  0.00    -0.321 A  
HETATM   29  C   UNL     1     -11.227  14.486  65.002  1.00  0.00    -0.384 A  
HETATM   30  C   UNL     1     -12.299  14.035  65.761  1.00  0.00    -0.480 A  
HETATM   31  F   UNL     1     -13.549  14.332  65.382  1.00  0.00    -0.343 F  
HETATM   32  C   UNL     1     -12.097  13.274  66.907  1.00  0.00    -0.389 A  
ENDBRANCH  19  22
ENDBRANCH  18  19
ENDBRANCH  16  18
ENDBRANCH  15  16
ENDBRANCH   2  15
TORSDOF 6
ENDMDL
MODEL      176
REMARK 921   NORMALIZED FREE ENERGY PREDICTED BY IDOCK:   -5.51 KCAL/MOL
REMARK 922        TOTAL FREE ENERGY PREDICTED BY IDOCK:   -8.63 KCAL/MOL
REMARK 923 INTER-LIGAND FREE ENERGY PREDICTED BY IDOCK:   -7.90 KCAL/MOL
REMARK 924 INTRA-LIGAND FREE ENERGY PREDICTED BY IDOCK:   -0.73 KCAL/MOL
REMARK 927      BINDING AFFINITY PREDICTED BY RF-SCORE:    0.00 PKD
ROOT
HETATM    1  O   UNL     1      -9.286   9.092  69.102  1.00  0.00    -0.146 OA 
HETATM    2  C   UNL     1      -9.663   9.120  67.719  1.00  0.00    -0.154 C  
HETATM    3  H   UNL     1      -9.443   8.225  69.458  1.00  0.00     0.000 HD 
ENDROOT
BRANCH   2   4
HETATM    4  C   UNL     1      -8.903   8.017  66.948  1.00  0.00    -0.132 C  
HETATM    5  C   UNL     1      -8.471   3.605  64.663  1.00  0.00    -0.096 A  
HETATM    6  C   UNL     1      -9.359   3.418  65.713  1.00  0.00    -0.144 A  
HETATM    7  C   UNL     1      -8.630   8.399  65.490  1.00  0.00    -0.201 C  
HETATM    8  C   UNL     1      -7.768   7.323  64.853  1.00  0.00    -0.117 C  
HETATM    9  F   UNL     1      -8.112   2.559  63.905  1.00  0.00    -0.076 F  
HETATM   10  C   UNL     1      -9.734   4.512  66.498  1.00  0.00    -0.220 A  
HETATM   11  O   UNL     1      -9.654   6.792  67.034  1.00  0.00    -0.140 OA 
HETATM   12  C   UNL     1      -8.328   5.966  65.159  1.00  0.00    -0.143 A  
HETATM   13  C   UNL     1      -9.213   5.777  66.229  1.00  0.00    -0.158 A  
HETATM   14  C   UNL     1      -7.949   4.863  64.380  1.00  0.00    -0.104 A  
ENDBRANCH   2   4
BRANCH   2  15
HETATM   15  C   UNL     1      -9.408  10.528  67.142  1.00  0.00    -0.154 C  
BRANCH  15  16
HETATM   16  N   UNL     1     -10.129  11.574  67.890  1.00  0.00    -0.184 NA 
HETATM   17  H   UNL     1      -9.908  11.559  68.886  1.00  0.00     0.000 HD 
BRANCH  16  18
HETATM   18  C   UNL     1      -9.857  12.885  67.275  1.00  0.00    -0.218 C  
BRANCH  18  19
HETATM   19  C   UNL     1     -11.162  13.657  66.997  1.00  0.00    -0.312 C  
HETATM   20  H   UNL     1     -13.008  13.189  66.517  1.00  0.00     0.000 HD 
HETATM   21  O   UNL     1     -12.204  12.713  66.689  1.00  0.00    -0.517 OA 
BRANCH  19  22
HETATM   22  C   UNL     1     -11.604  14.531  68.194  1.00  0.00    -0.331 C  
HETATM   23  C   UNL     1     -10.987  16.295  69.826  1.00  0.00    -0.354 C  
HETATM   24  C   UNL     1     -10.456  15.388  68.730  1.00  0.00    -0.231 C  
HETATM   25  C   UNL     1     -11.810  15.497  70.794  1.00  0.00    -0.406 A  
HETATM   26  C   UNL     1     -12.339  14.249  70.437  1.00  0.00    -0.352 A  
HETATM   27  O   UNL     1     -12.126  13.657  69.218  1.00  0.00    -0.334 OA 
HETATM   28  C   UNL     1     -13.092  13.511  71.354  1.00  0.00    -0.385 A  
HETATM   29  C   UNL     1     -13.340  14.025  72.627  1.00  0.00    -0.643 A  
HETATM   30  C   UNL     1     -12.830  15.269  72.973  1.00  0.00    -0.469 A  
HETATM   31  F   UNL     1     -13.065  15.765  74.195  1.00  0.00    -0.566 F  
HETATM   32  C   UNL     1     -12.072  16.009  72.071  1.00  0.00    -0.606 A  
ENDBRANCH  19  22
ENDBRANCH  18  19
ENDBRANCH  16  18
ENDBRANCH  15  16
ENDBRANCH   2  15
TORSDOF 6
ENDMDL
MODEL      177
REMARK 921   NORMALIZED FREE ENERGY PREDICTED BY IDOCK:   -5.50 KCAL/MOL
REMARK 922        TOTAL FREE ENERGY PREDICTED BY IDOCK:   -8.62 KCAL/MOL
REMARK 923 INTER-LIGAND FREE ENERGY PREDICTED BY IDOCK:   -7.92 KCAL/MOL
REMARK 924 INTRA-LIGAND FREE ENERGY PREDICTED BY IDOCK:   -0.70 KCAL/MOL
REMARK 927      BINDING AFFINITY PREDICTED BY RF-SCORE:    0.00 PKD
ROOT
HETATM    1  O   UNL     1      -5.667  16.670  70.650  1.00  0.00    -0.120 OA 
HETATM    2  C   UNL     1      -6.283  16.077  69.498  1.00  0.00    -0.172 C  
HETATM    3  H   UNL     1      -5.002  17.289  70.374  1.00  0.00     0.000 HD 
ENDROOT
BRANCH   2   4
HETATM    4  C   UNL     1      -6.848  17.185  68.580  1.00  0.00    -0.197 C  
HETATM    5  C   UNL     1     -10.448  19.539  66.058  1.00  0.00    -0.516 A  
HETATM    6  C   UNL     1     -10.751  18.185  66.002  1.00  0.00    -0.164 A  
HETATM    7  C   UNL     1      -6.946  18.541  69.286  1.00  0.00    -0.207 C  
HETATM    8  C   UNL     1      -7.379  19.590  68.278  1.00  0.00    -0.346 C  
HETATM    9  F   UNL     1     -11.220  20.417  65.401  1.00  0.00    -0.209 F  
HETATM   10  C   UNL     1      -9.946  17.274  66.691  1.00  0.00    -0.296 A  
HETATM   11  O   UNL     1      -8.130  16.762  68.082  1.00  0.00    -0.185 OA 
HETATM   12  C   UNL     1      -8.553  19.092  67.488  1.00  0.00    -0.311 A  
HETATM   13  C   UNL     1      -8.846  17.724  67.421  1.00  0.00    -0.240 A  
HETATM   14  C   UNL     1      -9.359  20.001  66.788  1.00  0.00    -0.510 A  
ENDBRANCH   2   4
BRANCH   2  15
HETATM   15  C   UNL     1      -7.363  15.072  69.949  1.00  0.00    -0.060 C  
BRANCH  15  16
HETATM   16  N   UNL     1      -7.304  13.814  69.184  1.00  0.00    -0.287 NA 
HETATM   17  H   UNL     1      -7.226  12.997  69.790  1.00  0.00     0.000 HD 
BRANCH  16  18
HETATM   18  C   UNL     1      -8.471  13.736  68.287  1.00  0.00    -0.173 C  
BRANCH  18  19
HETATM   19  C   UNL     1      -8.752  12.283  67.855  1.00  0.00    -0.177 C  
HETATM   20  H   UNL     1      -7.816  10.561  67.987  1.00  0.00     0.000 HD 
HETATM   21  O   UNL     1      -7.642  11.457  68.253  1.00  0.00    -0.099 OA 
BRANCH  19  22
HETATM   22  C   UNL     1     -10.054  11.719  68.472  1.00  0.00    -0.207 C  
HETATM   23  C   UNL     1     -12.260  12.213  69.493  1.00  0.00    -0.169 C  
HETATM   24  C   UNL     1     -10.961  12.829  69.004  1.00  0.00    -0.241 C  
HETATM   25  C   UNL     1     -11.966  11.033  70.371  1.00  0.00    -0.459 A  
HETATM   26  C   UNL     1     -10.722  10.390  70.326  1.00  0.00    -0.187 A  
HETATM   27  O   UNL     1      -9.689  10.795  69.520  1.00  0.00    -0.133 OA 
HETATM   28  C   UNL     1     -10.459   9.300  71.160  1.00  0.00    -0.401 A  
HETATM   29  C   UNL     1     -11.444   8.832  72.030  1.00  0.00    -0.441 A  
HETATM   30  C   UNL     1     -12.682   9.461  72.061  1.00  0.00    -0.403 A  
HETATM   31  F   UNL     1     -13.630   9.015  72.896  1.00  0.00    -0.476 F  
HETATM   32  C   UNL     1     -12.954  10.551  71.241  1.00  0.00    -0.532 A  
ENDBRANCH  19  22
ENDBRANCH  18  19
ENDBRANCH  16  18
ENDBRANCH  15  16
ENDBRANCH   2  15
TORSDOF 6
ENDMDL
MODEL      178
REMARK 921   NORMALIZED FREE ENERGY PREDICTED BY IDOCK:   -5.50 KCAL/MOL
REMARK 922        TOTAL FREE ENERGY PREDICTED BY IDOCK:   -8.61 KCAL/MOL
REMARK 923 INTER-LIGAND FREE ENERGY PREDICTED BY IDOCK:   -6.61 KCAL/MOL
REMARK 924 INTRA-LIGAND FREE ENERGY PREDICTED BY IDOCK:   -2.01 KCAL/MOL
REMARK 927      BINDING AFFINITY PREDICTED BY RF-SCORE:    0.00 PKD
ROOT
HETATM    1  O   UNL     1      -9.322   2.258  71.913  1.00  0.00    -0.085 OA 
HETATM    2  C   UNL     1      -9.167   3.679  72.040  1.00  0.00    -0.114 C  
HETATM    3  H   UNL     1     -10.012   2.067  71.289  1.00  0.00     0.000 HD 
ENDROOT
BRANCH   2   4
HETATM    4  C   UNL     1      -8.900   4.301  70.650  1.00  0.00    -0.088 C  
HETATM    5  C   UNL     1      -9.729   7.504  66.919  1.00  0.00    -0.209 A  
HETATM    6  C   UNL     1     -10.970   7.215  67.471  1.00  0.00    -0.261 A  
HETATM    7  C   UNL     1      -7.623   5.147  70.620  1.00  0.00    -0.071 C  
HETATM    8  C   UNL     1      -7.370   5.604  69.194  1.00  0.00    -0.078 C  
HETATM    9  F   UNL     1      -9.653   8.299  65.842  1.00  0.00    -0.256 F  
HETATM   10  C   UNL     1     -11.044   6.389  68.595  1.00  0.00    -0.393 A  
HETATM   11  O   UNL     1     -10.049   5.077  70.264  1.00  0.00    -0.235 OA 
HETATM   12  C   UNL     1      -8.630   6.162  68.600  1.00  0.00    -0.113 A  
HETATM   13  C   UNL     1      -9.881   5.856  69.151  1.00  0.00    -0.156 A  
HETATM   14  C   UNL     1      -8.561   6.985  67.467  1.00  0.00    -0.121 A  
ENDBRANCH   2   4
BRANCH   2  15
HETATM   15  C   UNL     1      -8.046   3.989  73.053  1.00  0.00    -0.089 C  
BRANCH  15  16
HETATM   16  N   UNL     1      -8.243   5.288  73.720  1.00  0.00    -0.112 NA 
HETATM   17  H   UNL     1      -7.722   6.039  73.267  1.00  0.00     0.000 HD 
BRANCH  16  18
HETATM   18  C   UNL     1      -9.686   5.577  73.801  1.00  0.00    -0.155 C  
BRANCH  18  19
HETATM   19  C   UNL     1      -9.952   7.095  73.865  1.00  0.00    -0.318 C  
HETATM   20  H   UNL     1      -9.019   8.666  74.585  1.00  0.00     0.000 HD 
HETATM   21  O   UNL     1      -8.855   7.731  74.546  1.00  0.00    -0.144 OA 
BRANCH  19  22
HETATM   22  C   UNL     1     -10.119   7.730  72.464  1.00  0.00    -0.242 C  
HETATM   23  C   UNL     1      -9.065   9.001  70.614  1.00  0.00    -0.280 C  
HETATM   24  C   UNL     1      -8.871   8.501  72.035  1.00  0.00    -0.286 C  
HETATM   25  C   UNL     1     -10.405   9.661  70.484  1.00  0.00    -0.359 A  
HETATM   26  C   UNL     1     -11.428   9.410  71.410  1.00  0.00    -0.379 A  
HETATM   27  O   UNL     1     -11.280   8.589  72.497  1.00  0.00    -0.357 OA 
HETATM   28  C   UNL     1     -12.667  10.043  71.283  1.00  0.00    -0.500 A  
HETATM   29  C   UNL     1     -12.901  10.913  70.218  1.00  0.00    -0.209 A  
HETATM   30  C   UNL     1     -11.892  11.147  69.293  1.00  0.00    -0.352 A  
HETATM   31  F   UNL     1     -12.113  11.985  68.270  1.00  0.00    -0.377 F  
HETATM   32  C   UNL     1     -10.652  10.530  69.413  1.00  0.00    -0.269 A  
ENDBRANCH  19  22
ENDBRANCH  18  19
ENDBRANCH  16  18
ENDBRANCH  15  16
ENDBRANCH   2  15
TORSDOF 6
ENDMDL
MODEL      179
REMARK 921   NORMALIZED FREE ENERGY PREDICTED BY IDOCK:   -5.50 KCAL/MOL
REMARK 922        TOTAL FREE ENERGY PREDICTED BY IDOCK:   -8.61 KCAL/MOL
REMARK 923 INTER-LIGAND FREE ENERGY PREDICTED BY IDOCK:   -8.10 KCAL/MOL
REMARK 924 INTRA-LIGAND FREE ENERGY PREDICTED BY IDOCK:   -0.51 KCAL/MOL
REMARK 927      BINDING AFFINITY PREDICTED BY RF-SCORE:    0.00 PKD
ROOT
HETATM    1  O   UNL     1     -11.200  16.920  64.123  1.00  0.00    -1.386 OA 
HETATM    2  C   UNL     1     -11.233  16.179  65.352  1.00  0.00    -0.006 C  
HETATM    3  H   UNL     1     -11.302  17.846  64.307  1.00  0.00     0.000 HD 
ENDROOT
BRANCH   2   4
HETATM    4  C   UNL     1     -10.148  16.717  66.314  1.00  0.00    -0.328 C  
HETATM    5  C   UNL     1      -7.051  20.183  68.119  1.00  0.00    -0.275 A  
HETATM    6  C   UNL     1      -7.116  20.391  66.748  1.00  0.00    -0.319 A  
HETATM    7  C   UNL     1     -10.689  16.974  67.724  1.00  0.00    -0.318 C  
HETATM    8  C   UNL     1      -9.534  17.368  68.628  1.00  0.00    -0.280 C  
HETATM    9  F   UNL     1      -6.232  20.938  68.865  1.00  0.00    -0.362 F  
HETATM   10  C   UNL     1      -7.974  19.604  65.975  1.00  0.00    -0.337 A  
HETATM   11  O   UNL     1      -9.580  17.911  65.747  1.00  0.00    -0.514 OA 
HETATM   12  C   UNL     1      -8.696  18.420  67.965  1.00  0.00    -0.302 A  
HETATM   13  C   UNL     1      -8.752  18.617  66.579  1.00  0.00    -0.304 A  
HETATM   14  C   UNL     1      -7.827  19.206  68.735  1.00  0.00    -0.383 A  
ENDBRANCH   2   4
BRANCH   2  15
HETATM   15  C   UNL     1     -11.067  14.675  65.054  1.00  0.00    -0.394 C  
BRANCH  15  16
HETATM   16  N   UNL     1     -11.822  13.835  66.000  1.00  0.00    -0.370 NA 
HETATM   17  H   UNL     1     -12.828  13.879  65.840  1.00  0.00     0.000 HD 
BRANCH  16  18
HETATM   18  C   UNL     1     -11.305  12.455  65.943  1.00  0.00    -0.356 C  
BRANCH  18  19
HETATM   19  C   UNL     1     -10.265  12.198  67.051  1.00  0.00    -0.207 C  
HETATM   20  H   UNL     1     -10.268  12.165  69.015  1.00  0.00     0.000 HD 
HETATM   21  O   UNL     1     -10.910  12.324  68.332  1.00  0.00    -0.210 OA 
BRANCH  19  22
HETATM   22  C   UNL     1      -9.613  10.800  66.944  1.00  0.00    -0.171 C  
HETATM   23  C   UNL     1      -9.940   8.341  66.979  1.00  0.00    -0.325 C  
HETATM   24  C   UNL     1     -10.620   9.679  67.208  1.00  0.00    -0.315 C  
HETATM   25  C   UNL     1      -8.619   8.312  67.689  1.00  0.00    -0.130 A  
HETATM   26  C   UNL     1      -7.981   9.497  68.079  1.00  0.00    -0.091 A  
HETATM   27  O   UNL     1      -8.513  10.745  67.877  1.00  0.00    -0.118 OA 
HETATM   28  C   UNL     1      -6.757   9.453  68.751  1.00  0.00    -0.052 A  
HETATM   29  C   UNL     1      -6.152   8.226  69.020  1.00  0.00    -0.043 A  
HETATM   30  C   UNL     1      -6.778   7.053  68.618  1.00  0.00    -0.063 A  
HETATM   31  F   UNL     1      -6.200   5.872  68.877  1.00  0.00    -0.028 F  
HETATM   32  C   UNL     1      -7.999   7.083  67.955  1.00  0.00    -0.115 A  
ENDBRANCH  19  22
ENDBRANCH  18  19
ENDBRANCH  16  18
ENDBRANCH  15  16
ENDBRANCH   2  15
TORSDOF 6
ENDMDL
MODEL      180
REMARK 921   NORMALIZED FREE ENERGY PREDICTED BY IDOCK:   -5.49 KCAL/MOL
REMARK 922        TOTAL FREE ENERGY PREDICTED BY IDOCK:   -8.61 KCAL/MOL
REMARK 923 INTER-LIGAND FREE ENERGY PREDICTED BY IDOCK:   -8.04 KCAL/MOL
REMARK 924 INTRA-LIGAND FREE ENERGY PREDICTED BY IDOCK:   -0.57 KCAL/MOL
REMARK 927      BINDING AFFINITY PREDICTED BY RF-SCORE:    0.00 PKD
ROOT
HETATM    1  O   UNL     1     -13.410  10.480  69.745  1.00  0.00    -0.432 OA 
HETATM    2  C   UNL     1     -12.193  11.154  70.096  1.00  0.00    -0.337 C  
HETATM    3  H   UNL     1     -13.209   9.701  69.241  1.00  0.00     0.000 HD 
ENDROOT
BRANCH   2   4
HETATM    4  C   UNL     1     -11.257  10.183  70.851  1.00  0.00    -0.307 C  
HETATM    5  C   UNL     1      -9.689   5.690  72.343  1.00  0.00    -0.156 A  
HETATM    6  C   UNL     1     -11.074   5.621  72.278  1.00  0.00    -0.318 A  
HETATM    7  C   UNL     1      -9.886  10.046  70.180  1.00  0.00    -0.205 C  
HETATM    8  C   UNL     1      -8.994   9.185  71.057  1.00  0.00    -0.281 C  
HETATM    9  F   UNL     1      -8.993   4.632  72.783  1.00  0.00    -0.116 F  
HETATM   10  C   UNL     1     -11.795   6.724  71.814  1.00  0.00    -0.371 A  
HETATM   11  O   UNL     1     -11.912   8.906  70.965  1.00  0.00    -0.290 OA 
HETATM   12  C   UNL     1      -9.727   7.946  71.480  1.00  0.00    -0.201 A  
HETATM   13  C   UNL     1     -11.125   7.885  71.428  1.00  0.00    -0.243 A  
HETATM   14  C   UNL     1      -9.009   6.839  71.953  1.00  0.00    -0.135 A  
ENDBRANCH   2   4
BRANCH   2  15
HETATM   15  C   UNL     1     -12.520  12.419  70.915  1.00  0.00    -0.274 C  
BRANCH  15  16
HETATM   16  N   UNL     1     -11.552  13.504  70.671  1.00  0.00    -0.482 NA 
HETATM   17  H   UNL     1     -10.629  13.292  71.050  1.00  0.00     0.000 HD 
BRANCH  16  18
HETATM   18  C   UNL     1     -11.511  13.802  69.229  1.00  0.00    -0.293 C  
BRANCH  18  19
HETATM   19  C   UNL     1     -10.092  14.202  68.778  1.00  0.00    -0.198 C  
HETATM   20  H   UNL     1      -9.061  14.117  67.108  1.00  0.00     0.000 HD 
HETATM   21  O   UNL     1      -9.935  13.870  67.386  1.00  0.00    -0.235 OA 
BRANCH  19  22
HETATM   22  C   UNL     1      -9.807  15.710  68.977  1.00  0.00    -0.236 C  
HETATM   23  C   UNL     1     -10.354  18.038  68.319  1.00  0.00    -0.389 C  
HETATM   24  C   UNL     1     -10.598  16.575  67.995  1.00  0.00    -0.328 C  
HETATM   25  C   UNL     1      -8.884  18.286  68.482  1.00  0.00    -0.322 A  
HETATM   26  C   UNL     1      -7.997  17.232  68.740  1.00  0.00    -0.250 A  
HETATM   27  O   UNL     1      -8.386  15.920  68.831  1.00  0.00    -0.194 OA 
HETATM   28  C   UNL     1      -6.628  17.477  68.876  1.00  0.00    -0.226 A  
HETATM   29  C   UNL     1      -6.138  18.779  68.776  1.00  0.00    -0.236 A  
HETATM   30  C   UNL     1      -7.022  19.824  68.537  1.00  0.00    -0.310 A  
HETATM   31  F   UNL     1      -6.554  21.076  68.439  1.00  0.00    -0.327 F  
HETATM   32  C   UNL     1      -8.385  19.592  68.392  1.00  0.00    -0.346 A  
ENDBRANCH  19  22
ENDBRANCH  18  19
ENDBRANCH  16  18
ENDBRANCH  15  16
ENDBRANCH   2  15
TORSDOF 6
ENDMDL
MODEL      181
REMARK 921   NORMALIZED FREE ENERGY PREDICTED BY IDOCK:   -5.49 KCAL/MOL
REMARK 922        TOTAL FREE ENERGY PREDICTED BY IDOCK:   -8.61 KCAL/MOL
REMARK 923 INTER-LIGAND FREE ENERGY PREDICTED BY IDOCK:   -7.14 KCAL/MOL
REMARK 924 INTRA-LIGAND FREE ENERGY PREDICTED BY IDOCK:   -1.47 KCAL/MOL
REMARK 927      BINDING AFFINITY PREDICTED BY RF-SCORE:    0.00 PKD
ROOT
HETATM    1  O   UNL     1     -10.410  17.319  67.829  1.00  0.00    -0.326 OA 
HETATM    2  C   UNL     1     -10.522  16.129  68.622  1.00  0.00    -0.269 C  
HETATM    3  H   UNL     1      -9.632  17.801  68.086  1.00  0.00     0.000 HD 
ENDROOT
BRANCH   2   4
HETATM    4  C   UNL     1      -9.231  15.289  68.487  1.00  0.00    -0.200 C  
HETATM    5  C   UNL     1      -6.645  11.127  67.557  1.00  0.00    -0.070 A  
HETATM    6  C   UNL     1      -7.835  10.726  68.151  1.00  0.00    -0.112 A  
HETATM    7  C   UNL     1      -8.425  15.646  67.234  1.00  0.00    -0.214 C  
HETATM    8  C   UNL     1      -7.118  14.874  67.254  1.00  0.00    -0.103 C  
HETATM    9  F   UNL     1      -5.715  10.211  67.253  1.00  0.00    -0.044 F  
HETATM   10  C   UNL     1      -8.803  11.684  68.462  1.00  0.00    -0.131 A  
HETATM   11  O   UNL     1      -9.584  13.894  68.500  1.00  0.00    -0.213 OA 
HETATM   12  C   UNL     1      -7.376  13.430  67.569  1.00  0.00    -0.165 A  
HETATM   13  C   UNL     1      -8.570  13.030  68.182  1.00  0.00    -0.188 A  
HETATM   14  C   UNL     1      -6.404  12.466  67.266  1.00  0.00    -0.142 A  
ENDBRANCH   2   4
BRANCH   2  15
HETATM   15  C   UNL     1     -11.784  15.346  68.205  1.00  0.00    -0.297 C  
BRANCH  15  16
HETATM   16  N   UNL     1     -11.720  14.895  66.804  1.00  0.00    -0.293 NA 
HETATM   17  H   UNL     1     -10.764  14.866  66.449  1.00  0.00     0.000 HD 
BRANCH  16  18
HETATM   18  C   UNL     1     -12.402  13.594  66.682  1.00  0.00    -0.331 C  
BRANCH  18  19
HETATM   19  C   UNL     1     -12.403  13.095  65.223  1.00  0.00    -0.481 C  
HETATM   20  H   UNL     1     -12.593  13.914  63.448  1.00  0.00     0.000 HD 
HETATM   21  O   UNL     1     -12.592  14.221  64.346  1.00  0.00    -0.665 OA 
BRANCH  19  22
HETATM   22  C   UNL     1     -11.093  12.367  64.841  1.00  0.00    -0.303 C  
HETATM   23  C   UNL     1      -9.648  11.495  63.024  1.00  0.00    -0.371 C  
HETATM   24  C   UNL     1     -11.000  12.111  63.337  1.00  0.00    -0.480 C  
HETATM   25  C   UNL     1      -9.370  10.365  63.970  1.00  0.00    -0.321 A  
HETATM   26  C   UNL     1     -10.057  10.256  65.187  1.00  0.00    -0.285 A  
HETATM   27  O   UNL     1     -11.034  11.131  65.587  1.00  0.00    -0.195 OA 
HETATM   28  C   UNL     1      -9.797   9.190  66.052  1.00  0.00    -0.342 A  
HETATM   29  C   UNL     1      -8.835   8.238  65.718  1.00  0.00    -0.194 A  
HETATM   30  C   UNL     1      -8.143   8.357  64.519  1.00  0.00    -0.152 A  
HETATM   31  F   UNL     1      -7.219   7.443  64.194  1.00  0.00    -0.063 F  
HETATM   32  C   UNL     1      -8.398   9.409  63.646  1.00  0.00    -0.184 A  
ENDBRANCH  19  22
ENDBRANCH  18  19
ENDBRANCH  16  18
ENDBRANCH  15  16
ENDBRANCH   2  15
TORSDOF 6
ENDMDL
MODEL      182
REMARK 921   NORMALIZED FREE ENERGY PREDICTED BY IDOCK:   -5.48 KCAL/MOL
REMARK 922        TOTAL FREE ENERGY PREDICTED BY IDOCK:   -8.59 KCAL/MOL
REMARK 923 INTER-LIGAND FREE ENERGY PREDICTED BY IDOCK:   -7.87 KCAL/MOL
REMARK 924 INTRA-LIGAND FREE ENERGY PREDICTED BY IDOCK:   -0.72 KCAL/MOL
REMARK 927      BINDING AFFINITY PREDICTED BY RF-SCORE:    0.00 PKD
ROOT
HETATM    1  O   UNL     1     -11.137  10.515  66.835  1.00  0.00    -0.196 OA 
HETATM    2  C   UNL     1      -9.979   9.679  66.703  1.00  0.00    -0.236 C  
HETATM    3  H   UNL     1     -11.922   9.980  66.804  1.00  0.00     0.000 HD 
ENDROOT
BRANCH   2   4
HETATM    4  C   UNL     1      -9.996   8.586  67.796  1.00  0.00    -0.190 C  
HETATM    5  C   UNL     1     -11.344   6.623  72.178  1.00  0.00    -0.274 A  
HETATM    6  C   UNL     1     -11.231   7.992  72.379  1.00  0.00    -0.432 A  
HETATM    7  C   UNL     1     -10.831   7.366  67.395  1.00  0.00    -0.299 C  
HETATM    8  C   UNL     1     -10.682   6.296  68.462  1.00  0.00    -0.354 C  
HETATM    9  F   UNL     1     -11.634   5.824  73.214  1.00  0.00    -0.243 F  
HETATM   10  C   UNL     1     -10.931   8.822  71.296  1.00  0.00    -0.345 A  
HETATM   11  O   UNL     1     -10.476   9.167  69.022  1.00  0.00    -0.218 OA 
HETATM   12  C   UNL     1     -10.873   6.896  69.824  1.00  0.00    -0.295 A  
HETATM   13  C   UNL     1     -10.742   8.276  70.027  1.00  0.00    -0.239 A  
HETATM   14  C   UNL     1     -11.165   6.067  70.916  1.00  0.00    -0.335 A  
ENDBRANCH   2   4
BRANCH   2  15
HETATM   15  C   UNL     1      -8.705  10.548  66.753  1.00  0.00    -0.132 C  
BRANCH  15  16
HETATM   16  N   UNL     1      -8.769  11.565  67.818  1.00  0.00    -0.138 NA 
HETATM   17  H   UNL     1      -8.046  11.431  68.525  1.00  0.00     0.000 HD 
BRANCH  16  18
HETATM   18  C   UNL     1      -8.716  12.907  67.210  1.00  0.00    -0.204 C  
BRANCH  18  19
HETATM   19  C   UNL     1      -7.757  13.836  67.981  1.00  0.00    -0.152 C  
HETATM   20  H   UNL     1      -5.957  14.566  67.693  1.00  0.00     0.000 HD 
HETATM   21  O   UNL     1      -6.547  13.994  67.217  1.00  0.00    -0.266 OA 
BRANCH  19  22
HETATM   22  C   UNL     1      -8.371  15.228  68.257  1.00  0.00    -0.148 C  
HETATM   23  C   UNL     1     -10.426  16.555  68.666  1.00  0.00    -0.304 C  
HETATM   24  C   UNL     1      -9.899  15.184  68.283  1.00  0.00    -0.223 C  
HETATM   25  C   UNL     1      -9.746  17.610  67.845  1.00  0.00    -0.295 A  
HETATM   26  C   UNL     1      -8.527  17.352  67.202  1.00  0.00    -0.211 A  
HETATM   27  O   UNL     1      -7.892  16.138  67.243  1.00  0.00    -0.147 OA 
HETATM   28  C   UNL     1      -7.912  18.341  66.430  1.00  0.00    -0.290 A  
HETATM   29  C   UNL     1      -8.498  19.601  66.312  1.00  0.00    -0.383 A  
HETATM   30  C   UNL     1      -9.697  19.860  66.964  1.00  0.00    -0.401 A  
HETATM   31  F   UNL     1     -10.264  21.069  66.852  1.00  0.00    -0.430 F  
HETATM   32  C   UNL     1     -10.323  18.882  67.729  1.00  0.00    -0.490 A  
ENDBRANCH  19  22
ENDBRANCH  18  19
ENDBRANCH  16  18
ENDBRANCH  15  16
ENDBRANCH   2  15
TORSDOF 6
ENDMDL
MODEL      183
REMARK 921   NORMALIZED FREE ENERGY PREDICTED BY IDOCK:   -5.45 KCAL/MOL
REMARK 922        TOTAL FREE ENERGY PREDICTED BY IDOCK:   -8.55 KCAL/MOL
REMARK 923 INTER-LIGAND FREE ENERGY PREDICTED BY IDOCK:   -7.39 KCAL/MOL
REMARK 924 INTRA-LIGAND FREE ENERGY PREDICTED BY IDOCK:   -1.16 KCAL/MOL
REMARK 927      BINDING AFFINITY PREDICTED BY RF-SCORE:    0.00 PKD
ROOT
HETATM    1  O   UNL     1     -13.624  12.084  72.442  1.00  0.00    -0.587 OA 
HETATM    2  C   UNL     1     -12.658  11.453  71.589  1.00  0.00    -0.233 C  
HETATM    3  H   UNL     1     -13.219  12.813  72.897  1.00  0.00     0.000 HD 
ENDROOT
BRANCH   2   4
HETATM    4  C   UNL     1     -12.057  12.498  70.620  1.00  0.00    -0.221 C  
HETATM    5  C   UNL     1     -11.108  14.453  66.132  1.00  0.00    -0.330 A  
HETATM    6  C   UNL     1     -11.103  13.074  65.968  1.00  0.00    -0.301 A  
HETATM    7  C   UNL     1     -12.813  13.830  70.648  1.00  0.00    -0.262 C  
HETATM    8  C   UNL     1     -12.077  14.831  69.775  1.00  0.00    -0.364 C  
HETATM    9  F   UNL     1     -10.814  15.244  65.090  1.00  0.00    -0.322 F  
HETATM   10  C   UNL     1     -11.413  12.254  67.056  1.00  0.00    -0.419 A  
HETATM   11  O   UNL     1     -12.034  11.938  69.295  1.00  0.00    -0.305 OA 
HETATM   12  C   UNL     1     -11.739  14.210  68.451  1.00  0.00    -0.380 A  
HETATM   13  C   UNL     1     -11.719  12.818  68.294  1.00  0.00    -0.344 A  
HETATM   14  C   UNL     1     -11.419  15.029  67.360  1.00  0.00    -0.326 A  
ENDBRANCH   2   4
BRANCH   2  15
HETATM   15  C   UNL     1     -13.316  10.270  70.850  1.00  0.00    -0.174 C  
BRANCH  15  16
HETATM   16  N   UNL     1     -12.385   9.142  70.669  1.00  0.00    -0.490 NA 
HETATM   17  H   UNL     1     -11.792   9.257  69.847  1.00  0.00     0.000 HD 
BRANCH  16  18
HETATM   18  C   UNL     1     -11.600   8.958  71.903  1.00  0.00    -0.371 C  
BRANCH  18  19
HETATM   19  C   UNL     1     -10.099   8.787  71.595  1.00  0.00    -0.319 C  
HETATM   20  H   UNL     1      -8.889   7.279  71.249  1.00  0.00     0.000 HD 
HETATM   21  O   UNL     1      -9.813   7.384  71.439  1.00  0.00    -0.184 OA 
BRANCH  19  22
HETATM   22  C   UNL     1      -9.664   9.540  70.316  1.00  0.00    -0.263 C  
HETATM   23  C   UNL     1      -9.643   9.596  67.836  1.00  0.00    -0.159 C  
HETATM   24  C   UNL     1      -9.996   8.753  69.048  1.00  0.00    -0.197 C  
HETATM   25  C   UNL     1      -8.265  10.166  67.995  1.00  0.00    -0.113 A  
HETATM   26  C   UNL     1      -7.659  10.252  69.257  1.00  0.00    -0.125 A  
HETATM   27  O   UNL     1      -8.248   9.805  70.411  1.00  0.00    -0.187 OA 
HETATM   28  C   UNL     1      -6.369  10.773  69.387  1.00  0.00    -0.068 A  
HETATM   29  C   UNL     1      -5.684  11.231  68.263  1.00  0.00    -0.045 A  
HETATM   30  C   UNL     1      -6.293  11.161  67.016  1.00  0.00    -0.097 A  
HETATM   31  F   UNL     1      -5.636  11.599  65.933  1.00  0.00    -0.088 F  
HETATM   32  C   UNL     1      -7.573  10.638  66.872  1.00  0.00    -0.115 A  
ENDBRANCH  19  22
ENDBRANCH  18  19
ENDBRANCH  16  18
ENDBRANCH  15  16
ENDBRANCH   2  15
TORSDOF 6
ENDMDL
MODEL      184
REMARK 921   NORMALIZED FREE ENERGY PREDICTED BY IDOCK:   -5.44 KCAL/MOL
REMARK 922        TOTAL FREE ENERGY PREDICTED BY IDOCK:   -8.54 KCAL/MOL
REMARK 923 INTER-LIGAND FREE ENERGY PREDICTED BY IDOCK:   -8.66 KCAL/MOL
REMARK 924 INTRA-LIGAND FREE ENERGY PREDICTED BY IDOCK:    0.12 KCAL/MOL
REMARK 927      BINDING AFFINITY PREDICTED BY RF-SCORE:    0.00 PKD
ROOT
HETATM    1  O   UNL     1     -12.332  10.991  68.334  1.00  0.00    -0.762 OA 
HETATM    2  C   UNL     1     -10.971  10.595  68.110  1.00  0.00    -0.269 C  
HETATM    3  H   UNL     1     -12.882  10.220  68.395  1.00  0.00     0.000 HD 
ENDROOT
BRANCH   2   4
HETATM    4  C   UNL     1     -10.518   9.628  69.229  1.00  0.00    -0.217 C  
HETATM    5  C   UNL     1      -7.482   8.047  72.855  1.00  0.00    -0.119 A  
HETATM    6  C   UNL     1      -6.672   8.638  71.895  1.00  0.00    -0.078 A  
HETATM    7  C   UNL     1     -11.384   9.738  70.488  1.00  0.00    -0.382 C  
HETATM    8  C   UNL     1     -10.955   8.667  71.474  1.00  0.00    -0.360 C  
HETATM    9  F   UNL     1      -6.923   7.469  73.928  1.00  0.00    -0.080 F  
HETATM   10  C   UNL     1      -7.259   9.243  70.780  1.00  0.00    -0.126 A  
HETATM   11  O   UNL     1      -9.133   9.881  69.524  1.00  0.00    -0.194 OA 
HETATM   12  C   UNL     1      -9.461   8.662  71.613  1.00  0.00    -0.339 A  
HETATM   13  C   UNL     1      -8.646   9.245  70.635  1.00  0.00    -0.225 A  
HETATM   14  C   UNL     1      -8.867   8.049  72.725  1.00  0.00    -0.277 A  
ENDBRANCH   2   4
BRANCH   2  15
HETATM   15  C   UNL     1     -10.077  11.847  68.012  1.00  0.00    -0.195 C  
BRANCH  15  16
HETATM   16  N   UNL     1     -10.851  13.058  67.683  1.00  0.00    -0.236 NA 
HETATM   17  H   UNL     1     -11.451  12.924  66.869  1.00  0.00     0.000 HD 
BRANCH  16  18
HETATM   18  C   UNL     1     -11.607  13.488  68.872  1.00  0.00    -0.323 C  
BRANCH  18  19
HETATM   19  C   UNL     1     -11.977  14.983  68.793  1.00  0.00    -0.249 C  
HETATM   20  H   UNL     1     -12.632  16.347  70.046  1.00  0.00     0.000 HD 
HETATM   21  O   UNL     1     -12.404  15.426  70.095  1.00  0.00    -0.356 OA 
BRANCH  19  22
HETATM   22  C   UNL     1     -10.797  15.864  68.318  1.00  0.00    -0.315 C  
HETATM   23  C   UNL     1      -8.487  16.658  68.744  1.00  0.00    -0.255 C  
HETATM   24  C   UNL     1      -9.646  15.867  69.323  1.00  0.00    -0.266 C  
HETATM   25  C   UNL     1      -8.982  17.967  68.205  1.00  0.00    -0.287 A  
HETATM   26  C   UNL     1     -10.336  18.157  67.899  1.00  0.00    -0.396 A  
HETATM   27  O   UNL     1     -11.298  17.199  68.092  1.00  0.00    -0.121 OA 
HETATM   28  C   UNL     1     -10.785  19.387  67.410  1.00  0.00    -0.594 A  
HETATM   29  C   UNL     1      -9.881  20.428  67.203  1.00  0.00    -0.601 A  
HETATM   30  C   UNL     1      -8.536  20.232  67.491  1.00  0.00    -0.311 A  
HETATM   31  F   UNL     1      -7.664  21.231  67.295  1.00  0.00    -0.397 F  
HETATM   32  C   UNL     1      -8.078  19.016  67.985  1.00  0.00    -0.328 A  
ENDBRANCH  19  22
ENDBRANCH  18  19
ENDBRANCH  16  18
ENDBRANCH  15  16
ENDBRANCH   2  15
TORSDOF 6
ENDMDL
MODEL      185
REMARK 921   NORMALIZED FREE ENERGY PREDICTED BY IDOCK:   -5.44 KCAL/MOL
REMARK 922        TOTAL FREE ENERGY PREDICTED BY IDOCK:   -8.53 KCAL/MOL
REMARK 923 INTER-LIGAND FREE ENERGY PREDICTED BY IDOCK:   -6.39 KCAL/MOL
REMARK 924 INTRA-LIGAND FREE ENERGY PREDICTED BY IDOCK:   -2.14 KCAL/MOL
REMARK 927      BINDING AFFINITY PREDICTED BY RF-SCORE:    0.00 PKD
ROOT
HETATM    1  O   UNL     1     -10.764  12.420  69.721  1.00  0.00    -0.316 OA 
HETATM    2  C   UNL     1     -11.807  11.533  69.292  1.00  0.00    -0.348 C  
HETATM    3  H   UNL     1     -10.857  12.596  70.649  1.00  0.00     0.000 HD 
ENDROOT
BRANCH   2   4
HETATM    4  C   UNL     1     -11.781  10.245  70.147  1.00  0.00    -0.284 C  
HETATM    5  C   UNL     1      -9.908   7.169  73.597  1.00  0.00    -0.300 A  
HETATM    6  C   UNL     1      -8.822   7.773  72.978  1.00  0.00    -0.247 A  
HETATM    7  C   UNL     1     -12.856  10.241  71.238  1.00  0.00    -0.522 C  
HETATM    8  C   UNL     1     -12.844   8.892  71.934  1.00  0.00    -0.437 C  
HETATM    9  F   UNL     1      -9.700   6.234  74.534  1.00  0.00    -0.180 F  
HETATM   10  C   UNL     1      -9.043   8.750  72.004  1.00  0.00    -0.259 A  
HETATM   11  O   UNL     1     -10.465  10.091  70.709  1.00  0.00    -0.257 OA 
HETATM   12  C   UNL     1     -11.439   8.509  72.293  1.00  0.00    -0.445 A  
HETATM   13  C   UNL     1     -10.345   9.108  71.656  1.00  0.00    -0.318 A  
HETATM   14  C   UNL     1     -11.211   7.523  73.263  1.00  0.00    -0.201 A  
ENDBRANCH   2   4
BRANCH   2  15
HETATM   15  C   UNL     1     -11.655  11.246  67.784  1.00  0.00    -0.230 C  
BRANCH  15  16
HETATM   16  N   UNL     1     -11.069   9.919  67.527  1.00  0.00    -0.401 NA 
HETATM   17  H   UNL     1     -11.779   9.214  67.331  1.00  0.00     0.000 HD 
BRANCH  16  18
HETATM   18  C   UNL     1     -10.075  10.030  66.444  1.00  0.00    -0.241 C  
BRANCH  18  19
HETATM   19  C   UNL     1      -8.653  10.236  67.005  1.00  0.00    -0.129 C  
HETATM   20  H   UNL     1      -7.686  11.686  67.909  1.00  0.00     0.000 HD 
HETATM   21  O   UNL     1      -8.561  11.559  67.564  1.00  0.00    -0.136 OA 
BRANCH  19  22
HETATM   22  C   UNL     1      -8.285   9.198  68.091  1.00  0.00    -0.116 C  
HETATM   23  C   UNL     1      -6.493   7.888  69.199  1.00  0.00    -0.036 C  
HETATM   24  C   UNL     1      -6.804   8.822  68.042  1.00  0.00    -0.070 C  
HETATM   25  C   UNL     1      -7.518   6.794  69.260  1.00  0.00    -0.095 A  
HETATM   26  C   UNL     1      -8.763   6.934  68.634  1.00  0.00    -0.122 A  
HETATM   27  O   UNL     1      -9.126   8.038  67.906  1.00  0.00    -0.132 OA 
HETATM   28  C   UNL     1      -9.702   5.901  68.688  1.00  0.00    -0.155 A  
HETATM   29  C   UNL     1      -9.412   4.729  69.388  1.00  0.00    -0.229 A  
HETATM   30  C   UNL     1      -8.183   4.600  70.023  1.00  0.00    -0.067 A  
HETATM   31  F   UNL     1      -7.900   3.475  70.694  1.00  0.00    -0.045 F  
HETATM   32  C   UNL     1      -7.238   5.618  69.969  1.00  0.00    -0.068 A  
ENDBRANCH  19  22
ENDBRANCH  18  19
ENDBRANCH  16  18
ENDBRANCH  15  16
ENDBRANCH   2  15
TORSDOF 6
ENDMDL
MODEL      186
REMARK 921   NORMALIZED FREE ENERGY PREDICTED BY IDOCK:   -5.43 KCAL/MOL
REMARK 922        TOTAL FREE ENERGY PREDICTED BY IDOCK:   -8.53 KCAL/MOL
REMARK 923 INTER-LIGAND FREE ENERGY PREDICTED BY IDOCK:   -8.06 KCAL/MOL
REMARK 924 INTRA-LIGAND FREE ENERGY PREDICTED BY IDOCK:   -0.47 KCAL/MOL
REMARK 927      BINDING AFFINITY PREDICTED BY RF-SCORE:    0.00 PKD
ROOT
HETATM    1  O   UNL     1     -10.269   9.391  71.446  1.00  0.00    -0.316 OA 
HETATM    2  C   UNL     1     -11.084   9.087  70.305  1.00  0.00    -0.235 C  
HETATM    3  H   UNL     1     -10.513   8.829  72.171  1.00  0.00     0.000 HD 
ENDROOT
BRANCH   2   4
HETATM    4  C   UNL     1     -10.960   7.585  69.960  1.00  0.00    -0.240 C  
HETATM    5  C   UNL     1      -9.738   3.720  67.056  1.00  0.00    -0.109 A  
HETATM    6  C   UNL     1     -10.165   4.731  66.205  1.00  0.00    -0.313 A  
HETATM    7  C   UNL     1      -9.842   6.892  70.745  1.00  0.00    -0.190 C  
HETATM    8  C   UNL     1      -9.881   5.404  70.446  1.00  0.00    -0.270 C  
HETATM    9  F   UNL     1      -9.405   2.525  66.548  1.00  0.00    -0.151 F  
HETATM   10  C   UNL     1     -10.508   5.976  66.737  1.00  0.00    -0.329 A  
HETATM   11  O   UNL     1     -10.760   7.452  68.541  1.00  0.00    -0.182 OA 
HETATM   12  C   UNL     1      -9.982   5.178  68.967  1.00  0.00    -0.265 A  
HETATM   13  C   UNL     1     -10.427   6.195  68.113  1.00  0.00    -0.230 A  
HETATM   14  C   UNL     1      -9.647   3.928  68.428  1.00  0.00    -0.179 A  
ENDBRANCH   2   4
BRANCH   2  15
HETATM   15  C   UNL     1     -10.687  10.000  69.127  1.00  0.00    -0.220 C  
BRANCH  15  16
HETATM   16  N   UNL     1     -10.692  11.425  69.502  1.00  0.00    -0.440 NA 
HETATM   17  H   UNL     1     -10.387  11.573  70.464  1.00  0.00     0.000 HD 
BRANCH  16  18
HETATM   18  C   UNL     1      -9.880  12.184  68.535  1.00  0.00    -0.162 C  
BRANCH  18  19
HETATM   19  C   UNL     1     -10.717  13.270  67.828  1.00  0.00    -0.244 C  
HETATM   20  H   UNL     1     -12.620  13.747  67.727  1.00  0.00     0.000 HD 
HETATM   21  O   UNL     1     -12.105  13.078  68.162  1.00  0.00    -0.307 OA 
BRANCH  19  22
HETATM   22  C   UNL     1     -10.291  14.703  68.225  1.00  0.00    -0.230 C  
HETATM   23  C   UNL     1     -10.709  16.675  69.670  1.00  0.00    -0.286 C  
HETATM   24  C   UNL     1     -11.247  15.320  69.247  1.00  0.00    -0.291 C  
HETATM   25  C   UNL     1     -10.328  17.474  68.459  1.00  0.00    -0.380 A  
HETATM   26  C   UNL     1     -10.096  16.850  67.225  1.00  0.00    -0.286 A  
HETATM   27  O   UNL     1     -10.225  15.500  67.023  1.00  0.00    -0.260 OA 
HETATM   28  C   UNL     1      -9.755  17.609  66.103  1.00  0.00    -0.228 A  
HETATM   29  C   UNL     1      -9.623  18.993  66.209  1.00  0.00    -0.367 A  
HETATM   30  C   UNL     1      -9.837  19.607  67.437  1.00  0.00    -0.368 A  
HETATM   31  F   UNL     1      -9.713  20.937  67.542  1.00  0.00    -0.578 F  
HETATM   32  C   UNL     1     -10.184  18.864  68.559  1.00  0.00    -0.407 A  
ENDBRANCH  19  22
ENDBRANCH  18  19
ENDBRANCH  16  18
ENDBRANCH  15  16
ENDBRANCH   2  15
TORSDOF 6
ENDMDL
MODEL      187
REMARK 921   NORMALIZED FREE ENERGY PREDICTED BY IDOCK:   -5.43 KCAL/MOL
REMARK 922        TOTAL FREE ENERGY PREDICTED BY IDOCK:   -8.52 KCAL/MOL
REMARK 923 INTER-LIGAND FREE ENERGY PREDICTED BY IDOCK:   -7.92 KCAL/MOL
REMARK 924 INTRA-LIGAND FREE ENERGY PREDICTED BY IDOCK:   -0.60 KCAL/MOL
REMARK 927      BINDING AFFINITY PREDICTED BY RF-SCORE:    0.00 PKD
ROOT
HETATM    1  O   UNL     1      -9.743   9.338  65.405  1.00  0.00    -0.428 OA 
HETATM    2  C   UNL     1      -9.285   9.691  66.718  1.00  0.00    -0.149 C  
HETATM    3  H   UNL     1      -9.345   8.518  65.138  1.00  0.00     0.000 HD 
ENDROOT
BRANCH   2   4
HETATM    4  C   UNL     1      -9.583   8.537  67.703  1.00  0.00    -0.153 C  
HETATM    5  C   UNL     1      -9.500   3.793  69.235  1.00  0.00    -0.182 A  
HETATM    6  C   UNL     1      -9.636   3.756  67.854  1.00  0.00    -0.187 A  
HETATM    7  C   UNL     1      -8.695   8.584  68.950  1.00  0.00    -0.131 C  
HETATM    8  C   UNL     1      -9.147   7.502  69.916  1.00  0.00    -0.144 C  
HETATM    9  F   UNL     1      -9.514   2.647  69.932  1.00  0.00    -0.194 F  
HETATM   10  C   UNL     1      -9.617   4.952  67.132  1.00  0.00    -0.175 A  
HETATM   11  O   UNL     1      -9.438   7.286  67.006  1.00  0.00    -0.142 OA 
HETATM   12  C   UNL     1      -9.317   6.201  69.189  1.00  0.00    -0.132 A  
HETATM   13  C   UNL     1      -9.469   6.169  67.797  1.00  0.00    -0.115 A  
HETATM   14  C   UNL     1      -9.344   4.999  69.910  1.00  0.00    -0.198 A  
ENDBRANCH   2   4
BRANCH   2  15
HETATM   15  C   UNL     1      -9.932  11.022  67.152  1.00  0.00    -0.187 C  
BRANCH  15  16
HETATM   16  N   UNL     1     -11.394  10.907  67.299  1.00  0.00    -0.444 NA 
HETATM   17  H   UNL     1     -11.659  10.400  68.143  1.00  0.00     0.000 HD 
BRANCH  16  18
HETATM   18  C   UNL     1     -11.994  12.252  67.242  1.00  0.00    -0.131 C  
BRANCH  18  19
HETATM   19  C   UNL     1     -11.860  12.867  65.834  1.00  0.00    -0.424 C  
HETATM   20  H   UNL     1     -12.924  12.867  64.183  1.00  0.00     0.000 HD 
HETATM   21  O   UNL     1     -13.007  12.488  65.050  1.00  0.00    -0.779 OA 
BRANCH  19  22
HETATM   22  C   UNL     1     -11.754  14.410  65.866  1.00  0.00    -0.369 C  
HETATM   23  C   UNL     1     -10.945  16.466  64.739  1.00  0.00    -0.246 C  
HETATM   24  C   UNL     1     -10.915  14.949  64.707  1.00  0.00    -0.390 C  
HETATM   25  C   UNL     1     -10.657  16.953  66.129  1.00  0.00    -0.195 A  
HETATM   26  C   UNL     1     -10.810  16.107  67.236  1.00  0.00    -0.235 A  
HETATM   27  O   UNL     1     -11.192  14.794  67.140  1.00  0.00    -0.324 OA 
HETATM   28  C   UNL     1     -10.525  16.571  68.523  1.00  0.00    -0.302 A  
HETATM   29  C   UNL     1     -10.108  17.888  68.715  1.00  0.00    -0.384 A  
HETATM   30  C   UNL     1      -9.974  18.729  67.618  1.00  0.00    -0.345 A  
HETATM   31  F   UNL     1      -9.571  19.994  67.798  1.00  0.00    -0.420 F  
HETATM   32  C   UNL     1     -10.247  18.277  66.331  1.00  0.00    -0.417 A  
ENDBRANCH  19  22
ENDBRANCH  18  19
ENDBRANCH  16  18
ENDBRANCH  15  16
ENDBRANCH   2  15
TORSDOF 6
ENDMDL
MODEL      188
REMARK 921   NORMALIZED FREE ENERGY PREDICTED BY IDOCK:   -5.40 KCAL/MOL
REMARK 922        TOTAL FREE ENERGY PREDICTED BY IDOCK:   -8.48 KCAL/MOL
REMARK 923 INTER-LIGAND FREE ENERGY PREDICTED BY IDOCK:   -7.59 KCAL/MOL
REMARK 924 INTRA-LIGAND FREE ENERGY PREDICTED BY IDOCK:   -0.89 KCAL/MOL
REMARK 927      BINDING AFFINITY PREDICTED BY RF-SCORE:    0.00 PKD
ROOT
HETATM    1  O   UNL     1      -6.874  10.451  64.260  1.00  0.00    -0.283 OA 
HETATM    2  C   UNL     1      -7.915  10.486  65.247  1.00  0.00    -0.112 C  
HETATM    3  H   UNL     1      -6.051  10.221  64.673  1.00  0.00     0.000 HD 
ENDROOT
BRANCH   2   4
HETATM    4  C   UNL     1      -7.980   9.129  65.984  1.00  0.00    -0.103 C  
HETATM    5  C   UNL     1     -10.003   5.777  69.073  1.00  0.00    -0.169 A  
HETATM    6  C   UNL     1     -10.279   7.026  69.614  1.00  0.00    -0.212 A  
HETATM    7  C   UNL     1      -8.355   7.971  65.054  1.00  0.00    -0.121 C  
HETATM    8  C   UNL     1      -8.263   6.668  65.829  1.00  0.00    -0.135 C  
HETATM    9  F   UNL     1     -10.375   4.673  69.735  1.00  0.00    -0.314 F  
HETATM   10  C   UNL     1      -9.892   8.175  68.919  1.00  0.00    -0.178 A  
HETATM   11  O   UNL     1      -8.909   9.242  67.077  1.00  0.00    -0.122 OA 
HETATM   12  C   UNL     1      -8.966   6.802  67.147  1.00  0.00    -0.116 A  
HETATM   13  C   UNL     1      -9.229   8.063  67.697  1.00  0.00    -0.133 A  
HETATM   14  C   UNL     1      -9.349   5.653  67.852  1.00  0.00    -0.112 A  
ENDBRANCH   2   4
BRANCH   2  15
HETATM   15  C   UNL     1      -9.253  10.860  64.576  1.00  0.00    -0.201 C  
BRANCH  15  16
HETATM   16  N   UNL     1      -9.462  12.318  64.530  1.00  0.00    -0.439 NA 
HETATM   17  H   UNL     1      -9.074  12.739  63.686  1.00  0.00     0.000 HD 
BRANCH  16  18
HETATM   18  C   UNL     1     -10.899  12.606  64.690  1.00  0.00    -0.319 C  
BRANCH  18  19
HETATM   19  C   UNL     1     -11.127  13.866  65.550  1.00  0.00    -0.304 C  
HETATM   20  H   UNL     1     -12.529  15.232  65.714  1.00  0.00     0.000 HD 
HETATM   21  O   UNL     1     -12.389  14.456  65.184  1.00  0.00    -0.407 OA 
BRANCH  19  22
HETATM   22  C   UNL     1     -11.128  13.561  67.066  1.00  0.00    -0.296 C  
HETATM   23  C   UNL     1     -11.521  11.887  68.853  1.00  0.00    -0.358 C  
HETATM   24  C   UNL     1     -11.651  12.156  67.365  1.00  0.00    -0.410 C  
HETATM   25  C   UNL     1     -12.070  13.046  69.631  1.00  0.00    -0.304 A  
HETATM   26  C   UNL     1     -12.225  14.306  69.038  1.00  0.00    -0.220 A  
HETATM   27  O   UNL     1     -11.926  14.567  67.726  1.00  0.00    -0.363 OA 
HETATM   28  C   UNL     1     -12.751  15.373  69.771  1.00  0.00    -0.034 A  
HETATM   29  C   UNL     1     -13.105  15.194  71.108  1.00  0.00    -0.515 A  
HETATM   30  C   UNL     1     -12.935  13.948  71.699  1.00  0.00    -0.352 A  
HETATM   31  F   UNL     1     -13.276  13.772  72.983  1.00  0.00    -0.583 F  
HETATM   32  C   UNL     1     -12.420  12.877  70.978  1.00  0.00    -0.374 A  
ENDBRANCH  19  22
ENDBRANCH  18  19
ENDBRANCH  16  18
ENDBRANCH  15  16
ENDBRANCH   2  15
TORSDOF 6
ENDMDL
MODEL      189
REMARK 921   NORMALIZED FREE ENERGY PREDICTED BY IDOCK:   -5.38 KCAL/MOL
REMARK 922        TOTAL FREE ENERGY PREDICTED BY IDOCK:   -8.45 KCAL/MOL
REMARK 923 INTER-LIGAND FREE ENERGY PREDICTED BY IDOCK:   -7.61 KCAL/MOL
REMARK 924 INTRA-LIGAND FREE ENERGY PREDICTED BY IDOCK:   -0.84 KCAL/MOL
REMARK 927      BINDING AFFINITY PREDICTED BY RF-SCORE:    0.00 PKD
ROOT
HETATM    1  O   UNL     1     -11.041   5.243  65.929  1.00  0.00    -0.773 OA 
HETATM    2  C   UNL     1      -9.728   5.661  66.330  1.00  0.00    -0.156 C  
HETATM    3  H   UNL     1     -11.185   4.343  66.197  1.00  0.00     0.000 HD 
ENDROOT
BRANCH   2   4
HETATM    4  C   UNL     1      -9.561   5.462  67.855  1.00  0.00    -0.129 C  
HETATM    5  C   UNL     1     -11.140   5.391  72.584  1.00  0.00    -0.278 A  
HETATM    6  C   UNL     1     -11.831   6.419  71.955  1.00  0.00    -0.382 A  
HETATM    7  C   UNL     1      -9.441   3.986  68.245  1.00  0.00    -0.216 C  
HETATM    8  C   UNL     1      -9.147   3.894  69.732  1.00  0.00    -0.188 C  
HETATM    9  F   UNL     1     -11.318   5.181  73.896  1.00  0.00    -0.326 F  
HETATM   10  C   UNL     1     -11.645   6.632  70.587  1.00  0.00    -0.439 A  
HETATM   11  O   UNL     1     -10.668   6.091  68.526  1.00  0.00    -0.241 OA 
HETATM   12  C   UNL     1     -10.085   4.778  70.499  1.00  0.00    -0.291 A  
HETATM   13  C   UNL     1     -10.768   5.823  69.865  1.00  0.00    -0.342 A  
HETATM   14  C   UNL     1     -10.268   4.573  71.874  1.00  0.00    -0.241 A  
ENDBRANCH   2   4
BRANCH   2  15
HETATM   15  C   UNL     1      -9.494   7.122  65.894  1.00  0.00     0.197 C  
BRANCH  15  16
HETATM   16  N   UNL     1     -10.463   8.047  66.509  1.00  0.00    -0.430 NA 
HETATM   17  H   UNL     1     -10.875   7.666  67.360  1.00  0.00     0.000 HD 
BRANCH  16  18
HETATM   18  C   UNL     1      -9.812   9.350  66.736  1.00  0.00    -0.218 C  
BRANCH  18  19
HETATM   19  C   UNL     1     -10.748  10.323  67.481  1.00  0.00    -0.294 C  
HETATM   20  H   UNL     1     -11.464  10.481  69.303  1.00  0.00     0.000 HD 
HETATM   21  O   UNL     1     -10.888   9.882  68.844  1.00  0.00    -0.218 OA 
BRANCH  19  22
HETATM   22  C   UNL     1     -10.226  11.779  67.467  1.00  0.00    -0.195 C  
HETATM   23  C   UNL     1      -8.408  13.346  68.094  1.00  0.00    -0.164 C  
HETATM   24  C   UNL     1      -8.915  11.922  68.241  1.00  0.00    -0.178 C  
HETATM   25  C   UNL     1      -9.521  14.314  68.367  1.00  0.00    -0.213 A  
HETATM   26  C   UNL     1     -10.862  13.912  68.300  1.00  0.00    -0.249 A  
HETATM   27  O   UNL     1     -11.255  12.629  68.019  1.00  0.00    -0.233 OA 
HETATM   28  C   UNL     1     -11.887  14.822  68.570  1.00  0.00    -0.340 A  
HETATM   29  C   UNL     1     -11.581  16.145  68.887  1.00  0.00    -0.298 A  
HETATM   30  C   UNL     1     -10.251  16.546  68.936  1.00  0.00    -0.268 A  
HETATM   31  F   UNL     1      -9.953  17.816  69.242  1.00  0.00    -0.297 F  
HETATM   32  C   UNL     1      -9.222  15.648  68.677  1.00  0.00    -0.205 A  
ENDBRANCH  19  22
ENDBRANCH  18  19
ENDBRANCH  16  18
ENDBRANCH  15  16
ENDBRANCH   2  15
TORSDOF 6
ENDMDL
MODEL      190
REMARK 921   NORMALIZED FREE ENERGY PREDICTED BY IDOCK:   -5.37 KCAL/MOL
REMARK 922        TOTAL FREE ENERGY PREDICTED BY IDOCK:   -8.43 KCAL/MOL
REMARK 923 INTER-LIGAND FREE ENERGY PREDICTED BY IDOCK:   -7.07 KCAL/MOL
REMARK 924 INTRA-LIGAND FREE ENERGY PREDICTED BY IDOCK:   -1.36 KCAL/MOL
REMARK 927      BINDING AFFINITY PREDICTED BY RF-SCORE:    0.00 PKD
ROOT
HETATM    1  O   UNL     1      -5.636   6.940  65.834  1.00  0.00    -0.028 OA 
HETATM    2  C   UNL     1      -6.977   6.432  65.803  1.00  0.00    -0.061 C  
HETATM    3  H   UNL     1      -5.291   6.985  64.950  1.00  0.00     0.000 HD 
ENDROOT
BRANCH   2   4
HETATM    4  C   UNL     1      -7.845   7.309  64.871  1.00  0.00    -0.126 C  
HETATM    5  C   UNL     1     -10.392  11.416  63.641  1.00  0.00    -0.410 A  
HETATM    6  C   UNL     1     -10.560  11.246  65.009  1.00  0.00    -0.353 A  
HETATM    7  C   UNL     1      -7.052   7.877  63.690  1.00  0.00    -0.078 C  
HETATM    8  C   UNL     1      -8.007   8.608  62.763  1.00  0.00    -0.154 C  
HETATM    9  F   UNL     1     -11.027  12.419  63.017  1.00  0.00    -0.448 F  
HETATM   10  C   UNL     1      -9.893  10.202  65.656  1.00  0.00    -0.347 A  
HETATM   11  O   UNL     1      -8.443   8.360  65.652  1.00  0.00    -0.146 OA 
HETATM   12  C   UNL     1      -8.894   9.523  63.553  1.00  0.00    -0.235 A  
HETATM   13  C   UNL     1      -9.073   9.339  64.930  1.00  0.00    -0.170 A  
HETATM   14  C   UNL     1      -9.571  10.567  62.907  1.00  0.00    -0.355 A  
ENDBRANCH   2   4
BRANCH   2  15
HETATM   15  C   UNL     1      -7.537   6.359  67.238  1.00  0.00    -0.096 C  
BRANCH  15  16
HETATM   16  N   UNL     1      -7.091   7.494  68.066  1.00  0.00    -0.082 NA 
HETATM   17  H   UNL     1      -7.027   8.361  67.533  1.00  0.00     0.000 HD 
BRANCH  16  18
HETATM   18  C   UNL     1      -7.981   7.620  69.235  1.00  0.00    -0.126 C  
BRANCH  18  19
HETATM   19  C   UNL     1      -9.448   7.333  68.857  1.00  0.00    -0.143 C  
HETATM   20  H   UNL     1     -10.823   6.040  69.402  1.00  0.00     0.000 HD 
HETATM   21  O   UNL     1      -9.919   6.216  69.635  1.00  0.00    -0.158 OA 
BRANCH  19  22
HETATM   22  C   UNL     1     -10.374   8.548  69.099  1.00  0.00    -0.217 C  
HETATM   23  C   UNL     1     -10.576  11.016  69.248  1.00  0.00    -0.236 C  
HETATM   24  C   UNL     1      -9.596   9.864  69.116  1.00  0.00    -0.204 C  
HETATM   25  C   UNL     1     -11.548  10.734  70.355  1.00  0.00    -0.431 A  
HETATM   26  C   UNL     1     -11.751   9.429  70.824  1.00  0.00    -0.282 A  
HETATM   27  O   UNL     1     -11.073   8.338  70.345  1.00  0.00    -0.249 OA 
HETATM   28  C   UNL     1     -12.650   9.184  71.865  1.00  0.00    -0.463 A  
HETATM   29  C   UNL     1     -13.369  10.237  72.430  1.00  0.00    -0.136 A  
HETATM   30  C   UNL     1     -13.179  11.528  71.951  1.00  0.00    -0.374 A  
HETATM   31  F   UNL     1     -13.866  12.542  72.493  1.00  0.00    -0.590 F  
HETATM   32  C   UNL     1     -12.281  11.785  70.921  1.00  0.00    -0.378 A  
ENDBRANCH  19  22
ENDBRANCH  18  19
ENDBRANCH  16  18
ENDBRANCH  15  16
ENDBRANCH   2  15
TORSDOF 6
ENDMDL
MODEL      191
REMARK 921   NORMALIZED FREE ENERGY PREDICTED BY IDOCK:   -5.36 KCAL/MOL
REMARK 922        TOTAL FREE ENERGY PREDICTED BY IDOCK:   -8.43 KCAL/MOL
REMARK 923 INTER-LIGAND FREE ENERGY PREDICTED BY IDOCK:   -7.22 KCAL/MOL
REMARK 924 INTRA-LIGAND FREE ENERGY PREDICTED BY IDOCK:   -1.21 KCAL/MOL
REMARK 927      BINDING AFFINITY PREDICTED BY RF-SCORE:    0.00 PKD
ROOT
HETATM    1  O   UNL     1      -8.711  12.350  66.636  1.00  0.00    -0.300 OA 
HETATM    2  C   UNL     1      -7.608  12.787  67.443  1.00  0.00    -0.152 C  
HETATM    3  H   UNL     1      -8.579  11.446  66.377  1.00  0.00     0.000 HD 
ENDROOT
BRANCH   2   4
HETATM    4  C   UNL     1      -7.441  11.841  68.654  1.00  0.00    -0.120 C  
HETATM    5  C   UNL     1      -8.678   7.973  71.548  1.00  0.00    -0.136 A  
HETATM    6  C   UNL     1      -9.869   8.502  71.071  1.00  0.00    -0.245 A  
HETATM    7  C   UNL     1      -6.253  10.887  68.496  1.00  0.00    -0.046 C  
HETATM    8  C   UNL     1      -6.085  10.094  69.781  1.00  0.00    -0.050 C  
HETATM    9  F   UNL     1      -8.708   6.950  72.414  1.00  0.00    -0.125 F  
HETATM   10  C   UNL     1      -9.833   9.566  70.166  1.00  0.00    -0.288 A  
HETATM   11  O   UNL     1      -8.670  11.116  68.847  1.00  0.00    -0.151 OA 
HETATM   12  C   UNL     1      -7.408   9.545  70.224  1.00  0.00    -0.135 A  
HETATM   13  C   UNL     1      -8.609  10.092  69.753  1.00  0.00    -0.173 A  
HETATM   14  C   UNL     1      -7.451   8.483  71.139  1.00  0.00    -0.097 A  
ENDBRANCH   2   4
BRANCH   2  15
HETATM   15  C   UNL     1      -7.823  14.255  67.863  1.00  0.00    -0.152 C  
BRANCH  15  16
HETATM   16  N   UNL     1      -8.288  15.091  66.742  1.00  0.00    -0.357 NA 
HETATM   17  H   UNL     1      -9.004  14.627  66.184  1.00  0.00     0.000 HD 
BRANCH  16  18
HETATM   18  C   UNL     1      -8.741  16.393  67.263  1.00  0.00    -0.181 C  
BRANCH  18  19
HETATM   19  C   UNL     1     -10.246  16.609  67.006  1.00  0.00    -0.290 C  
HETATM   20  H   UNL     1     -11.511  16.179  65.566  1.00  0.00     0.000 HD 
HETATM   21  O   UNL     1     -10.584  16.046  65.725  1.00  0.00    -0.343 OA 
BRANCH  19  22
HETATM   22  C   UNL     1     -11.135  15.964  68.095  1.00  0.00    -0.338 C  
HETATM   23  C   UNL     1     -11.748  15.869  70.497  1.00  0.00    -0.394 C  
HETATM   24  C   UNL     1     -10.769  16.456  69.496  1.00  0.00    -0.325 C  
HETATM   25  C   UNL     1     -11.895  14.395  70.262  1.00  0.00    -0.382 A  
HETATM   26  C   UNL     1     -11.532  13.818  69.037  1.00  0.00    -0.305 A  
HETATM   27  O   UNL     1     -10.999  14.530  67.994  1.00  0.00    -0.249 OA 
HETATM   28  C   UNL     1     -11.662  12.442  68.838  1.00  0.00    -0.372 A  
HETATM   29  C   UNL     1     -12.175  11.634  69.853  1.00  0.00    -0.310 A  
HETATM   30  C   UNL     1     -12.550  12.211  71.061  1.00  0.00    -0.263 A  
HETATM   31  F   UNL     1     -13.041  11.438  72.039  1.00  0.00    -0.557 F  
HETATM   32  C   UNL     1     -12.418  13.578  71.274  1.00  0.00    -0.388 A  
ENDBRANCH  19  22
ENDBRANCH  18  19
ENDBRANCH  16  18
ENDBRANCH  15  16
ENDBRANCH   2  15
TORSDOF 6
ENDMDL
MODEL      192
REMARK 921   NORMALIZED FREE ENERGY PREDICTED BY IDOCK:   -5.36 KCAL/MOL
REMARK 922        TOTAL FREE ENERGY PREDICTED BY IDOCK:   -8.42 KCAL/MOL
REMARK 923 INTER-LIGAND FREE ENERGY PREDICTED BY IDOCK:   -5.70 KCAL/MOL
REMARK 924 INTRA-LIGAND FREE ENERGY PREDICTED BY IDOCK:   -2.72 KCAL/MOL
REMARK 927      BINDING AFFINITY PREDICTED BY RF-SCORE:    0.00 PKD
ROOT
HETATM    1  O   UNL     1     -11.791   6.509  72.721  1.00  0.00    -0.487 OA 
HETATM    2  C   UNL     1     -10.699   7.363  73.092  1.00  0.00    -0.387 C  
HETATM    3  H   UNL     1     -12.592   7.016  72.679  1.00  0.00     0.000 HD 
ENDROOT
BRANCH   2   4
HETATM    4  C   UNL     1     -10.603   8.546  72.101  1.00  0.00    -0.349 C  
HETATM    5  C   UNL     1      -8.466  11.209  68.466  1.00  0.00    -0.156 A  
HETATM    6  C   UNL     1      -7.431  10.680  69.225  1.00  0.00    -0.130 A  
HETATM    7  C   UNL     1     -11.597   8.425  70.942  1.00  0.00    -0.288 C  
HETATM    8  C   UNL     1     -11.526   9.686  70.100  1.00  0.00    -0.238 C  
HETATM    9  F   UNL     1      -8.184  12.032  67.446  1.00  0.00    -0.135 F  
HETATM   10  C   UNL     1      -7.728   9.820  70.285  1.00  0.00    -0.187 A  
HETATM   11  O   UNL     1      -9.249   8.635  71.619  1.00  0.00    -0.210 OA 
HETATM   12  C   UNL     1     -10.096  10.027  69.801  1.00  0.00    -0.284 A  
HETATM   13  C   UNL     1      -9.055   9.503  70.579  1.00  0.00    -0.219 A  
HETATM   14  C   UNL     1      -9.792  10.896  68.744  1.00  0.00    -0.203 A  
ENDBRANCH   2   4
BRANCH   2  15
HETATM   15  C   UNL     1      -9.397   6.539  73.160  1.00  0.00    -0.134 C  
BRANCH  15  16
HETATM   16  N   UNL     1      -9.656   5.112  73.419  1.00  0.00    -0.140 NA 
HETATM   17  H   UNL     1     -10.542   4.961  73.902  1.00  0.00     0.000 HD 
BRANCH  16  18
HETATM   18  C   UNL     1      -9.576   4.366  72.150  1.00  0.00    -0.151 C  
BRANCH  18  19
HETATM   19  C   UNL     1      -8.142   4.375  71.583  1.00  0.00    -0.096 C  
HETATM   20  H   UNL     1      -6.780   3.024  71.157  1.00  0.00     0.000 HD 
HETATM   21  O   UNL     1      -7.664   3.019  71.507  1.00  0.00    -0.046 OA 
BRANCH  19  22
HETATM   22  C   UNL     1      -8.059   5.024  70.182  1.00  0.00    -0.081 C  
HETATM   23  C   UNL     1      -6.904   6.645  68.702  1.00  0.00    -0.070 C  
HETATM   24  C   UNL     1      -7.006   6.131  70.127  1.00  0.00    -0.062 C  
HETATM   25  C   UNL     1      -8.275   6.921  68.160  1.00  0.00    -0.119 A  
HETATM   26  C   UNL     1      -9.412   6.345  68.743  1.00  0.00    -0.127 A  
HETATM   27  O   UNL     1      -9.368   5.531  69.845  1.00  0.00    -0.140 OA 
HETATM   28  C   UNL     1     -10.684   6.622  68.235  1.00  0.00    -0.317 A  
HETATM   29  C   UNL     1     -10.827   7.459  67.128  1.00  0.00    -0.340 A  
HETATM   30  C   UNL     1      -9.697   8.015  66.542  1.00  0.00    -0.227 A  
HETATM   31  F   UNL     1      -9.831   8.821  65.480  1.00  0.00    -0.257 F  
HETATM   32  C   UNL     1      -8.427   7.753  67.043  1.00  0.00    -0.124 A  
ENDBRANCH  19  22
ENDBRANCH  18  19
ENDBRANCH  16  18
ENDBRANCH  15  16
ENDBRANCH   2  15
TORSDOF 6
ENDMDL
MODEL      193
REMARK 921   NORMALIZED FREE ENERGY PREDICTED BY IDOCK:   -5.35 KCAL/MOL
REMARK 922        TOTAL FREE ENERGY PREDICTED BY IDOCK:   -8.42 KCAL/MOL
REMARK 923 INTER-LIGAND FREE ENERGY PREDICTED BY IDOCK:   -7.32 KCAL/MOL
REMARK 924 INTRA-LIGAND FREE ENERGY PREDICTED BY IDOCK:   -1.10 KCAL/MOL
REMARK 927      BINDING AFFINITY PREDICTED BY RF-SCORE:    0.00 PKD
ROOT
HETATM    1  O   UNL     1     -12.455  10.601  69.074  1.00  0.00    -0.777 OA 
HETATM    2  C   UNL     1     -11.315   9.735  69.173  1.00  0.00     0.015 C  
HETATM    3  H   UNL     1     -13.230  10.087  68.884  1.00  0.00     0.000 HD 
ENDROOT
BRANCH   2   4
HETATM    4  C   UNL     1     -11.580   8.642  70.235  1.00  0.00     0.003 C  
HETATM    5  C   UNL     1     -10.556   4.448  72.730  1.00  0.00    -0.182 A  
HETATM    6  C   UNL     1     -10.120   4.246  71.427  1.00  0.00    -0.187 A  
HETATM    7  C   UNL     1     -11.320   9.135  71.662  1.00  0.00    -0.446 C  
HETATM    8  C   UNL     1     -11.732   8.048  72.639  1.00  0.00    -0.418 C  
HETATM    9  F   UNL     1     -10.466   3.450  73.620  1.00  0.00    -0.171 F  
HETATM   10  C   UNL     1     -10.213   5.290  70.503  1.00  0.00    -0.334 A  
HETATM   11  O   UNL     1     -10.774   7.492  69.924  1.00  0.00    -0.240 OA 
HETATM   12  C   UNL     1     -11.168   6.726  72.209  1.00  0.00    -0.295 A  
HETATM   13  C   UNL     1     -10.744   6.521  70.889  1.00  0.00    -0.242 A  
HETATM   14  C   UNL     1     -11.081   5.672  73.129  1.00  0.00    -0.315 A  
ENDBRANCH   2   4
BRANCH   2  15
HETATM   15  C   UNL     1     -10.056  10.570  69.483  1.00  0.00    -0.178 C  
BRANCH  15  16
HETATM   16  N   UNL     1      -8.854  10.027  68.826  1.00  0.00    -0.130 NA 
HETATM   17  H   UNL     1      -9.037   9.732  67.867  1.00  0.00     0.000 HD 
BRANCH  16  18
HETATM   18  C   UNL     1      -7.767  11.019  68.909  1.00  0.00    -0.140 C  
BRANCH  18  19
HETATM   19  C   UNL     1      -7.127  11.268  67.529  1.00  0.00    -0.099 C  
HETATM   20  H   UNL     1      -6.749  10.193  65.929  1.00  0.00     0.000 HD 
HETATM   21  O   UNL     1      -7.143  10.039  66.779  1.00  0.00    -0.087 OA 
BRANCH  19  22
HETATM   22  C   UNL     1      -7.861  12.365  66.722  1.00  0.00     0.080 C  
HETATM   23  C   UNL     1      -8.703  14.698  66.665  1.00  0.00    -0.197 C  
HETATM   24  C   UNL     1      -8.079  13.633  67.549  1.00  0.00    -0.190 C  
HETATM   25  C   UNL     1      -9.860  14.119  65.907  1.00  0.00    -0.312 A  
HETATM   26  C   UNL     1      -9.992  12.734  65.736  1.00  0.00    -0.251 A  
HETATM   27  O   UNL     1      -9.116  11.819  66.261  1.00  0.00    -0.214 OA 
HETATM   28  C   UNL     1     -11.083  12.209  65.039  1.00  0.00    -0.368 A  
HETATM   29  C   UNL     1     -12.037  13.064  64.488  1.00  0.00    -0.468 A  
HETATM   30  C   UNL     1     -11.895  14.437  64.644  1.00  0.00    -0.451 A  
HETATM   31  F   UNL     1     -12.812  15.261  64.119  1.00  0.00    -0.347 F  
HETATM   32  C   UNL     1     -10.818  14.971  65.343  1.00  0.00    -0.376 A  
ENDBRANCH  19  22
ENDBRANCH  18  19
ENDBRANCH  16  18
ENDBRANCH  15  16
ENDBRANCH   2  15
TORSDOF 6
ENDMDL
MODEL      194
REMARK 921   NORMALIZED FREE ENERGY PREDICTED BY IDOCK:   -5.29 KCAL/MOL
REMARK 922        TOTAL FREE ENERGY PREDICTED BY IDOCK:   -8.34 KCAL/MOL
REMARK 923 INTER-LIGAND FREE ENERGY PREDICTED BY IDOCK:   -7.34 KCAL/MOL
REMARK 924 INTRA-LIGAND FREE ENERGY PREDICTED BY IDOCK:   -1.00 KCAL/MOL
REMARK 927      BINDING AFFINITY PREDICTED BY RF-SCORE:    0.00 PKD
ROOT
HETATM    1  O   UNL     1      -6.786  10.909  66.636  1.00  0.00    -0.108 OA 
HETATM    2  C   UNL     1      -8.218  10.844  66.690  1.00  0.00    -0.145 C  
HETATM    3  H   UNL     1      -6.470  11.527  67.284  1.00  0.00     0.000 HD 
ENDROOT
BRANCH   2   4
HETATM    4  C   UNL     1      -8.671  10.486  68.124  1.00  0.00    -0.130 C  
HETATM    5  C   UNL     1     -12.029   9.826  71.751  1.00  0.00    -0.311 A  
HETATM    6  C   UNL     1     -12.488  10.886  70.980  1.00  0.00    -0.514 A  
HETATM    7  C   UNL     1      -8.595   8.982  68.407  1.00  0.00    -0.130 C  
HETATM    8  C   UNL     1      -8.926   8.740  69.869  1.00  0.00    -0.152 C  
HETATM    9  F   UNL     1     -12.708   9.465  72.849  1.00  0.00    -0.313 F  
HETATM   10  C   UNL     1     -11.779  11.257  69.834  1.00  0.00    -0.430 A  
HETATM   11  O   UNL     1     -10.004  10.989  68.326  1.00  0.00    -0.168 OA 
HETATM   12  C   UNL     1     -10.167   9.492  70.248  1.00  0.00    -0.312 A  
HETATM   13  C   UNL     1     -10.618  10.571  69.476  1.00  0.00    -0.246 A  
HETATM   14  C   UNL     1     -10.877   9.129  71.401  1.00  0.00    -0.419 A  
ENDBRANCH   2   4
BRANCH   2  15
HETATM   15  C   UNL     1      -8.730   9.839  65.638  1.00  0.00    -0.148 C  
BRANCH  15  16
HETATM   16  N   UNL     1     -10.003  10.270  65.033  1.00  0.00    -0.325 NA 
HETATM   17  H   UNL     1     -10.813   9.885  65.519  1.00  0.00     0.000 HD 
BRANCH  16  18
HETATM   18  C   UNL     1     -10.036  11.742  64.969  1.00  0.00    -0.254 C  
BRANCH  18  19
HETATM   19  C   UNL     1     -11.460  12.283  65.204  1.00  0.00    -0.341 C  
HETATM   20  H   UNL     1     -12.918  11.925  66.472  1.00  0.00     0.000 HD 
HETATM   21  O   UNL     1     -12.040  11.592  66.327  1.00  0.00    -0.333 OA 
BRANCH  19  22
HETATM   22  C   UNL     1     -11.482  13.805  65.477  1.00  0.00    -0.311 C  
HETATM   23  C   UNL     1     -11.741  16.086  64.538  1.00  0.00    -0.127 C  
HETATM   24  C   UNL     1     -11.617  14.614  64.187  1.00  0.00    -0.118 C  
HETATM   25  C   UNL     1     -10.677  16.467  65.524  1.00  0.00    -0.300 A  
HETATM   26  C   UNL     1     -10.023  15.494  66.293  1.00  0.00    -0.293 A  
HETATM   27  O   UNL     1     -10.272  14.150  66.186  1.00  0.00    -0.286 OA 
HETATM   28  C   UNL     1      -9.024  15.863  67.198  1.00  0.00    -0.226 A  
HETATM   29  C   UNL     1      -8.687  17.207  67.357  1.00  0.00    -0.211 A  
HETATM   30  C   UNL     1      -9.349  18.171  66.607  1.00  0.00    -0.297 A  
HETATM   31  F   UNL     1      -9.026  19.462  66.756  1.00  0.00    -0.288 F  
HETATM   32  C   UNL     1     -10.339  17.816  65.697  1.00  0.00    -0.098 A  
ENDBRANCH  19  22
ENDBRANCH  18  19
ENDBRANCH  16  18
ENDBRANCH  15  16
ENDBRANCH   2  15
TORSDOF 6
ENDMDL
MODEL      195
REMARK 921   NORMALIZED FREE ENERGY PREDICTED BY IDOCK:   -5.26 KCAL/MOL
REMARK 922        TOTAL FREE ENERGY PREDICTED BY IDOCK:   -8.30 KCAL/MOL
REMARK 923 INTER-LIGAND FREE ENERGY PREDICTED BY IDOCK:   -5.79 KCAL/MOL
REMARK 924 INTRA-LIGAND FREE ENERGY PREDICTED BY IDOCK:   -2.51 KCAL/MOL
REMARK 927      BINDING AFFINITY PREDICTED BY RF-SCORE:    0.00 PKD
ROOT
HETATM    1  O   UNL     1      -7.496   8.848  73.350  1.00  0.00    -0.368 OA 
HETATM    2  C   UNL     1      -7.284   8.019  72.199  1.00  0.00    -0.085 C  
HETATM    3  H   UNL     1      -7.180   9.726  73.173  1.00  0.00     0.000 HD 
ENDROOT
BRANCH   2   4
HETATM    4  C   UNL     1      -7.961   8.657  70.964  1.00  0.00    -0.132 C  
HETATM    5  C   UNL     1     -11.498  11.279  68.623  1.00  0.00    -0.297 A  
HETATM    6  C   UNL     1     -12.132  10.599  69.655  1.00  0.00    -0.312 A  
HETATM    7  C   UNL     1      -7.207   9.887  70.449  1.00  0.00    -0.143 C  
HETATM    8  C   UNL     1      -7.863  10.363  69.165  1.00  0.00    -0.134 C  
HETATM    9  F   UNL     1     -12.225  12.023  67.777  1.00  0.00    -0.328 F  
HETATM   10  C   UNL     1     -11.371   9.829  70.537  1.00  0.00    -0.382 A  
HETATM   11  O   UNL     1      -9.322   8.982  71.301  1.00  0.00    -0.240 OA 
HETATM   12  C   UNL     1      -9.350  10.441  69.343  1.00  0.00    -0.186 A  
HETATM   13  C   UNL     1      -9.988   9.741  70.376  1.00  0.00    -0.233 A  
HETATM   14  C   UNL     1     -10.120  11.206  68.456  1.00  0.00    -0.208 A  
ENDBRANCH   2   4
BRANCH   2  15
HETATM   15  C   UNL     1      -7.797   6.593  72.486  1.00  0.00    -0.102 C  
BRANCH  15  16
HETATM   16  N   UNL     1      -7.069   5.574  71.710  1.00  0.00    -0.075 NA 
HETATM   17  H   UNL     1      -6.107   5.457  72.031  1.00  0.00     0.000 HD 
BRANCH  16  18
HETATM   18  C   UNL     1      -7.826   4.310  71.740  1.00  0.00    -0.080 C  
BRANCH  18  19
HETATM   19  C   UNL     1      -8.484   4.017  70.376  1.00  0.00    -0.064 C  
HETATM   20  H   UNL     1      -9.916   2.844  69.719  1.00  0.00     0.000 HD 
HETATM   21  O   UNL     1      -9.511   3.024  70.559  1.00  0.00    -0.150 OA 
BRANCH  19  22
HETATM   22  C   UNL     1      -9.104   5.278  69.731  1.00  0.00    -0.116 C  
HETATM   23  C   UNL     1     -11.091   6.309  68.662  1.00  0.00    -0.409 C  
HETATM   24  C   UNL     1     -10.504   5.008  69.178  1.00  0.00    -0.087 C  
HETATM   25  C   UNL     1     -10.090   7.009  67.791  1.00  0.00    -0.205 A  
HETATM   26  C   UNL     1      -8.725   6.700  67.864  1.00  0.00    -0.116 A  
HETATM   27  O   UNL     1      -8.211   5.735  68.692  1.00  0.00    -0.103 OA 
HETATM   28  C   UNL     1      -7.807   7.351  67.036  1.00  0.00    -0.116 A  
HETATM   29  C   UNL     1      -8.243   8.332  66.145  1.00  0.00    -0.119 A  
HETATM   30  C   UNL     1      -9.594   8.649  66.087  1.00  0.00    -0.235 A  
HETATM   31  F   UNL     1     -10.016   9.589  65.231  1.00  0.00    -0.374 F  
HETATM   32  C   UNL     1     -10.518   8.003  66.899  1.00  0.00    -0.387 A  
ENDBRANCH  19  22
ENDBRANCH  18  19
ENDBRANCH  16  18
ENDBRANCH  15  16
ENDBRANCH   2  15
TORSDOF 6
ENDMDL
MODEL      196
REMARK 921   NORMALIZED FREE ENERGY PREDICTED BY IDOCK:   -5.26 KCAL/MOL
REMARK 922        TOTAL FREE ENERGY PREDICTED BY IDOCK:   -8.29 KCAL/MOL
REMARK 923 INTER-LIGAND FREE ENERGY PREDICTED BY IDOCK:   -7.29 KCAL/MOL
REMARK 924 INTRA-LIGAND FREE ENERGY PREDICTED BY IDOCK:   -1.00 KCAL/MOL
REMARK 927      BINDING AFFINITY PREDICTED BY RF-SCORE:    0.00 PKD
ROOT
HETATM    1  O   UNL     1      -7.590  11.324  65.299  1.00  0.00    -0.251 OA 
HETATM    2  C   UNL     1      -8.925  11.117  65.781  1.00  0.00    -0.196 C  
HETATM    3  H   UNL     1      -6.968  10.944  65.907  1.00  0.00     0.000 HD 
ENDROOT
BRANCH   2   4
HETATM    4  C   UNL     1      -9.168   9.607  66.012  1.00  0.00    -0.182 C  
HETATM    5  C   UNL     1      -8.175   4.752  65.455  1.00  0.00    -0.118 A  
HETATM    6  C   UNL     1      -7.840   5.362  64.252  1.00  0.00    -0.104 A  
HETATM    7  C   UNL     1      -8.786   9.160  67.426  1.00  0.00    -0.125 C  
HETATM    8  C   UNL     1      -9.181   7.705  67.604  1.00  0.00    -0.144 C  
HETATM    9  F   UNL     1      -8.071   3.421  65.573  1.00  0.00    -0.089 F  
HETATM   10  C   UNL     1      -7.947   6.750  64.135  1.00  0.00    -0.085 A  
HETATM   11  O   UNL     1      -8.440   8.866  65.016  1.00  0.00    -0.159 OA 
HETATM   12  C   UNL     1      -8.712   6.896  66.432  1.00  0.00    -0.147 A  
HETATM   13  C   UNL     1      -8.391   7.512  65.215  1.00  0.00    -0.106 A  
HETATM   14  C   UNL     1      -8.612   5.502  66.542  1.00  0.00    -0.118 A  
ENDBRANCH   2   4
BRANCH   2  15
HETATM   15  C   UNL     1      -9.935  11.735  64.792  1.00  0.00    -0.243 C  
BRANCH  15  16
HETATM   16  N   UNL     1     -10.005  13.202  64.914  1.00  0.00    -0.551 NA 
HETATM   17  H   UNL     1      -9.988  13.667  64.007  1.00  0.00     0.000 HD 
BRANCH  16  18
HETATM   18  C   UNL     1     -11.192  13.566  65.708  1.00  0.00    -0.297 C  
BRANCH  18  19
HETATM   19  C   UNL     1     -10.800  14.040  67.121  1.00  0.00    -0.286 C  
HETATM   20  H   UNL     1     -10.678  15.766  68.052  1.00  0.00     0.000 HD 
HETATM   21  O   UNL     1     -10.920  15.474  67.181  1.00  0.00    -0.321 OA 
BRANCH  19  22
HETATM   22  C   UNL     1     -11.678  13.409  68.227  1.00  0.00    -0.356 C  
HETATM   23  C   UNL     1     -12.687  13.653  70.480  1.00  0.00    -0.260 C  
HETATM   24  C   UNL     1     -11.724  14.277  69.485  1.00  0.00    -0.366 C  
HETATM   25  C   UNL     1     -12.397  12.188  70.620  1.00  0.00    -0.385 A  
HETATM   26  C   UNL     1     -11.673  11.497  69.639  1.00  0.00    -0.351 A  
HETATM   27  O   UNL     1     -11.157  12.094  68.517  1.00  0.00    -0.219 OA 
HETATM   28  C   UNL     1     -11.400  10.135  69.790  1.00  0.00    -0.312 A  
HETATM   29  C   UNL     1     -11.866   9.449  70.911  1.00  0.00    -0.365 A  
HETATM   30  C   UNL     1     -12.598  10.133  71.874  1.00  0.00    -0.343 A  
HETATM   31  F   UNL     1     -13.046   9.477  72.953  1.00  0.00    -0.371 F  
HETATM   32  C   UNL     1     -12.870  11.490  71.739  1.00  0.00    -0.441 A  
ENDBRANCH  19  22
ENDBRANCH  18  19
ENDBRANCH  16  18
ENDBRANCH  15  16
ENDBRANCH   2  15
TORSDOF 6
ENDMDL
MODEL      197
REMARK 921   NORMALIZED FREE ENERGY PREDICTED BY IDOCK:   -5.26 KCAL/MOL
REMARK 922        TOTAL FREE ENERGY PREDICTED BY IDOCK:   -8.29 KCAL/MOL
REMARK 923 INTER-LIGAND FREE ENERGY PREDICTED BY IDOCK:   -5.12 KCAL/MOL
REMARK 924 INTRA-LIGAND FREE ENERGY PREDICTED BY IDOCK:   -3.17 KCAL/MOL
REMARK 927      BINDING AFFINITY PREDICTED BY RF-SCORE:    0.00 PKD
ROOT
HETATM    1  O   UNL     1     -10.648   4.866  72.163  1.00  0.00    -0.208 OA 
HETATM    2  C   UNL     1     -11.322   6.120  71.985  1.00  0.00    -0.297 C  
HETATM    3  H   UNL     1     -11.071   4.199  71.635  1.00  0.00     0.000 HD 
ENDROOT
BRANCH   2   4
HETATM    4  C   UNL     1     -11.356   6.485  70.482  1.00  0.00    -0.367 C  
HETATM    5  C   UNL     1     -10.118   9.187  66.478  1.00  0.00    -0.287 A  
HETATM    6  C   UNL     1     -10.179  10.073  67.545  1.00  0.00    -0.260 A  
HETATM    7  C   UNL     1     -10.566   5.496  69.619  1.00  0.00    -0.375 C  
HETATM    8  C   UNL     1     -10.765   5.853  68.157  1.00  0.00    -0.329 C  
HETATM    9  F   UNL     1      -9.867   9.652  65.246  1.00  0.00    -0.346 F  
HETATM   10  C   UNL     1     -10.438   9.583  68.828  1.00  0.00    -0.243 A  
HETATM   11  O   UNL     1     -10.862   7.827  70.323  1.00  0.00    -0.243 OA 
HETATM   12  C   UNL     1     -10.561   7.325  67.953  1.00  0.00    -0.266 A  
HETATM   13  C   UNL     1     -10.638   8.218  69.029  1.00  0.00    -0.150 A  
HETATM   14  C   UNL     1     -10.309   7.822  66.666  1.00  0.00    -0.262 A  
ENDBRANCH   2   4
BRANCH   2  15
HETATM   15  C   UNL     1     -10.635   7.203  72.842  1.00  0.00    -0.281 C  
BRANCH  15  16
HETATM   16  N   UNL     1      -9.184   6.975  72.967  1.00  0.00    -0.134 NA 
HETATM   17  H   UNL     1      -8.832   6.327  72.262  1.00  0.00     0.000 HD 
BRANCH  16  18
HETATM   18  C   UNL     1      -8.485   8.272  72.935  1.00  0.00    -0.194 C  
BRANCH  18  19
HETATM   19  C   UNL     1      -6.968   8.088  72.730  1.00  0.00    -0.092 C  
HETATM   20  H   UNL     1      -5.640   6.707  73.161  1.00  0.00     0.000 HD 
HETATM   21  O   UNL     1      -6.574   6.820  73.287  1.00  0.00    -0.063 OA 
BRANCH  19  22
HETATM   22  C   UNL     1      -6.558   8.139  71.240  1.00  0.00    -0.045 C  
HETATM   23  C   UNL     1      -6.592   9.413  69.112  1.00  0.00    -0.049 C  
HETATM   24  C   UNL     1      -7.123   9.372  70.534  1.00  0.00    -0.113 C  
HETATM   25  C   UNL     1      -6.757   8.069  68.467  1.00  0.00    -0.066 A  
HETATM   26  C   UNL     1      -6.938   6.914  69.239  1.00  0.00    -0.074 A  
HETATM   27  O   UNL     1      -7.010   6.922  70.608  1.00  0.00    -0.060 OA 
HETATM   28  C   UNL     1      -7.104   5.671  68.623  1.00  0.00    -0.066 A  
HETATM   29  C   UNL     1      -7.067   5.570  67.233  1.00  0.00    -0.074 A  
HETATM   30  C   UNL     1      -6.870   6.714  66.470  1.00  0.00    -0.061 A  
HETATM   31  F   UNL     1      -6.837   6.621  65.134  1.00  0.00    -0.045 F  
HETATM   32  C   UNL     1      -6.712   7.958  67.071  1.00  0.00    -0.068 A  
ENDBRANCH  19  22
ENDBRANCH  18  19
ENDBRANCH  16  18
ENDBRANCH  15  16
ENDBRANCH   2  15
TORSDOF 6
ENDMDL
MODEL      198
REMARK 921   NORMALIZED FREE ENERGY PREDICTED BY IDOCK:   -5.25 KCAL/MOL
REMARK 922        TOTAL FREE ENERGY PREDICTED BY IDOCK:   -8.28 KCAL/MOL
REMARK 923 INTER-LIGAND FREE ENERGY PREDICTED BY IDOCK:   -7.77 KCAL/MOL
REMARK 924 INTRA-LIGAND FREE ENERGY PREDICTED BY IDOCK:   -0.50 KCAL/MOL
REMARK 927      BINDING AFFINITY PREDICTED BY RF-SCORE:    0.00 PKD
ROOT
HETATM    1  O   UNL     1     -11.986  11.367  67.754  1.00  0.00    -0.637 OA 
HETATM    2  C   UNL     1     -10.695  10.903  67.333  1.00  0.00    -0.257 C  
HETATM    3  H   UNL     1     -12.633  10.688  67.607  1.00  0.00     0.000 HD 
ENDROOT
BRANCH   2   4
HETATM    4  C   UNL     1     -10.350   9.586  68.067  1.00  0.00    -0.214 C  
HETATM    5  C   UNL     1      -7.312   6.406  70.418  1.00  0.00    -0.089 A  
HETATM    6  C   UNL     1      -6.544   7.038  69.448  1.00  0.00    -0.045 A  
HETATM    7  C   UNL     1     -10.919   9.538  69.489  1.00  0.00    -0.217 C  
HETATM    8  C   UNL     1     -10.649   8.166  70.080  1.00  0.00    -0.237 C  
HETATM    9  F   UNL     1      -6.764   5.441  71.169  1.00  0.00    -0.038 F  
HETATM   10  C   UNL     1      -7.118   8.046  68.669  1.00  0.00    -0.072 A  
HETATM   11  O   UNL     1      -8.920   9.422  68.072  1.00  0.00    -0.128 OA 
HETATM   12  C   UNL     1      -9.218   7.780  69.854  1.00  0.00    -0.146 A  
HETATM   13  C   UNL     1      -8.451   8.408  68.864  1.00  0.00    -0.124 A  
HETATM   14  C   UNL     1      -8.640   6.763  70.626  1.00  0.00    -0.142 A  
ENDBRANCH   2   4
BRANCH   2  15
HETATM   15  C   UNL     1      -9.645  12.007  67.572  1.00  0.00    -0.177 C  
BRANCH  15  16
HETATM   16  N   UNL     1      -9.275  12.700  66.325  1.00  0.00    -0.404 NA 
HETATM   17  H   UNL     1      -8.390  12.364  65.944  1.00  0.00     0.000 HD 
BRANCH  16  18
HETATM   18  C   UNL     1     -10.381  12.583  65.359  1.00  0.00    -0.282 C  
BRANCH  18  19
HETATM   19  C   UNL     1     -11.199  13.888  65.280  1.00  0.00    -0.313 C  
HETATM   20  H   UNL     1     -13.072  14.403  65.571  1.00  0.00     0.000 HD 
HETATM   21  O   UNL     1     -12.568  13.599  65.619  1.00  0.00    -0.479 OA 
BRANCH  19  22
HETATM   22  C   UNL     1     -10.660  14.986  66.227  1.00  0.00    -0.307 C  
HETATM   23  C   UNL     1     -10.715  15.993  68.493  1.00  0.00    -0.287 C  
HETATM   24  C   UNL     1     -11.366  14.967  67.583  1.00  0.00    -0.348 C  
HETATM   25  C   UNL     1     -10.572  17.299  67.769  1.00  0.00    -0.367 A  
HETATM   26  C   UNL     1     -10.618  17.358  66.369  1.00  0.00    -0.192 A  
HETATM   27  O   UNL     1     -10.823  16.262  65.571  1.00  0.00    -0.320 OA 
HETATM   28  C   UNL     1     -10.496  18.583  65.709  1.00  0.00    -0.277 A  
HETATM   29  C   UNL     1     -10.307  19.755  66.441  1.00  0.00    -0.619 A  
HETATM   30  C   UNL     1     -10.245  19.692  67.827  1.00  0.00    -0.436 A  
HETATM   31  F   UNL     1     -10.065  20.816  68.534  1.00  0.00    -0.306 F  
HETATM   32  C   UNL     1     -10.372  18.480  68.496  1.00  0.00    -0.315 A  
ENDBRANCH  19  22
ENDBRANCH  18  19
ENDBRANCH  16  18
ENDBRANCH  15  16
ENDBRANCH   2  15
TORSDOF 6
ENDMDL
MODEL      199
REMARK 921   NORMALIZED FREE ENERGY PREDICTED BY IDOCK:   -5.25 KCAL/MOL
REMARK 922        TOTAL FREE ENERGY PREDICTED BY IDOCK:   -8.28 KCAL/MOL
REMARK 923 INTER-LIGAND FREE ENERGY PREDICTED BY IDOCK:   -6.62 KCAL/MOL
REMARK 924 INTRA-LIGAND FREE ENERGY PREDICTED BY IDOCK:   -1.66 KCAL/MOL
REMARK 927      BINDING AFFINITY PREDICTED BY RF-SCORE:    0.00 PKD
ROOT
HETATM    1  O   UNL     1      -7.883  11.602  66.527  1.00  0.00    -0.294 OA 
HETATM    2  C   UNL     1      -7.569  10.799  67.673  1.00  0.00    -0.096 C  
HETATM    3  H   UNL     1      -8.398  11.093  65.912  1.00  0.00     0.000 HD 
ENDROOT
BRANCH   2   4
HETATM    4  C   UNL     1      -8.873  10.253  68.300  1.00  0.00    -0.126 C  
HETATM    5  C   UNL     1     -11.851   8.964  72.086  1.00  0.00    -0.347 A  
HETATM    6  C   UNL     1     -10.554   8.673  72.490  1.00  0.00    -0.212 A  
HETATM    7  C   UNL     1     -10.039  11.239  68.184  1.00  0.00    -0.195 C  
HETATM    8  C   UNL     1     -11.301  10.570  68.700  1.00  0.00    -0.315 C  
HETATM    9  F   UNL     1     -12.878   8.656  72.890  1.00  0.00    -0.424 F  
HETATM   10  C   UNL     1      -9.486   8.999  71.651  1.00  0.00    -0.293 A  
HETATM   11  O   UNL     1      -8.615   9.908  69.673  1.00  0.00    -0.166 OA 
HETATM   12  C   UNL     1     -11.032   9.910  70.020  1.00  0.00    -0.338 A  
HETATM   13  C   UNL     1      -9.724   9.604  70.417  1.00  0.00    -0.245 A  
HETATM   14  C   UNL     1     -12.101   9.574  70.862  1.00  0.00    -0.357 A  
ENDBRANCH   2   4
BRANCH   2  15
HETATM   15  C   UNL     1      -6.733  11.626  68.671  1.00  0.00    -0.074 C  
BRANCH  15  16
HETATM   16  N   UNL     1      -7.490  12.766  69.220  1.00  0.00    -0.314 NA 
HETATM   17  H   UNL     1      -7.701  12.650  70.211  1.00  0.00     0.000 HD 
BRANCH  16  18
HETATM   18  C   UNL     1      -6.755  14.013  68.946  1.00  0.00    -0.105 C  
BRANCH  18  19
HETATM   19  C   UNL     1      -7.555  15.249  69.402  1.00  0.00    -0.219 C  
HETATM   20  H   UNL     1      -7.215  17.178  69.555  1.00  0.00     0.000 HD 
HETATM   21  O   UNL     1      -6.722  16.416  69.274  1.00  0.00    -0.192 OA 
BRANCH  19  22
HETATM   22  C   UNL     1      -8.850  15.456  68.582  1.00  0.00    -0.186 C  
HETATM   23  C   UNL     1     -11.328  15.344  68.536  1.00  0.00    -0.342 C  
HETATM   24  C   UNL     1     -10.092  15.012  69.354  1.00  0.00    -0.208 C  
HETATM   25  C   UNL     1     -11.146  14.873  67.124  1.00  0.00    -0.332 A  
HETATM   26  C   UNL     1      -9.869  14.610  66.608  1.00  0.00    -0.269 A  
HETATM   27  O   UNL     1      -8.717  14.727  67.342  1.00  0.00    -0.175 OA 
HETATM   28  C   UNL     1      -9.717  14.159  65.295  1.00  0.00    -0.060 A  
HETATM   29  C   UNL     1     -10.836  13.989  64.480  1.00  0.00    -0.362 A  
HETATM   30  C   UNL     1     -12.099  14.267  64.988  1.00  0.00    -0.425 A  
HETATM   31  F   UNL     1     -13.176  14.102  64.209  1.00  0.00     0.214 F  
HETATM   32  C   UNL     1     -12.264  14.708  66.296  1.00  0.00    -0.162 A  
ENDBRANCH  19  22
ENDBRANCH  18  19
ENDBRANCH  16  18
ENDBRANCH  15  16
ENDBRANCH   2  15
TORSDOF 6
ENDMDL
MODEL      200
REMARK 921   NORMALIZED FREE ENERGY PREDICTED BY IDOCK:   -5.24 KCAL/MOL
REMARK 922        TOTAL FREE ENERGY PREDICTED BY IDOCK:   -8.27 KCAL/MOL
REMARK 923 INTER-LIGAND FREE ENERGY PREDICTED BY IDOCK:   -7.22 KCAL/MOL
REMARK 924 INTRA-LIGAND FREE ENERGY PREDICTED BY IDOCK:   -1.05 KCAL/MOL
REMARK 927      BINDING AFFINITY PREDICTED BY RF-SCORE:    0.00 PKD
ROOT
HETATM    1  O   UNL     1     -11.882  10.890  66.689  1.00  0.00     0.048 OA 
HETATM    2  C   UNL     1     -10.993  11.028  67.806  1.00  0.00    -0.269 C  
HETATM    3  H   UNL     1     -11.937   9.977  66.435  1.00  0.00     0.000 HD 
ENDROOT
BRANCH   2   4
HETATM    4  C   UNL     1     -11.464  10.118  68.963  1.00  0.00    -0.078 C  
HETATM    5  C   UNL     1     -10.798   6.925  72.735  1.00  0.00    -0.272 A  
HETATM    6  C   UNL     1      -9.825   6.624  71.791  1.00  0.00    -0.171 A  
HETATM    7  C   UNL     1     -11.927  10.914  70.187  1.00  0.00    -0.435 C  
HETATM    8  C   UNL     1     -12.494   9.951  71.215  1.00  0.00    -0.479 C  
HETATM    9  F   UNL     1     -10.899   6.174  73.841  1.00  0.00    -0.258 F  
HETATM   10  C   UNL     1      -9.720   7.412  70.641  1.00  0.00    -0.175 A  
HETATM   11  O   UNL     1     -10.397   9.213  69.302  1.00  0.00    -0.205 OA 
HETATM   12  C   UNL     1     -11.559   8.794  71.408  1.00  0.00    -0.366 A  
HETATM   13  C   UNL     1     -10.590   8.484  70.446  1.00  0.00    -0.223 A  
HETATM   14  C   UNL     1     -11.666   7.996  72.556  1.00  0.00    -0.446 A  
ENDBRANCH   2   4
BRANCH   2  15
HETATM   15  C   UNL     1     -10.904  12.512  68.217  1.00  0.00    -0.234 C  
BRANCH  15  16
HETATM   16  N   UNL     1     -11.854  13.354  67.468  1.00  0.00    -0.365 NA 
HETATM   17  H   UNL     1     -12.629  13.674  68.048  1.00  0.00     0.000 HD 
BRANCH  16  18
HETATM   18  C   UNL     1     -11.123  14.471  66.843  1.00  0.00    -0.325 C  
BRANCH  18  19
HETATM   19  C   UNL     1     -11.493  14.622  65.354  1.00  0.00    -0.352 C  
HETATM   20  H   UNL     1     -11.322  16.024  63.989  1.00  0.00     0.000 HD 
HETATM   21  O   UNL     1     -11.093  15.931  64.906  1.00  0.00    -0.428 OA 
BRANCH  19  22
HETATM   22  C   UNL     1     -10.823  13.551  64.462  1.00  0.00    -0.410 C  
HETATM   23  C   UNL     1     -11.132  11.695  62.846  1.00  0.00     0.183 C  
HETATM   24  C   UNL     1     -11.852  12.645  63.786  1.00  0.00    -0.574 C  
HETATM   25  C   UNL     1      -9.965  11.068  63.550  1.00  0.00    -0.421 A  
HETATM   26  C   UNL     1      -9.419  11.649  64.703  1.00  0.00    -0.046 A  
HETATM   27  O   UNL     1      -9.914  12.788  65.284  1.00  0.00    -0.262 OA 
HETATM   28  C   UNL     1      -8.341  11.046  65.355  1.00  0.00     0.010 A  
HETATM   29  C   UNL     1      -7.786   9.871  64.849  1.00  0.00    -0.136 A  
HETATM   30  C   UNL     1      -8.318   9.306  63.696  1.00  0.00    -0.185 A  
HETATM   31  F   UNL     1      -7.789   8.176  63.208  1.00  0.00    -0.119 F  
HETATM   32  C   UNL     1      -9.396   9.892  63.042  1.00  0.00    -0.226 A  
ENDBRANCH  19  22
ENDBRANCH  18  19
ENDBRANCH  16  18
ENDBRANCH  15  16
ENDBRANCH   2  15
TORSDOF 6
ENDMDL
MODEL      201
REMARK 921   NORMALIZED FREE ENERGY PREDICTED BY IDOCK:   -5.22 KCAL/MOL
REMARK 922        TOTAL FREE ENERGY PREDICTED BY IDOCK:   -8.24 KCAL/MOL
REMARK 923 INTER-LIGAND FREE ENERGY PREDICTED BY IDOCK:   -6.66 KCAL/MOL
REMARK 924 INTRA-LIGAND FREE ENERGY PREDICTED BY IDOCK:   -1.59 KCAL/MOL
REMARK 927      BINDING AFFINITY PREDICTED BY RF-SCORE:    0.00 PKD
ROOT
HETATM    1  O   UNL     1     -10.563  15.985  69.313  1.00  0.00    -0.226 OA 
HETATM    2  C   UNL     1      -9.450  16.083  68.413  1.00  0.00    -0.207 C  
HETATM    3  H   UNL     1     -11.320  16.414  68.933  1.00  0.00     0.000 HD 
ENDROOT
BRANCH   2   4
HETATM    4  C   UNL     1      -9.839  15.494  67.037  1.00  0.00    -0.232 C  
HETATM    5  C   UNL     1     -12.253  12.357  64.004  1.00  0.00    -0.490 A  
HETATM    6  C   UNL     1     -11.963  11.642  65.158  1.00  0.00     0.187 A  
HETATM    7  C   UNL     1     -10.770  16.416  66.244  1.00  0.00    -0.161 C  
HETATM    8  C   UNL     1     -10.988  15.823  64.863  1.00  0.00    -0.443 C  
HETATM    9  F   UNL     1     -12.850  11.739  62.975  1.00  0.00    -0.698 F  
HETATM   10  C   UNL     1     -11.344  12.290  66.230  1.00  0.00    -0.395 A  
HETATM   11  O   UNL     1     -10.435  14.200  67.242  1.00  0.00    -0.269 OA 
HETATM   12  C   UNL     1     -11.325  14.366  64.975  1.00  0.00    -0.373 A  
HETATM   13  C   UNL     1     -11.017  13.643  66.134  1.00  0.00    -0.284 A  
HETATM   14  C   UNL     1     -11.938  13.708  63.899  1.00  0.00    -0.455 A  
ENDBRANCH   2   4
BRANCH   2  15
HETATM   15  C   UNL     1      -8.221  15.385  69.031  1.00  0.00    -0.217 C  
BRANCH  15  16
HETATM   16  N   UNL     1      -7.382  14.732  68.011  1.00  0.00    -0.119 NA 
HETATM   17  H   UNL     1      -6.627  15.337  67.686  1.00  0.00     0.000 HD 
BRANCH  16  18
HETATM   18  C   UNL     1      -6.883  13.451  68.541  1.00  0.00    -0.099 C  
BRANCH  18  19
HETATM   19  C   UNL     1      -6.771  12.388  67.429  1.00  0.00    -0.152 C  
HETATM   20  H   UNL     1      -5.527  10.936  66.980  1.00  0.00     0.000 HD 
HETATM   21  O   UNL     1      -5.596  11.591  67.665  1.00  0.00    -0.046 OA 
BRANCH  19  22
HETATM   22  C   UNL     1      -8.009  11.463  67.362  1.00  0.00    -0.139 C  
HETATM   23  C   UNL     1      -9.908  10.433  68.581  1.00  0.00    -0.183 C  
HETATM   24  C   UNL     1      -8.643  11.257  68.739  1.00  0.00    -0.109 C  
HETATM   25  C   UNL     1      -9.632   9.234  67.723  1.00  0.00    -0.167 A  
HETATM   26  C   UNL     1      -8.518   9.194  66.874  1.00  0.00    -0.123 A  
HETATM   27  O   UNL     1      -7.598  10.206  66.783  1.00  0.00    -0.101 OA 
HETATM   28  C   UNL     1      -8.267   8.064  66.091  1.00  0.00    -0.116 A  
HETATM   29  C   UNL     1      -9.138   6.976  66.135  1.00  0.00    -0.149 A  
HETATM   30  C   UNL     1     -10.251   7.025  66.965  1.00  0.00    -0.260 A  
HETATM   31  F   UNL     1     -11.089   5.980  67.011  1.00  0.00    -0.351 F  
HETATM   32  C   UNL     1     -10.508   8.140  67.755  1.00  0.00    -0.279 A  
ENDBRANCH  19  22
ENDBRANCH  18  19
ENDBRANCH  16  18
ENDBRANCH  15  16
ENDBRANCH   2  15
TORSDOF 6
ENDMDL
MODEL      202
REMARK 921   NORMALIZED FREE ENERGY PREDICTED BY IDOCK:   -5.21 KCAL/MOL
REMARK 922        TOTAL FREE ENERGY PREDICTED BY IDOCK:   -8.23 KCAL/MOL
REMARK 923 INTER-LIGAND FREE ENERGY PREDICTED BY IDOCK:   -7.06 KCAL/MOL
REMARK 924 INTRA-LIGAND FREE ENERGY PREDICTED BY IDOCK:   -1.16 KCAL/MOL
REMARK 927      BINDING AFFINITY PREDICTED BY RF-SCORE:    0.00 PKD
ROOT
HETATM    1  O   UNL     1     -11.719   6.449  69.290  1.00  0.00    -0.608 OA 
HETATM    2  C   UNL     1     -10.596   7.329  69.136  1.00  0.00    -0.208 C  
HETATM    3  H   UNL     1     -12.172   6.363  68.460  1.00  0.00     0.000 HD 
ENDROOT
BRANCH   2   4
HETATM    4  C   UNL     1      -9.676   6.809  68.008  1.00  0.00    -0.124 C  
HETATM    5  C   UNL     1      -8.273   3.586  64.470  1.00  0.00    -0.090 A  
HETATM    6  C   UNL     1      -8.846   2.830  65.485  1.00  0.00    -0.132 A  
HETATM    7  C   UNL     1      -9.812   7.620  66.716  1.00  0.00    -0.307 C  
HETATM    8  C   UNL     1      -8.782   7.128  65.715  1.00  0.00    -0.125 C  
HETATM    9  F   UNL     1      -7.742   2.969  63.405  1.00  0.00    -0.059 F  
HETATM   10  C   UNL     1      -9.403   3.478  66.591  1.00  0.00    -0.194 A  
HETATM   11  O   UNL     1      -9.964   5.417  67.783  1.00  0.00    -0.142 OA 
HETATM   12  C   UNL     1      -8.810   5.629  65.642  1.00  0.00    -0.150 A  
HETATM   13  C   UNL     1      -9.375   4.870  66.674  1.00  0.00    -0.140 A  
HETATM   14  C   UNL     1      -8.246   4.975  64.538  1.00  0.00    -0.126 A  
ENDBRANCH   2   4
BRANCH   2  15
HETATM   15  C   UNL     1      -9.860   7.469  70.484  1.00  0.00    -0.183 C  
BRANCH  15  16
HETATM   16  N   UNL     1      -9.061   8.706  70.555  1.00  0.00    -0.154 NA 
HETATM   17  H   UNL     1      -8.130   8.589  70.155  1.00  0.00     0.000 HD 
BRANCH  16  18
HETATM   18  C   UNL     1      -9.810   9.804  69.918  1.00  0.00    -0.243 C  
BRANCH  18  19
HETATM   19  C   UNL     1      -8.869  10.759  69.157  1.00  0.00    -0.086 C  
HETATM   20  H   UNL     1      -7.267  10.571  68.035  1.00  0.00     0.000 HD 
HETATM   21  O   UNL     1      -7.847   9.983  68.503  1.00  0.00    -0.090 OA 
BRANCH  19  22
HETATM   22  C   UNL     1      -9.611  11.613  68.103  1.00  0.00    -0.190 C  
HETATM   23  C   UNL     1     -11.675  12.853  67.505  1.00  0.00    -0.422 C  
HETATM   24  C   UNL     1     -11.046  11.926  68.530  1.00  0.00    -0.290 C  
HETATM   25  C   UNL     1     -11.428  12.328  66.122  1.00  0.00    -0.429 A  
HETATM   26  C   UNL     1     -10.401  11.407  65.871  1.00  0.00    -0.250 A  
HETATM   27  O   UNL     1      -9.583  10.901  66.847  1.00  0.00    -0.174 OA 
HETATM   28  C   UNL     1     -10.192  10.916  64.580  1.00  0.00    -0.422 A  
HETATM   29  C   UNL     1     -10.992  11.358  63.526  1.00  0.00    -0.406 A  
HETATM   30  C   UNL     1     -11.998  12.284  63.774  1.00  0.00    -0.519 A  
HETATM   31  F   UNL     1     -12.770  12.709  62.765  1.00  0.00    -0.273 F  
HETATM   32  C   UNL     1     -12.221  12.774  65.057  1.00  0.00    -0.527 A  
ENDBRANCH  19  22
ENDBRANCH  18  19
ENDBRANCH  16  18
ENDBRANCH  15  16
ENDBRANCH   2  15
TORSDOF 6
ENDMDL
MODEL      203
REMARK 921   NORMALIZED FREE ENERGY PREDICTED BY IDOCK:   -5.21 KCAL/MOL
REMARK 922        TOTAL FREE ENERGY PREDICTED BY IDOCK:   -8.23 KCAL/MOL
REMARK 923 INTER-LIGAND FREE ENERGY PREDICTED BY IDOCK:   -7.38 KCAL/MOL
REMARK 924 INTRA-LIGAND FREE ENERGY PREDICTED BY IDOCK:   -0.85 KCAL/MOL
REMARK 927      BINDING AFFINITY PREDICTED BY RF-SCORE:    0.00 PKD
ROOT
HETATM    1  O   UNL     1     -12.193  12.889  69.920  1.00  0.00    -0.271 OA 
HETATM    2  C   UNL     1     -11.206  13.043  68.891  1.00  0.00    -0.278 C  
HETATM    3  H   UNL     1     -11.825  13.147  70.756  1.00  0.00     0.000 HD 
ENDROOT
BRANCH   2   4
HETATM    4  C   UNL     1     -10.681  14.497  68.885  1.00  0.00    -0.254 C  
HETATM    5  C   UNL     1     -10.188  19.097  67.023  1.00  0.00    -0.393 A  
HETATM    6  C   UNL     1     -10.254  18.238  65.934  1.00  0.00    -0.236 A  
HETATM    7  C   UNL     1     -11.377  15.378  69.928  1.00  0.00    -0.318 C  
HETATM    8  C   UNL     1     -10.709  16.741  69.944  1.00  0.00    -0.123 C  
HETATM    9  F   UNL     1      -9.987  20.407  66.821  1.00  0.00    -0.529 F  
HETATM   10  C   UNL     1     -10.468  16.874  66.149  1.00  0.00    -0.276 A  
HETATM   11  O   UNL     1     -10.834  15.038  67.560  1.00  0.00    -0.281 OA 
HETATM   12  C   UNL     1     -10.553  17.255  68.543  1.00  0.00    -0.350 A  
HETATM   13  C   UNL     1     -10.605  16.383  67.448  1.00  0.00    -0.306 A  
HETATM   14  C   UNL     1     -10.331  18.621  68.322  1.00  0.00    -0.388 A  
ENDBRANCH   2   4
BRANCH   2  15
HETATM   15  C   UNL     1     -11.804  12.624  67.532  1.00  0.00    -0.334 C  
BRANCH  15  16
HETATM   16  N   UNL     1     -11.095  11.473  66.945  1.00  0.00    -0.296 NA 
HETATM   17  H   UNL     1     -11.610  10.600  67.061  1.00  0.00     0.000 HD 
BRANCH  16  18
HETATM   18  C   UNL     1     -10.792  11.760  65.531  1.00  0.00    -0.297 C  
BRANCH  18  19
HETATM   19  C   UNL     1     -10.261  10.508  64.805  1.00  0.00    -0.303 C  
HETATM   20  H   UNL     1      -8.986  10.148  63.354  1.00  0.00     0.000 HD 
HETATM   21  O   UNL     1      -9.313  10.919  63.802  1.00  0.00    -0.218 OA 
BRANCH  19  22
HETATM   22  C   UNL     1      -9.582   9.504  65.766  1.00  0.00    -0.270 C  
HETATM   23  C   UNL     1      -7.871   7.733  66.059  1.00  0.00    -0.100 C  
HETATM   24  C   UNL     1      -8.574   8.613  65.041  1.00  0.00    -0.185 C  
HETATM   25  C   UNL     1      -8.882   7.095  66.966  1.00  0.00    -0.125 A  
HETATM   26  C   UNL     1     -10.174   7.624  67.094  1.00  0.00    -0.290 A  
HETATM   27  O   UNL     1     -10.617   8.718  66.396  1.00  0.00    -0.132 OA 
HETATM   28  C   UNL     1     -11.108   7.011  67.932  1.00  0.00    -0.135 A  
HETATM   29  C   UNL     1     -10.753   5.879  68.665  1.00  0.00    -0.339 A  
HETATM   30  C   UNL     1      -9.467   5.367  68.550  1.00  0.00    -0.123 A  
HETATM   31  F   UNL     1      -9.123   4.278  69.251  1.00  0.00    -0.122 F  
HETATM   32  C   UNL     1      -8.530   5.963  67.713  1.00  0.00    -0.107 A  
ENDBRANCH  19  22
ENDBRANCH  18  19
ENDBRANCH  16  18
ENDBRANCH  15  16
ENDBRANCH   2  15
TORSDOF 6
ENDMDL
MODEL      204
REMARK 921   NORMALIZED FREE ENERGY PREDICTED BY IDOCK:   -5.19 KCAL/MOL
REMARK 922        TOTAL FREE ENERGY PREDICTED BY IDOCK:   -8.19 KCAL/MOL
REMARK 923 INTER-LIGAND FREE ENERGY PREDICTED BY IDOCK:   -7.79 KCAL/MOL
REMARK 924 INTRA-LIGAND FREE ENERGY PREDICTED BY IDOCK:   -0.41 KCAL/MOL
REMARK 927      BINDING AFFINITY PREDICTED BY RF-SCORE:    0.00 PKD
ROOT
HETATM    1  O   UNL     1     -11.898  10.154  68.068  1.00  0.00    -0.638 OA 
HETATM    2  C   UNL     1     -11.276  10.501  69.314  1.00  0.00    -0.262 C  
HETATM    3  H   UNL     1     -11.494   9.369  67.718  1.00  0.00     0.000 HD 
ENDROOT
BRANCH   2   4
HETATM    4  C   UNL     1     -11.358   9.304  70.289  1.00  0.00    -0.203 C  
HETATM    5  C   UNL     1      -9.505   6.027  73.559  1.00  0.00    -0.139 A  
HETATM    6  C   UNL     1      -8.497   6.274  72.637  1.00  0.00    -0.123 A  
HETATM    7  C   UNL     1     -12.083   9.656  71.592  1.00  0.00    -0.481 C  
HETATM    8  C   UNL     1     -12.235   8.396  72.425  1.00  0.00    -0.430 C  
HETATM    9  F   UNL     1      -9.307   5.123  74.529  1.00  0.00    -0.117 F  
HETATM   10  C   UNL     1      -8.706   7.219  71.629  1.00  0.00    -0.122 A  
HETATM   11  O   UNL     1     -10.025   8.826  70.546  1.00  0.00    -0.175 OA 
HETATM   12  C   UNL     1     -10.929   7.662  72.492  1.00  0.00    -0.377 A  
HETATM   13  C   UNL     1      -9.920   7.902  71.551  1.00  0.00    -0.173 A  
HETATM   14  C   UNL     1     -10.717   6.706  73.496  1.00  0.00    -0.301 A  
ENDBRANCH   2   4
BRANCH   2  15
HETATM   15  C   UNL     1     -11.933  11.775  69.883  1.00  0.00    -0.332 C  
BRANCH  15  16
HETATM   16  N   UNL     1     -11.242  13.000  69.441  1.00  0.00    -0.436 NA 
HETATM   17  H   UNL     1     -10.851  13.527  70.223  1.00  0.00     0.000 HD 
BRANCH  16  18
HETATM   18  C   UNL     1     -10.222  12.647  68.438  1.00  0.00    -0.232 C  
BRANCH  18  19
HETATM   19  C   UNL     1     -10.505  13.331  67.085  1.00  0.00    -0.248 C  
HETATM   20  H   UNL     1     -12.082  13.626  65.951  1.00  0.00     0.000 HD 
HETATM   21  O   UNL     1     -11.908  13.205  66.784  1.00  0.00    -0.360 OA 
BRANCH  19  22
HETATM   22  C   UNL     1     -10.116  14.828  67.081  1.00  0.00    -0.240 C  
HETATM   23  C   UNL     1     -10.340  17.035  65.973  1.00  0.00    -0.324 C  
HETATM   24  C   UNL     1     -10.666  15.557  65.855  1.00  0.00    -0.346 C  
HETATM   25  C   UNL     1      -8.896  17.212  66.334  1.00  0.00    -0.288 A  
HETATM   26  C   UNL     1      -8.159  16.165  66.904  1.00  0.00    -0.240 A  
HETATM   27  O   UNL     1      -8.676  14.917  67.141  1.00  0.00    -0.192 OA 
HETATM   28  C   UNL     1      -6.810  16.340  67.223  1.00  0.00    -0.230 A  
HETATM   29  C   UNL     1      -6.193  17.570  66.996  1.00  0.00    -0.194 A  
HETATM   30  C   UNL     1      -6.930  18.613  66.447  1.00  0.00    -0.226 A  
HETATM   31  F   UNL     1      -6.340  19.795  66.226  1.00  0.00    -0.178 F  
HETATM   32  C   UNL     1      -8.271  18.448  66.118  1.00  0.00    -0.181 A  
ENDBRANCH  19  22
ENDBRANCH  18  19
ENDBRANCH  16  18
ENDBRANCH  15  16
ENDBRANCH   2  15
TORSDOF 6
ENDMDL
MODEL      205
REMARK 921   NORMALIZED FREE ENERGY PREDICTED BY IDOCK:   -5.19 KCAL/MOL
REMARK 922        TOTAL FREE ENERGY PREDICTED BY IDOCK:   -8.19 KCAL/MOL
REMARK 923 INTER-LIGAND FREE ENERGY PREDICTED BY IDOCK:   -7.61 KCAL/MOL
REMARK 924 INTRA-LIGAND FREE ENERGY PREDICTED BY IDOCK:   -0.58 KCAL/MOL
REMARK 927      BINDING AFFINITY PREDICTED BY RF-SCORE:    0.00 PKD
ROOT
HETATM    1  O   UNL     1     -10.849  13.136  65.077  1.00  0.00    -0.292 OA 
HETATM    2  C   UNL     1     -11.760  12.716  66.102  1.00  0.00    -0.406 C  
HETATM    3  H   UNL     1     -11.165  13.937  64.677  1.00  0.00     0.000 HD 
ENDROOT
BRANCH   2   4
HETATM    4  C   UNL     1     -11.951  13.856  67.129  1.00  0.00    -0.420 C  
HETATM    5  C   UNL     1     -12.085  15.806  71.716  1.00  0.00    -0.464 A  
HETATM    6  C   UNL     1     -12.553  14.504  71.830  1.00  0.00    -0.417 A  
HETATM    7  C   UNL     1     -10.790  14.855  67.122  1.00  0.00    -0.311 C  
HETATM    8  C   UNL     1     -11.124  16.003  68.057  1.00  0.00    -0.334 C  
HETATM    9  F   UNL     1     -12.071  16.600  72.796  1.00  0.00    -0.547 F  
HETATM   10  C   UNL     1     -12.563  13.678  70.703  1.00  0.00    -0.366 A  
HETATM   11  O   UNL     1     -12.134  13.276  68.433  1.00  0.00    -0.333 OA 
HETATM   12  C   UNL     1     -11.623  15.473  69.368  1.00  0.00    -0.366 A  
HETATM   13  C   UNL     1     -12.110  14.163  69.476  1.00  0.00    -0.340 A  
HETATM   14  C   UNL     1     -11.624  16.299  70.500  1.00  0.00    -0.223 A  
ENDBRANCH   2   4
BRANCH   2  15
HETATM   15  C   UNL     1     -11.245  11.415  66.750  1.00  0.00    -0.252 C  
BRANCH  15  16
HETATM   16  N   UNL     1      -9.895  11.057  66.281  1.00  0.00    -0.208 NA 
HETATM   17  H   UNL     1      -9.162  11.466  66.861  1.00  0.00     0.000 HD 
BRANCH  16  18
HETATM   18  C   UNL     1      -9.785   9.589  66.194  1.00  0.00    -0.258 C  
BRANCH  18  19
HETATM   19  C   UNL     1      -8.725   9.046  67.173  1.00  0.00    -0.116 C  
HETATM   20  H   UNL     1      -8.097   9.505  68.977  1.00  0.00     0.000 HD 
HETATM   21  O   UNL     1      -8.751   9.840  68.374  1.00  0.00    -0.118 OA 
BRANCH  19  22
HETATM   22  C   UNL     1      -8.957   7.561  67.539  1.00  0.00    -0.126 C  
HETATM   23  C   UNL     1     -10.597   5.735  67.895  1.00  0.00    -0.304 C  
HETATM   24  C   UNL     1     -10.444   7.225  67.643  1.00  0.00    -0.310 C  
HETATM   25  C   UNL     1      -9.678   5.308  69.001  1.00  0.00    -0.217 A  
HETATM   26  C   UNL     1      -8.574   6.091  69.366  1.00  0.00    -0.122 A  
HETATM   27  O   UNL     1      -8.271   7.293  68.781  1.00  0.00    -0.126 OA 
HETATM   28  C   UNL     1      -7.734   5.686  70.407  1.00  0.00    -0.094 A  
HETATM   29  C   UNL     1      -7.978   4.487  71.075  1.00  0.00    -0.077 A  
HETATM   30  C   UNL     1      -9.062   3.704  70.700  1.00  0.00    -0.114 A  
HETATM   31  F   UNL     1      -9.301   2.552  71.341  1.00  0.00    -0.146 F  
HETATM   32  C   UNL     1      -9.910   4.100  69.671  1.00  0.00    -0.208 A  
ENDBRANCH  19  22
ENDBRANCH  18  19
ENDBRANCH  16  18
ENDBRANCH  15  16
ENDBRANCH   2  15
TORSDOF 6
ENDMDL
MODEL      206
REMARK 921   NORMALIZED FREE ENERGY PREDICTED BY IDOCK:   -5.18 KCAL/MOL
REMARK 922        TOTAL FREE ENERGY PREDICTED BY IDOCK:   -8.18 KCAL/MOL
REMARK 923 INTER-LIGAND FREE ENERGY PREDICTED BY IDOCK:   -7.73 KCAL/MOL
REMARK 924 INTRA-LIGAND FREE ENERGY PREDICTED BY IDOCK:   -0.45 KCAL/MOL
REMARK 927      BINDING AFFINITY PREDICTED BY RF-SCORE:    0.00 PKD
ROOT
HETATM    1  O   UNL     1     -12.391  10.847  68.597  1.00  0.00    -0.805 OA 
HETATM    2  C   UNL     1     -11.035  10.581  68.211  1.00  0.00    -0.263 C  
HETATM    3  H   UNL     1     -12.875  10.032  68.643  1.00  0.00     0.000 HD 
ENDROOT
BRANCH   2   4
HETATM    4  C   UNL     1     -10.402   9.568  69.193  1.00  0.00    -0.207 C  
HETATM    5  C   UNL     1      -8.901   5.038  70.641  1.00  0.00    -0.126 A  
HETATM    6  C   UNL     1     -10.048   4.847  69.881  1.00  0.00    -0.332 A  
HETATM    7  C   UNL     1      -8.880   9.714  69.288  1.00  0.00    -0.164 C  
HETATM    8  C   UNL     1      -8.364   8.778  70.367  1.00  0.00    -0.146 C  
HETATM    9  F   UNL     1      -8.309   3.985  71.222  1.00  0.00    -0.073 F  
HETATM   10  C   UNL     1     -10.659   5.948  69.275  1.00  0.00    -0.379 A  
HETATM   11  O   UNL     1     -10.775   8.238  68.788  1.00  0.00    -0.161 OA 
HETATM   12  C   UNL     1      -8.957   7.412  70.192  1.00  0.00    -0.148 A  
HETATM   13  C   UNL     1     -10.122   7.225  69.438  1.00  0.00    -0.183 A  
HETATM   14  C   UNL     1      -8.352   6.306  70.806  1.00  0.00    -0.126 A  
ENDBRANCH   2   4
BRANCH   2  15
HETATM   15  C   UNL     1     -10.248  11.905  68.136  1.00  0.00    -0.199 C  
BRANCH  15  16
HETATM   16  N   UNL     1     -11.137  13.080  68.130  1.00  0.00    -0.243 NA 
HETATM   17  H   UNL     1     -12.040  12.884  68.563  1.00  0.00     0.000 HD 
BRANCH  16  18
HETATM   18  C   UNL     1     -10.445  14.215  68.768  1.00  0.00    -0.247 C  
BRANCH  18  19
HETATM   19  C   UNL     1     -11.400  15.406  68.983  1.00  0.00    -0.316 C  
HETATM   20  H   UNL     1     -12.043  16.445  70.521  1.00  0.00     0.000 HD 
HETATM   21  O   UNL     1     -11.455  15.711  70.389  1.00  0.00    -0.290 OA 
BRANCH  19  22
HETATM   22  C   UNL     1     -10.961  16.669  68.205  1.00  0.00    -0.327 C  
HETATM   23  C   UNL     1     -10.310  17.650  66.022  1.00  0.00    -0.305 C  
HETATM   24  C   UNL     1     -10.625  16.354  66.747  1.00  0.00    -0.238 C  
HETATM   25  C   UNL     1      -9.342  18.464  66.829  1.00  0.00    -0.296 A  
HETATM   26  C   UNL     1      -9.169  18.231  68.200  1.00  0.00    -0.301 A  
HETATM   27  O   UNL     1      -9.828  17.246  68.890  1.00  0.00    -0.290 OA 
HETATM   28  C   UNL     1      -8.255  18.989  68.936  1.00  0.00    -0.303 A  
HETATM   29  C   UNL     1      -7.523  19.999  68.312  1.00  0.00    -0.279 A  
HETATM   30  C   UNL     1      -7.709  20.240  66.957  1.00  0.00    -0.321 A  
HETATM   31  F   UNL     1      -7.006  21.208  66.354  1.00  0.00    -0.280 F  
HETATM   32  C   UNL     1      -8.610  19.487  66.212  1.00  0.00    -0.382 A  
ENDBRANCH  19  22
ENDBRANCH  18  19
ENDBRANCH  16  18
ENDBRANCH  15  16
ENDBRANCH   2  15
TORSDOF 6
ENDMDL
MODEL      207
REMARK 921   NORMALIZED FREE ENERGY PREDICTED BY IDOCK:   -5.17 KCAL/MOL
REMARK 922        TOTAL FREE ENERGY PREDICTED BY IDOCK:   -8.17 KCAL/MOL
REMARK 923 INTER-LIGAND FREE ENERGY PREDICTED BY IDOCK:   -6.84 KCAL/MOL
REMARK 924 INTRA-LIGAND FREE ENERGY PREDICTED BY IDOCK:   -1.33 KCAL/MOL
REMARK 927      BINDING AFFINITY PREDICTED BY RF-SCORE:    0.00 PKD
ROOT
HETATM    1  O   UNL     1     -10.526   5.341  65.516  1.00  0.00    -0.426 OA 
HETATM    2  C   UNL     1      -9.235   5.600  66.086  1.00  0.00    -0.159 C  
HETATM    3  H   UNL     1     -11.101   4.982  66.181  1.00  0.00     0.000 HD 
ENDROOT
BRANCH   2   4
HETATM    4  C   UNL     1      -9.382   6.533  67.310  1.00  0.00    -0.121 C  
HETATM    5  C   UNL     1     -11.097   7.811  71.815  1.00  0.00    -0.245 A  
HETATM    6  C   UNL     1     -12.110   7.087  71.200  1.00  0.00    -0.412 A  
HETATM    7  C   UNL     1      -8.116   6.579  68.170  1.00  0.00    -0.113 C  
HETATM    8  C   UNL     1      -8.302   7.615  69.264  1.00  0.00    -0.134 C  
HETATM    9  F   UNL     1     -11.306   8.343  73.027  1.00  0.00    -0.398 F  
HETATM   10  C   UNL     1     -11.886   6.530  69.939  1.00  0.00    -0.223 A  
HETATM   11  O   UNL     1     -10.521   6.107  68.080  1.00  0.00    -0.178 OA 
HETATM   12  C   UNL     1      -9.632   7.426  69.933  1.00  0.00    -0.163 A  
HETATM   13  C   UNL     1     -10.657   6.708  69.303  1.00  0.00    -0.238 A  
HETATM   14  C   UNL     1      -9.864   7.989  71.195  1.00  0.00    -0.198 A  
ENDBRANCH   2   4
BRANCH   2  15
HETATM   15  C   UNL     1      -8.300   6.182  65.006  1.00  0.00    -0.112 C  
BRANCH  15  16
HETATM   16  N   UNL     1      -8.765   7.493  64.517  1.00  0.00    -0.285 NA 
HETATM   17  H   UNL     1      -9.665   7.758  64.917  1.00  0.00     0.000 HD 
BRANCH  16  18
HETATM   18  C   UNL     1      -7.721   8.502  64.770  1.00  0.00    -0.107 C  
BRANCH  18  19
HETATM   19  C   UNL     1      -8.165   9.901  64.295  1.00  0.00    -0.161 C  
HETATM   20  H   UNL     1      -9.566  10.617  63.119  1.00  0.00     0.000 HD 
HETATM   21  O   UNL     1      -9.292   9.755  63.411  1.00  0.00    -0.253 OA 
BRANCH  19  22
HETATM   22  C   UNL     1      -8.554  10.832  65.467  1.00  0.00    -0.176 C  
HETATM   23  C   UNL     1      -8.842  11.087  67.918  1.00  0.00    -0.134 C  
HETATM   24  C   UNL     1      -8.561  10.092  66.806  1.00  0.00    -0.129 C  
HETATM   25  C   UNL     1     -10.022  11.939  67.554  1.00  0.00    -0.197 A  
HETATM   26  C   UNL     1     -10.444  12.058  66.223  1.00  0.00    -0.238 A  
HETATM   27  O   UNL     1      -9.850  11.400  65.177  1.00  0.00    -0.241 OA 
HETATM   28  C   UNL     1     -11.554  12.845  65.901  1.00  0.00    -0.423 A  
HETATM   29  C   UNL     1     -12.236  13.534  66.903  1.00  0.00    -0.377 A  
HETATM   30  C   UNL     1     -11.805  13.428  68.220  1.00  0.00    -0.358 A  
HETATM   31  F   UNL     1     -12.459  14.087  69.186  1.00  0.00    -0.373 F  
HETATM   32  C   UNL     1     -10.707  12.642  68.554  1.00  0.00    -0.271 A  
ENDBRANCH  19  22
ENDBRANCH  18  19
ENDBRANCH  16  18
ENDBRANCH  15  16
ENDBRANCH   2  15
TORSDOF 6
ENDMDL
MODEL      208
REMARK 921   NORMALIZED FREE ENERGY PREDICTED BY IDOCK:   -5.16 KCAL/MOL
REMARK 922        TOTAL FREE ENERGY PREDICTED BY IDOCK:   -8.16 KCAL/MOL
REMARK 923 INTER-LIGAND FREE ENERGY PREDICTED BY IDOCK:   -7.19 KCAL/MOL
REMARK 924 INTRA-LIGAND FREE ENERGY PREDICTED BY IDOCK:   -0.97 KCAL/MOL
REMARK 927      BINDING AFFINITY PREDICTED BY RF-SCORE:    0.00 PKD
ROOT
HETATM    1  O   UNL     1     -11.180  16.232  71.756  1.00  0.00    -0.149 OA 
HETATM    2  C   UNL     1     -12.100  15.889  70.710  1.00  0.00    -0.355 C  
HETATM    3  H   UNL     1     -11.601  16.122  72.600  1.00  0.00     0.000 HD 
ENDROOT
BRANCH   2   4
HETATM    4  C   UNL     1     -12.626  14.452  70.928  1.00  0.00    -0.352 C  
HETATM    5  C   UNL     1     -12.251   9.480  70.971  1.00  0.00    -0.304 A  
HETATM    6  C   UNL     1     -11.472   9.923  69.910  1.00  0.00    -0.234 A  
HETATM    7  C   UNL     1     -12.775  14.099  72.411  1.00  0.00    -0.357 C  
HETATM    8  C   UNL     1     -13.419  12.729  72.528  1.00  0.00    -0.372 C  
HETATM    9  F   UNL     1     -12.390   8.164  71.185  1.00  0.00    -0.307 F  
HETATM   10  C   UNL     1     -11.327  11.295  69.693  1.00  0.00    -0.359 A  
HETATM   11  O   UNL     1     -11.746  13.532  70.258  1.00  0.00    -0.266 OA 
HETATM   12  C   UNL     1     -12.737  11.758  71.612  1.00  0.00    -0.357 A  
HETATM   13  C   UNL     1     -11.965  12.208  70.533  1.00  0.00    -0.216 A  
HETATM   14  C   UNL     1     -12.886  10.380  71.820  1.00  0.00    -0.561 A  
ENDBRANCH   2   4
BRANCH   2  15
HETATM   15  C   UNL     1     -11.416  16.068  69.339  1.00  0.00    -0.336 C  
BRANCH  15  16
HETATM   16  N   UNL     1     -10.392  17.127  69.363  1.00  0.00    -0.256 NA 
HETATM   17  H   UNL     1      -9.515  16.808  69.776  1.00  0.00     0.000 HD 
BRANCH  16  18
HETATM   18  C   UNL     1     -10.209  17.657  68.000  1.00  0.00    -0.362 C  
BRANCH  18  19
HETATM   19  C   UNL     1      -8.715  17.793  67.645  1.00  0.00    -0.244 C  
HETATM   20  H   UNL     1      -7.193  18.843  68.308  1.00  0.00     0.000 HD 
HETATM   21  O   UNL     1      -8.114  18.760  68.527  1.00  0.00    -0.326 OA 
BRANCH  19  22
HETATM   22  C   UNL     1      -7.951  16.453  67.762  1.00  0.00    -0.149 C  
HETATM   23  C   UNL     1      -7.955  14.009  67.341  1.00  0.00    -0.191 C  
HETATM   24  C   UNL     1      -8.801  15.269  67.303  1.00  0.00    -0.212 C  
HETATM   25  C   UNL     1      -7.234  13.918  68.653  1.00  0.00    -0.108 A  
HETATM   26  C   UNL     1      -7.051  15.051  69.457  1.00  0.00    -0.192 A  
HETATM   27  O   UNL     1      -7.531  16.294  69.134  1.00  0.00    -0.205 OA 
HETATM   28  C   UNL     1      -6.389  14.948  70.683  1.00  0.00     0.012 A  
HETATM   29  C   UNL     1      -5.886  13.718  71.105  1.00  0.00    -0.172 A  
HETATM   30  C   UNL     1      -6.054  12.599  70.298  1.00  0.00    -0.066 A  
HETATM   31  F   UNL     1      -5.574  11.415  70.701  1.00  0.00    -0.099 F  
HETATM   32  C   UNL     1      -6.717  12.687  69.079  1.00  0.00    -0.097 A  
ENDBRANCH  19  22
ENDBRANCH  18  19
ENDBRANCH  16  18
ENDBRANCH  15  16
ENDBRANCH   2  15
TORSDOF 6
ENDMDL
MODEL      209
REMARK 921   NORMALIZED FREE ENERGY PREDICTED BY IDOCK:   -5.11 KCAL/MOL
REMARK 922        TOTAL FREE ENERGY PREDICTED BY IDOCK:   -8.09 KCAL/MOL
REMARK 923 INTER-LIGAND FREE ENERGY PREDICTED BY IDOCK:   -7.42 KCAL/MOL
REMARK 924 INTRA-LIGAND FREE ENERGY PREDICTED BY IDOCK:   -0.68 KCAL/MOL
REMARK 927      BINDING AFFINITY PREDICTED BY RF-SCORE:    0.00 PKD
ROOT
HETATM    1  O   UNL     1      -8.906   8.910  67.702  1.00  0.00    -0.133 OA 
HETATM    2  C   UNL     1      -9.811   9.743  68.440  1.00  0.00    -0.152 C  
HETATM    3  H   UNL     1      -8.335   8.448  68.304  1.00  0.00     0.000 HD 
ENDROOT
BRANCH   2   4
HETATM    4  C   UNL     1     -10.594   8.887  69.462  1.00  0.00    -0.228 C  
HETATM    5  C   UNL     1     -11.112   5.222  72.804  1.00  0.00    -0.286 A  
HETATM    6  C   UNL     1     -10.219   4.757  71.847  1.00  0.00    -0.261 A  
HETATM    7  C   UNL     1     -10.871   9.636  70.769  1.00  0.00    -0.400 C  
HETATM    8  C   UNL     1     -11.754   8.773  71.653  1.00  0.00    -0.402 C  
HETATM    9  F   UNL     1     -11.492   4.412  73.802  1.00  0.00    -0.330 F  
HETATM   10  C   UNL     1      -9.821   5.606  70.811  1.00  0.00    -0.239 A  
HETATM   11  O   UNL     1      -9.861   7.672  69.703  1.00  0.00    -0.177 OA 
HETATM   12  C   UNL     1     -11.213   7.375  71.714  1.00  0.00    -0.277 A  
HETATM   13  C   UNL     1     -10.324   6.905  70.738  1.00  0.00    -0.203 A  
HETATM   14  C   UNL     1     -11.615   6.517  72.747  1.00  0.00    -0.113 A  
ENDBRANCH   2   4
BRANCH   2  15
HETATM   15  C   UNL     1     -10.738  10.494  67.463  1.00  0.00    -0.276 C  
BRANCH  15  16
HETATM   16  N   UNL     1     -10.180  11.796  67.057  1.00  0.00    -0.212 NA 
HETATM   17  H   UNL     1     -10.761  12.266  66.362  1.00  0.00     0.000 HD 
BRANCH  16  18
HETATM   18  C   UNL     1      -9.961  12.624  68.256  1.00  0.00    -0.229 C  
BRANCH  18  19
HETATM   19  C   UNL     1     -11.134  13.597  68.490  1.00  0.00    -0.275 C  
HETATM   20  H   UNL     1     -12.604  13.756  69.783  1.00  0.00     0.000 HD 
HETATM   21  O   UNL     1     -11.881  13.156  69.639  1.00  0.00    -0.304 OA 
BRANCH  19  22
HETATM   22  C   UNL     1     -10.665  15.053  68.715  1.00  0.00    -0.241 C  
HETATM   23  C   UNL     1     -10.646  17.389  67.880  1.00  0.00    -0.383 C  
HETATM   24  C   UNL     1     -11.038  15.961  67.543  1.00  0.00    -0.235 C  
HETATM   25  C   UNL     1      -9.241  17.422  68.404  1.00  0.00    -0.277 A  
HETATM   26  C   UNL     1      -8.629  16.265  68.906  1.00  0.00    -0.260 A  
HETATM   27  O   UNL     1      -9.237  15.036  68.930  1.00  0.00    -0.192 OA 
HETATM   28  C   UNL     1      -7.315  16.309  69.379  1.00  0.00    -0.173 A  
HETATM   29  C   UNL     1      -6.610  17.512  69.373  1.00  0.00    -0.207 A  
HETATM   30  C   UNL     1      -7.224  18.661  68.890  1.00  0.00    -0.285 A  
HETATM   31  F   UNL     1      -6.549  19.818  68.881  1.00  0.00    -0.298 F  
HETATM   32  C   UNL     1      -8.529  18.629  68.410  1.00  0.00    -0.366 A  
ENDBRANCH  19  22
ENDBRANCH  18  19
ENDBRANCH  16  18
ENDBRANCH  15  16
ENDBRANCH   2  15
TORSDOF 6
ENDMDL
MODEL      210
REMARK 921   NORMALIZED FREE ENERGY PREDICTED BY IDOCK:   -5.11 KCAL/MOL
REMARK 922        TOTAL FREE ENERGY PREDICTED BY IDOCK:   -8.09 KCAL/MOL
REMARK 923 INTER-LIGAND FREE ENERGY PREDICTED BY IDOCK:   -5.60 KCAL/MOL
REMARK 924 INTRA-LIGAND FREE ENERGY PREDICTED BY IDOCK:   -2.48 KCAL/MOL
REMARK 927      BINDING AFFINITY PREDICTED BY RF-SCORE:    0.00 PKD
ROOT
HETATM    1  O   UNL     1      -9.585   3.616  68.823  1.00  0.00    -0.163 OA 
HETATM    2  C   UNL     1      -9.687   4.771  69.668  1.00  0.00    -0.202 C  
HETATM    3  H   UNL     1     -10.287   3.626  68.184  1.00  0.00     0.000 HD 
ENDROOT
BRANCH   2   4
HETATM    4  C   UNL     1      -9.685   6.053  68.803  1.00  0.00    -0.131 C  
HETATM    5  C   UNL     1      -8.030   9.015  65.150  1.00  0.00    -0.119 A  
HETATM    6  C   UNL     1      -6.916   8.360  65.658  1.00  0.00    -0.067 A  
HETATM    7  C   UNL     1     -10.866   6.106  67.829  1.00  0.00    -0.413 C  
HETATM    8  C   UNL     1     -10.860   7.450  67.122  1.00  0.00    -0.340 C  
HETATM    9  F   UNL     1      -7.873   9.935  64.187  1.00  0.00    -0.121 F  
HETATM   10  C   UNL     1      -7.084   7.399  66.659  1.00  0.00    -0.075 A  
HETATM   11  O   UNL     1      -8.429   6.137  68.106  1.00  0.00    -0.116 OA 
HETATM   12  C   UNL     1      -9.482   7.760  66.617  1.00  0.00    -0.263 A  
HETATM   13  C   UNL     1      -8.359   7.108  67.143  1.00  0.00    -0.118 A  
HETATM   14  C   UNL     1      -9.307   8.729  65.619  1.00  0.00    -0.219 A  
ENDBRANCH   2   4
BRANCH   2  15
HETATM   15  C   UNL     1      -8.546   4.755  70.706  1.00  0.00    -0.105 C  
BRANCH  15  16
HETATM   16  N   UNL     1      -7.861   6.057  70.798  1.00  0.00    -0.101 NA 
HETATM   17  H   UNL     1      -8.071   6.662  70.004  1.00  0.00     0.000 HD 
BRANCH  16  18
HETATM   18  C   UNL     1      -8.194   6.690  72.087  1.00  0.00    -0.105 C  
BRANCH  18  19
HETATM   19  C   UNL     1      -7.992   8.217  72.031  1.00  0.00    -0.134 C  
HETATM   20  H   UNL     1      -6.473   9.451  72.203  1.00  0.00     0.000 HD 
HETATM   21  O   UNL     1      -6.597   8.510  72.237  1.00  0.00    -0.083 OA 
BRANCH  19  22
HETATM   22  C   UNL     1      -8.448   8.830  70.686  1.00  0.00    -0.171 C  
HETATM   23  C   UNL     1      -7.926  10.377  68.819  1.00  0.00    -0.122 C  
HETATM   24  C   UNL     1      -7.476   9.900  70.188  1.00  0.00    -0.178 C  
HETATM   25  C   UNL     1      -9.394  10.685  68.843  1.00  0.00    -0.191 A  
HETATM   26  C   UNL     1     -10.226  10.161  69.841  1.00  0.00    -0.237 A  
HETATM   27  O   UNL     1      -9.774   9.372  70.867  1.00  0.00    -0.272 OA 
HETATM   28  C   UNL     1     -11.589  10.468  69.858  1.00  0.00    -0.384 A  
HETATM   29  C   UNL     1     -12.134  11.282  68.866  1.00  0.00    -0.292 A  
HETATM   30  C   UNL     1     -11.310  11.787  67.867  1.00  0.00    -0.292 A  
HETATM   31  F   UNL     1     -11.830  12.571  66.914  1.00  0.00    -0.396 F  
HETATM   32  C   UNL     1      -9.951  11.495  67.844  1.00  0.00    -0.193 A  
ENDBRANCH  19  22
ENDBRANCH  18  19
ENDBRANCH  16  18
ENDBRANCH  15  16
ENDBRANCH   2  15
TORSDOF 6
ENDMDL
MODEL      211
REMARK 921   NORMALIZED FREE ENERGY PREDICTED BY IDOCK:   -5.11 KCAL/MOL
REMARK 922        TOTAL FREE ENERGY PREDICTED BY IDOCK:   -8.09 KCAL/MOL
REMARK 923 INTER-LIGAND FREE ENERGY PREDICTED BY IDOCK:   -7.66 KCAL/MOL
REMARK 924 INTRA-LIGAND FREE ENERGY PREDICTED BY IDOCK:   -0.42 KCAL/MOL
REMARK 927      BINDING AFFINITY PREDICTED BY RF-SCORE:    0.00 PKD
ROOT
HETATM    1  O   UNL     1     -12.979  15.929  70.280  1.00  0.00    -0.673 OA 
HETATM    2  C   UNL     1     -11.840  15.059  70.206  1.00  0.00    -0.309 C  
HETATM    3  H   UNL     1     -12.717  16.765  70.647  1.00  0.00     0.000 HD 
ENDROOT
BRANCH   2   4
HETATM    4  C   UNL     1     -10.716  15.740  69.392  1.00  0.00    -0.266 C  
HETATM    5  C   UNL     1      -8.112  19.643  67.703  1.00  0.00    -0.290 A  
HETATM    6  C   UNL     1      -9.431  20.065  67.804  1.00  0.00    -0.486 A  
HETATM    7  C   UNL     1      -9.333  15.540  70.020  1.00  0.00     0.159 C  
HETATM    8  C   UNL     1      -8.283  16.122  69.089  1.00  0.00    -0.230 C  
HETATM    9  F   UNL     1      -7.187  20.477  67.208  1.00  0.00    -0.280 F  
HETATM   10  C   UNL     1     -10.392  19.194  68.324  1.00  0.00    -0.448 A  
HETATM   11  O   UNL     1     -11.029  17.137  69.251  1.00  0.00    -0.149 OA 
HETATM   12  C   UNL     1      -8.691  17.495  68.645  1.00  0.00    -0.258 A  
HETATM   13  C   UNL     1     -10.026  17.912  68.733  1.00  0.00    -0.376 A  
HETATM   14  C   UNL     1      -7.733  18.369  68.114  1.00  0.00    -0.304 A  
ENDBRANCH   2   4
BRANCH   2  15
HETATM   15  C   UNL     1     -12.265  13.701  69.609  1.00  0.00    -0.270 C  
BRANCH  15  16
HETATM   16  N   UNL     1     -11.217  12.676  69.760  1.00  0.00    -0.482 NA 
HETATM   17  H   UNL     1     -10.696  12.780  70.631  1.00  0.00     0.000 HD 
BRANCH  16  18
HETATM   18  C   UNL     1     -11.823  11.340  69.626  1.00  0.00    -0.360 C  
BRANCH  18  19
HETATM   19  C   UNL     1     -11.304  10.376  70.712  1.00  0.00    -0.284 C  
HETATM   20  H   UNL     1     -11.968   9.689  72.429  1.00  0.00     0.000 HD 
HETATM   21  O   UNL     1     -12.288  10.283  71.760  1.00  0.00    -0.377 OA 
BRANCH  19  22
HETATM   22  C   UNL     1     -11.011   8.961  70.162  1.00  0.00    -0.227 C  
HETATM   23  C   UNL     1      -9.830   6.804  70.485  1.00  0.00    -0.187 C  
HETATM   24  C   UNL     1      -9.985   8.217  71.018  1.00  0.00    -0.220 C  
HETATM   25  C   UNL     1      -9.644   6.837  68.997  1.00  0.00    -0.135 A  
HETATM   26  C   UNL     1     -10.026   7.958  68.246  1.00  0.00    -0.180 A  
HETATM   27  O   UNL     1     -10.555   9.095  68.799  1.00  0.00    -0.218 OA 
HETATM   28  C   UNL     1      -9.835   7.980  66.862  1.00  0.00    -0.318 A  
HETATM   29  C   UNL     1      -9.281   6.874  66.216  1.00  0.00    -0.157 A  
HETATM   30  C   UNL     1      -8.920   5.758  66.960  1.00  0.00    -0.114 A  
HETATM   31  F   UNL     1      -8.386   4.696  66.342  1.00  0.00    -0.106 F  
HETATM   32  C   UNL     1      -9.098   5.727  68.338  1.00  0.00    -0.118 A  
ENDBRANCH  19  22
ENDBRANCH  18  19
ENDBRANCH  16  18
ENDBRANCH  15  16
ENDBRANCH   2  15
TORSDOF 6
ENDMDL
MODEL      212
REMARK 921   NORMALIZED FREE ENERGY PREDICTED BY IDOCK:   -5.08 KCAL/MOL
REMARK 922        TOTAL FREE ENERGY PREDICTED BY IDOCK:   -8.05 KCAL/MOL
REMARK 923 INTER-LIGAND FREE ENERGY PREDICTED BY IDOCK:   -7.32 KCAL/MOL
REMARK 924 INTRA-LIGAND FREE ENERGY PREDICTED BY IDOCK:   -0.73 KCAL/MOL
REMARK 927      BINDING AFFINITY PREDICTED BY RF-SCORE:    0.00 PKD
ROOT
HETATM    1  O   UNL     1      -9.089   9.707  64.134  1.00  0.00    -0.265 OA 
HETATM    2  C   UNL     1      -8.533   9.557  65.448  1.00  0.00    -0.148 C  
HETATM    3  H   UNL     1      -8.981   8.898  63.648  1.00  0.00     0.000 HD 
ENDROOT
BRANCH   2   4
HETATM    4  C   UNL     1      -9.187   8.348  66.157  1.00  0.00    -0.205 C  
HETATM    5  C   UNL     1      -9.592   3.533  67.387  1.00  0.00    -0.125 A  
HETATM    6  C   UNL     1      -9.107   3.566  66.086  1.00  0.00    -0.159 A  
HETATM    7  C   UNL     1      -8.938   8.347  67.668  1.00  0.00    -0.141 C  
HETATM    8  C   UNL     1      -9.723   7.208  68.295  1.00  0.00    -0.148 C  
HETATM    9  F   UNL     1      -9.864   2.353  67.962  1.00  0.00    -0.239 F  
HETATM   10  C   UNL     1      -8.822   4.798  65.492  1.00  0.00    -0.139 A  
HETATM   11  O   UNL     1      -8.701   7.139  65.547  1.00  0.00    -0.121 OA 
HETATM   12  C   UNL     1      -9.505   5.944  67.518  1.00  0.00    -0.110 A  
HETATM   13  C   UNL     1      -9.030   5.981  66.201  1.00  0.00    -0.152 A  
HETATM   14  C   UNL     1      -9.797   4.705  68.107  1.00  0.00    -0.170 A  
ENDBRANCH   2   4
BRANCH   2  15
HETATM   15  C   UNL     1      -8.709  10.872  66.237  1.00  0.00    -0.171 C  
BRANCH  15  16
HETATM   16  N   UNL     1     -10.075  11.412  66.118  1.00  0.00    -0.223 NA 
HETATM   17  H   UNL     1     -10.647  11.200  66.935  1.00  0.00     0.000 HD 
BRANCH  16  18
HETATM   18  C   UNL     1     -10.001  12.859  65.846  1.00  0.00    -0.268 C  
BRANCH  18  19
HETATM   19  C   UNL     1     -11.407  13.482  65.735  1.00  0.00    -0.305 C  
HETATM   20  H   UNL     1     -13.227  12.818  65.409  1.00  0.00     0.000 HD 
HETATM   21  O   UNL     1     -12.361  12.434  65.478  1.00  0.00    -0.621 OA 
BRANCH  19  22
HETATM   22  C   UNL     1     -11.823  14.246  67.014  1.00  0.00    -0.428 C  
HETATM   23  C   UNL     1     -11.277  16.037  68.641  1.00  0.00    -0.366 C  
HETATM   24  C   UNL     1     -10.757  15.251  67.451  1.00  0.00    -0.293 C  
HETATM   25  C   UNL     1     -11.850  15.098  69.661  1.00  0.00    -0.362 A  
HETATM   26  C   UNL     1     -12.231  13.795  69.311  1.00  0.00    -0.264 A  
HETATM   27  O   UNL     1     -12.084  13.276  68.051  1.00  0.00    -0.332 OA 
HETATM   28  C   UNL     1     -12.751  12.928  70.275  1.00  0.00     0.051 A  
HETATM   29  C   UNL     1     -12.915  13.363  71.590  1.00  0.00    -0.445 A  
HETATM   30  C   UNL     1     -12.554  14.661  71.931  1.00  0.00    -0.339 A  
HETATM   31  F   UNL     1     -12.708  15.081  73.194  1.00  0.00    -0.406 F  
HETATM   32  C   UNL     1     -12.028  15.531  70.982  1.00  0.00    -0.428 A  
ENDBRANCH  19  22
ENDBRANCH  18  19
ENDBRANCH  16  18
ENDBRANCH  15  16
ENDBRANCH   2  15
TORSDOF 6
ENDMDL
MODEL      213
REMARK 921   NORMALIZED FREE ENERGY PREDICTED BY IDOCK:   -5.05 KCAL/MOL
REMARK 922        TOTAL FREE ENERGY PREDICTED BY IDOCK:   -8.01 KCAL/MOL
REMARK 923 INTER-LIGAND FREE ENERGY PREDICTED BY IDOCK:   -7.42 KCAL/MOL
REMARK 924 INTRA-LIGAND FREE ENERGY PREDICTED BY IDOCK:   -0.58 KCAL/MOL
REMARK 927      BINDING AFFINITY PREDICTED BY RF-SCORE:    0.00 PKD
ROOT
HETATM    1  O   UNL     1     -12.665  14.586  66.873  1.00  0.00    -0.418 OA 
HETATM    2  C   UNL     1     -11.497  13.826  66.533  1.00  0.00    -0.348 C  
HETATM    3  H   UNL     1     -12.554  14.974  67.733  1.00  0.00     0.000 HD 
ENDROOT
BRANCH   2   4
HETATM    4  C   UNL     1     -10.243  14.728  66.621  1.00  0.00    -0.269 C  
HETATM    5  C   UNL     1      -7.771  18.895  67.798  1.00  0.00    -0.242 A  
HETATM    6  C   UNL     1      -9.048  19.289  67.423  1.00  0.00    -0.345 A  
HETATM    7  C   UNL     1      -9.259  14.262  67.698  1.00  0.00    -0.194 C  
HETATM    8  C   UNL     1      -8.007  15.118  67.623  1.00  0.00    -0.177 C  
HETATM    9  F   UNL     1      -6.856  19.824  68.108  1.00  0.00    -0.278 F  
HETATM   10  C   UNL     1     -10.000  18.317  67.104  1.00  0.00    -0.345 A  
HETATM   11  O   UNL     1     -10.666  16.084  66.851  1.00  0.00    -0.314 OA 
HETATM   12  C   UNL     1      -8.378  16.570  67.551  1.00  0.00    -0.179 A  
HETATM   13  C   UNL     1      -9.663  16.965  67.157  1.00  0.00    -0.253 A  
HETATM   14  C   UNL     1      -7.425  17.549  67.862  1.00  0.00    -0.206 A  
ENDBRANCH   2   4
BRANCH   2  15
HETATM   15  C   UNL     1     -11.677  13.197  65.136  1.00  0.00    -0.336 C  
BRANCH  15  16
HETATM   16  N   UNL     1     -11.297  11.773  65.115  1.00  0.00    -0.262 NA 
HETATM   17  H   UNL     1     -11.597  11.305  64.261  1.00  0.00     0.000 HD 
BRANCH  16  18
HETATM   18  C   UNL     1      -9.844  11.656  65.337  1.00  0.00    -0.238 C  
BRANCH  18  19
HETATM   19  C   UNL     1      -9.448  10.214  65.714  1.00  0.00    -0.208 C  
HETATM   20  H   UNL     1      -7.776   9.267  66.119  1.00  0.00     0.000 HD 
HETATM   21  O   UNL     1      -8.020  10.155  65.887  1.00  0.00    -0.123 OA 
BRANCH  19  22
HETATM   22  C   UNL     1     -10.138   9.726  67.009  1.00  0.00    -0.218 C  
HETATM   23  C   UNL     1     -10.388   9.988  69.463  1.00  0.00    -0.256 C  
HETATM   24  C   UNL     1      -9.593  10.435  68.249  1.00  0.00    -0.152 C  
HETATM   25  C   UNL     1     -10.504   8.493  69.475  1.00  0.00    -0.222 A  
HETATM   26  C   UNL     1     -10.300   7.743  68.308  1.00  0.00    -0.198 A  
HETATM   27  O   UNL     1      -9.957   8.296  67.102  1.00  0.00    -0.191 OA 
HETATM   28  C   UNL     1     -10.398   6.349  68.338  1.00  0.00    -0.228 A  
HETATM   29  C   UNL     1     -10.721   5.697  69.528  1.00  0.00    -0.380 A  
HETATM   30  C   UNL     1     -10.939   6.444  70.679  1.00  0.00    -0.298 A  
HETATM   31  F   UNL     1     -11.247   5.820  71.824  1.00  0.00    -0.306 F  
HETATM   32  C   UNL     1     -10.837   7.830  70.664  1.00  0.00    -0.241 A  
ENDBRANCH  19  22
ENDBRANCH  18  19
ENDBRANCH  16  18
ENDBRANCH  15  16
ENDBRANCH   2  15
TORSDOF 6
ENDMDL
MODEL      214
REMARK 921   NORMALIZED FREE ENERGY PREDICTED BY IDOCK:   -5.03 KCAL/MOL
REMARK 922        TOTAL FREE ENERGY PREDICTED BY IDOCK:   -7.99 KCAL/MOL
REMARK 923 INTER-LIGAND FREE ENERGY PREDICTED BY IDOCK:   -7.20 KCAL/MOL
REMARK 924 INTRA-LIGAND FREE ENERGY PREDICTED BY IDOCK:   -0.78 KCAL/MOL
REMARK 927      BINDING AFFINITY PREDICTED BY RF-SCORE:    0.00 PKD
ROOT
HETATM    1  O   UNL     1     -12.173   6.695  69.676  1.00  0.00    -0.514 OA 
HETATM    2  C   UNL     1     -10.786   6.696  69.310  1.00  0.00    -0.265 C  
HETATM    3  H   UNL     1     -12.349   5.966  70.258  1.00  0.00     0.000 HD 
ENDROOT
BRANCH   2   4
HETATM    4  C   UNL     1      -9.910   6.731  70.584  1.00  0.00    -0.179 C  
HETATM    5  C   UNL     1      -6.335   8.558  73.541  1.00  0.00    -0.100 A  
HETATM    6  C   UNL     1      -5.902   8.754  72.235  1.00  0.00    -0.071 A  
HETATM    7  C   UNL     1     -10.683   7.216  71.815  1.00  0.00    -0.241 C  
HETATM    8  C   UNL     1      -9.790   7.089  73.037  1.00  0.00    -0.217 C  
HETATM    9  F   UNL     1      -5.534   8.900  74.560  1.00  0.00    -0.093 F  
HETATM   10  C   UNL     1      -6.741   8.400  71.176  1.00  0.00    -0.052 A  
HETATM   11  O   UNL     1      -8.760   7.557  70.331  1.00  0.00    -0.141 OA 
HETATM   12  C   UNL     1      -8.437   7.670  72.749  1.00  0.00    -0.172 A  
HETATM   13  C   UNL     1      -7.998   7.851  71.431  1.00  0.00    -0.094 A  
HETATM   14  C   UNL     1      -7.588   8.018  73.808  1.00  0.00    -0.213 A  
ENDBRANCH   2   4
BRANCH   2  15
HETATM   15  C   UNL     1     -10.501   7.880  68.364  1.00  0.00    -0.166 C  
BRANCH  15  16
HETATM   16  N   UNL     1     -10.881   9.173  68.961  1.00  0.00    -0.401 NA 
HETATM   17  H   UNL     1     -10.264   9.442  69.726  1.00  0.00     0.000 HD 
BRANCH  16  18
HETATM   18  C   UNL     1     -10.941  10.197  67.902  1.00  0.00    -0.277 C  
BRANCH  18  19
HETATM   19  C   UNL     1     -11.744  11.431  68.360  1.00  0.00    -0.303 C  
HETATM   20  H   UNL     1     -11.863  12.516  69.993  1.00  0.00     0.000 HD 
HETATM   21  O   UNL     1     -11.368  11.756  69.712  1.00  0.00    -0.244 OA 
BRANCH  19  22
HETATM   22  C   UNL     1     -11.507  12.664  67.456  1.00  0.00    -0.340 C  
HETATM   23  C   UNL     1     -10.186  13.676  65.617  1.00  0.00    -0.316 C  
HETATM   24  C   UNL     1     -10.292  12.481  66.547  1.00  0.00    -0.254 C  
HETATM   25  C   UNL     1     -10.318  14.947  66.402  1.00  0.00    -0.291 A  
HETATM   26  C   UNL     1     -10.900  14.951  67.678  1.00  0.00    -0.286 A  
HETATM   27  O   UNL     1     -11.354  13.821  68.307  1.00  0.00    -0.255 OA 
HETATM   28  C   UNL     1     -11.004  16.141  68.403  1.00  0.00    -0.341 A  
HETATM   29  C   UNL     1     -10.548  17.338  67.851  1.00  0.00    -0.384 A  
HETATM   30  C   UNL     1      -9.987  17.334  66.580  1.00  0.00    -0.305 A  
HETATM   31  F   UNL     1      -9.546  18.481  66.047  1.00  0.00    -0.303 F  
HETATM   32  C   UNL     1      -9.871  16.155  65.851  1.00  0.00    -0.384 A  
ENDBRANCH  19  22
ENDBRANCH  18  19
ENDBRANCH  16  18
ENDBRANCH  15  16
ENDBRANCH   2  15
TORSDOF 6
ENDMDL
MODEL      215
REMARK 921   NORMALIZED FREE ENERGY PREDICTED BY IDOCK:   -4.99 KCAL/MOL
REMARK 922        TOTAL FREE ENERGY PREDICTED BY IDOCK:   -7.93 KCAL/MOL
REMARK 923 INTER-LIGAND FREE ENERGY PREDICTED BY IDOCK:   -7.49 KCAL/MOL
REMARK 924 INTRA-LIGAND FREE ENERGY PREDICTED BY IDOCK:   -0.43 KCAL/MOL
REMARK 927      BINDING AFFINITY PREDICTED BY RF-SCORE:    0.00 PKD
ROOT
HETATM    1  O   UNL     1     -12.227  13.667  63.154  1.00  0.00    -1.003 OA 
HETATM    2  C   UNL     1     -11.586  12.764  64.066  1.00  0.00    -0.424 C  
HETATM    3  H   UNL     1     -12.984  14.059  63.573  1.00  0.00     0.000 HD 
ENDROOT
BRANCH   2   4
HETATM    4  C   UNL     1     -11.222  13.511  65.371  1.00  0.00    -0.289 C  
HETATM    5  C   UNL     1     -10.285  17.560  68.127  1.00  0.00    -0.359 A  
HETATM    6  C   UNL     1      -9.793  17.828  66.856  1.00  0.00    -0.312 A  
HETATM    7  C   UNL     1     -12.374  13.526  66.380  1.00  0.00    -0.413 C  
HETATM    8  C   UNL     1     -11.887  14.157  67.672  1.00  0.00    -0.427 C  
HETATM    9  F   UNL     1     -10.111  18.459  69.106  1.00  0.00    -0.377 F  
HETATM   10  C   UNL     1      -9.979  16.890  65.837  1.00  0.00    -0.274 A  
HETATM   11  O   UNL     1     -10.804  14.847  65.036  1.00  0.00    -0.371 OA 
HETATM   12  C   UNL     1     -11.157  15.434  67.379  1.00  0.00    -0.311 A  
HETATM   13  C   UNL     1     -10.648  15.695  66.100  1.00  0.00    -0.320 A  
HETATM   14  C   UNL     1     -10.960  16.375  68.400  1.00  0.00    -0.353 A  
ENDBRANCH   2   4
BRANCH   2  15
HETATM   15  C   UNL     1     -10.356  12.128  63.386  1.00  0.00    -0.402 C  
BRANCH  15  16
HETATM   16  N   UNL     1     -10.366  10.657  63.486  1.00  0.00    -0.495 NA 
HETATM   17  H   UNL     1      -9.574  10.232  63.003  1.00  0.00     0.000 HD 
BRANCH  16  18
HETATM   18  C   UNL     1     -10.431  10.268  64.906  1.00  0.00     0.077 C  
BRANCH  18  19
HETATM   19  C   UNL     1      -9.060   9.788  65.421  1.00  0.00    -0.204 C  
HETATM   20  H   UNL     1      -7.208  10.437  65.328  1.00  0.00     0.000 HD 
HETATM   21  O   UNL     1      -8.053  10.732  65.011  1.00  0.00    -0.094 OA 
BRANCH  19  22
HETATM   22  C   UNL     1      -9.020   9.638  66.960  1.00  0.00    -0.134 C  
HETATM   23  C   UNL     1      -8.529  10.702  69.145  1.00  0.00    -0.134 C  
HETATM   24  C   UNL     1      -8.435  10.876  67.640  1.00  0.00    -0.123 C  
HETATM   25  C   UNL     1      -8.014   9.349  69.536  1.00  0.00    -0.098 A  
HETATM   26  C   UNL     1      -7.920   8.312  68.597  1.00  0.00    -0.122 A  
HETATM   27  O   UNL     1      -8.253   8.456  67.275  1.00  0.00    -0.111 OA 
HETATM   28  C   UNL     1      -7.426   7.061  68.973  1.00  0.00    -0.095 A  
HETATM   29  C   UNL     1      -7.042   6.830  70.294  1.00  0.00    -0.071 A  
HETATM   30  C   UNL     1      -7.151   7.854  71.227  1.00  0.00    -0.055 A  
HETATM   31  F   UNL     1      -6.781   7.636  72.496  1.00  0.00    -0.056 F  
HETATM   32  C   UNL     1      -7.634   9.106  70.863  1.00  0.00    -0.146 A  
ENDBRANCH  19  22
ENDBRANCH  18  19
ENDBRANCH  16  18
ENDBRANCH  15  16
ENDBRANCH   2  15
TORSDOF 6
ENDMDL
MODEL      216
REMARK 921   NORMALIZED FREE ENERGY PREDICTED BY IDOCK:   -4.98 KCAL/MOL
REMARK 922        TOTAL FREE ENERGY PREDICTED BY IDOCK:   -7.91 KCAL/MOL
REMARK 923 INTER-LIGAND FREE ENERGY PREDICTED BY IDOCK:   -5.15 KCAL/MOL
REMARK 924 INTRA-LIGAND FREE ENERGY PREDICTED BY IDOCK:   -2.76 KCAL/MOL
REMARK 927      BINDING AFFINITY PREDICTED BY RF-SCORE:    0.00 PKD
ROOT
HETATM    1  O   UNL     1      -9.526   6.312  65.633  1.00  0.00    -0.381 OA 
HETATM    2  C   UNL     1      -8.095   6.406  65.666  1.00  0.00    -0.131 C  
HETATM    3  H   UNL     1      -9.799   5.470  65.978  1.00  0.00     0.000 HD 
ENDROOT
BRANCH   2   4
HETATM    4  C   UNL     1      -7.590   6.163  67.107  1.00  0.00    -0.092 C  
HETATM    5  C   UNL     1      -7.004   7.310  71.924  1.00  0.00    -0.059 A  
HETATM    6  C   UNL     1      -6.972   8.511  71.229  1.00  0.00    -0.075 A  
HETATM    7  C   UNL     1      -8.378   5.067  67.830  1.00  0.00    -0.105 C  
HETATM    8  C   UNL     1      -7.731   4.804  69.178  1.00  0.00    -0.071 C  
HETATM    9  F   UNL     1      -6.804   7.308  73.250  1.00  0.00    -0.064 F  
HETATM   10  C   UNL     1      -7.186   8.509  69.848  1.00  0.00    -0.051 A  
HETATM   11  O   UNL     1      -7.642   7.407  67.830  1.00  0.00    -0.102 OA 
HETATM   12  C   UNL     1      -7.468   6.101  69.885  1.00  0.00    -0.080 A  
HETATM   13  C   UNL     1      -7.421   7.309  69.178  1.00  0.00    -0.093 A  
HETATM   14  C   UNL     1      -7.245   6.107  71.269  1.00  0.00    -0.079 A  
ENDBRANCH   2   4
BRANCH   2  15
HETATM   15  C   UNL     1      -7.653   7.774  65.106  1.00  0.00    -0.094 C  
BRANCH  15  16
HETATM   16  N   UNL     1      -8.778   8.720  64.998  1.00  0.00    -0.301 NA 
HETATM   17  H   UNL     1      -9.670   8.290  65.244  1.00  0.00     0.000 HD 
BRANCH  16  18
HETATM   18  C   UNL     1      -8.487   9.912  65.814  1.00  0.00    -0.135 C  
BRANCH  18  19
HETATM   19  C   UNL     1      -9.774  10.698  66.139  1.00  0.00    -0.205 C  
HETATM   20  H   UNL     1     -11.491  11.032  65.246  1.00  0.00     0.000 HD 
HETATM   21  O   UNL     1     -10.699  10.548  65.046  1.00  0.00    -0.156 OA 
BRANCH  19  22
HETATM   22  C   UNL     1     -10.449  10.222  67.446  1.00  0.00    -0.251 C  
HETATM   23  C   UNL     1     -10.539  10.375  69.920  1.00  0.00    -0.299 C  
HETATM   24  C   UNL     1      -9.761  10.794  68.686  1.00  0.00    -0.187 C  
HETATM   25  C   UNL     1     -10.829   8.904  69.866  1.00  0.00    -0.219 A  
HETATM   26  C   UNL     1     -10.776   8.201  68.654  1.00  0.00    -0.025 A  
HETATM   27  O   UNL     1     -10.433   8.778  67.459  1.00  0.00    -0.257 OA 
HETATM   28  C   UNL     1     -11.035   6.829  68.622  1.00  0.00    -0.261 A  
HETATM   29  C   UNL     1     -11.371   6.153  69.795  1.00  0.00    -0.452 A  
HETATM   30  C   UNL     1     -11.440   6.855  70.991  1.00  0.00    -0.314 A  
HETATM   31  F   UNL     1     -11.760   6.209  72.121  1.00  0.00    -0.317 F  
HETATM   32  C   UNL     1     -11.176   8.219  71.038  1.00  0.00    -0.291 A  
ENDBRANCH  19  22
ENDBRANCH  18  19
ENDBRANCH  16  18
ENDBRANCH  15  16
ENDBRANCH   2  15
TORSDOF 6
ENDMDL
MODEL      217
REMARK 921   NORMALIZED FREE ENERGY PREDICTED BY IDOCK:   -4.96 KCAL/MOL
REMARK 922        TOTAL FREE ENERGY PREDICTED BY IDOCK:   -7.88 KCAL/MOL
REMARK 923 INTER-LIGAND FREE ENERGY PREDICTED BY IDOCK:   -7.22 KCAL/MOL
REMARK 924 INTRA-LIGAND FREE ENERGY PREDICTED BY IDOCK:   -0.66 KCAL/MOL
REMARK 927      BINDING AFFINITY PREDICTED BY RF-SCORE:    0.00 PKD
ROOT
HETATM    1  O   UNL     1     -12.502  15.850  70.556  1.00  0.00    -0.427 OA 
HETATM    2  C   UNL     1     -11.528  15.030  69.894  1.00  0.00    -0.289 C  
HETATM    3  H   UNL     1     -12.114  16.688  70.778  1.00  0.00     0.000 HD 
ENDROOT
BRANCH   2   4
HETATM    4  C   UNL     1     -10.972  15.775  68.658  1.00  0.00    -0.307 C  
HETATM    5  C   UNL     1      -8.973  19.672  66.274  1.00  0.00    -0.375 A  
HETATM    6  C   UNL     1      -9.814  20.196  67.246  1.00  0.00    -0.580 A  
HETATM    7  C   UNL     1      -9.595  15.259  68.231  1.00  0.00    -0.206 C  
HETATM    8  C   UNL     1      -9.190  15.949  66.940  1.00  0.00    -0.247 C  
HETATM    9  F   UNL     1      -8.342  20.499  65.428  1.00  0.00    -0.063 F  
HETATM   10  C   UNL     1     -10.466  19.330  68.128  1.00  0.00    -0.450 A  
HETATM   11  O   UNL     1     -10.935  17.184  68.947  1.00  0.00    -0.236 OA 
HETATM   12  C   UNL     1      -9.413  17.428  67.054  1.00  0.00    -0.268 A  
HETATM   13  C   UNL     1     -10.275  17.953  68.026  1.00  0.00    -0.376 A  
HETATM   14  C   UNL     1      -8.768  18.300  66.166  1.00  0.00    -0.118 A  
ENDBRANCH   2   4
BRANCH   2  15
HETATM   15  C   UNL     1     -12.157  13.669  69.532  1.00  0.00    -0.314 C  
BRANCH  15  16
HETATM   16  N   UNL     1     -11.996  12.678  70.611  1.00  0.00    -0.519 NA 
HETATM   17  H   UNL     1     -12.694  12.789  71.346  1.00  0.00     0.000 HD 
BRANCH  16  18
HETATM   18  C   UNL     1     -12.004  11.324  70.030  1.00  0.00    -0.368 C  
BRANCH  18  19
HETATM   19  C   UNL     1     -10.577  10.750  69.921  1.00  0.00    -0.076 C  
HETATM   20  H   UNL     1      -9.700   9.046  70.353  1.00  0.00     0.000 HD 
HETATM   21  O   UNL     1     -10.579   9.399  70.420  1.00  0.00    -0.222 OA 
BRANCH  19  22
HETATM   22  C   UNL     1     -10.041  10.757  68.471  1.00  0.00    -0.176 C  
HETATM   23  C   UNL     1      -9.989   9.626  66.264  1.00  0.00    -0.335 C  
HETATM   24  C   UNL     1     -10.454   9.501  67.703  1.00  0.00    -0.321 C  
HETATM   25  C   UNL     1      -8.553  10.057  66.227  1.00  0.00    -0.137 A  
HETATM   26  C   UNL     1      -7.954  10.669  67.337  1.00  0.00    -0.111 A  
HETATM   27  O   UNL     1      -8.603  10.887  68.524  1.00  0.00    -0.137 OA 
HETATM   28  C   UNL     1      -6.611  11.053  67.293  1.00  0.00    -0.078 A  
HETATM   29  C   UNL     1      -5.864  10.850  66.132  1.00  0.00    -0.145 A  
HETATM   30  C   UNL     1      -6.465  10.259  65.028  1.00  0.00    -0.120 A  
HETATM   31  F   UNL     1      -5.750  10.061  63.913  1.00  0.00    -0.087 F  
HETATM   32  C   UNL     1      -7.798   9.865  65.062  1.00  0.00    -0.131 A  
ENDBRANCH  19  22
ENDBRANCH  18  19
ENDBRANCH  16  18
ENDBRANCH  15  16
ENDBRANCH   2  15
TORSDOF 6
ENDMDL
MODEL      218
REMARK 921   NORMALIZED FREE ENERGY PREDICTED BY IDOCK:   -4.95 KCAL/MOL
REMARK 922        TOTAL FREE ENERGY PREDICTED BY IDOCK:   -7.87 KCAL/MOL
REMARK 923 INTER-LIGAND FREE ENERGY PREDICTED BY IDOCK:   -7.19 KCAL/MOL
REMARK 924 INTRA-LIGAND FREE ENERGY PREDICTED BY IDOCK:   -0.69 KCAL/MOL
REMARK 927      BINDING AFFINITY PREDICTED BY RF-SCORE:    0.00 PKD
ROOT
HETATM    1  O   UNL     1      -9.855   7.628  72.423  1.00  0.00    -0.161 OA 
HETATM    2  C   UNL     1     -10.651   7.659  71.230  1.00  0.00    -0.219 C  
HETATM    3  H   UNL     1     -10.033   6.830  72.905  1.00  0.00     0.000 HD 
ENDROOT
BRANCH   2   4
HETATM    4  C   UNL     1     -10.384   6.387  70.392  1.00  0.00    -0.205 C  
HETATM    5  C   UNL     1      -9.657   3.858  66.157  1.00  0.00    -0.183 A  
HETATM    6  C   UNL     1     -10.561   4.869  65.859  1.00  0.00    -0.280 A  
HETATM    7  C   UNL     1      -8.941   5.890  70.521  1.00  0.00    -0.151 C  
HETATM    8  C   UNL     1      -8.808   4.572  69.779  1.00  0.00    -0.129 C  
HETATM    9  F   UNL     1      -9.322   2.970  65.209  1.00  0.00    -0.142 F  
HETATM   10  C   UNL     1     -10.904   5.794  66.849  1.00  0.00    -0.337 A  
HETATM   11  O   UNL     1     -10.722   6.659  69.020  1.00  0.00    -0.217 OA 
HETATM   12  C   UNL     1      -9.423   4.683  68.415  1.00  0.00    -0.201 A  
HETATM   13  C   UNL     1     -10.346   5.695  68.123  1.00  0.00    -0.197 A  
HETATM   14  C   UNL     1      -9.088   3.753  67.421  1.00  0.00    -0.186 A  
ENDBRANCH   2   4
BRANCH   2  15
HETATM   15  C   UNL     1     -10.361   8.956  70.447  1.00  0.00    -0.204 C  
BRANCH  15  16
HETATM   16  N   UNL     1     -11.529   9.411  69.673  1.00  0.00    -0.439 NA 
HETATM   17  H   UNL     1     -12.381   8.912  69.930  1.00  0.00     0.000 HD 
BRANCH  16  18
HETATM   18  C   UNL     1     -11.670  10.870  69.820  1.00  0.00    -0.338 C  
BRANCH  18  19
HETATM   19  C   UNL     1     -11.012  11.619  68.644  1.00  0.00    -0.220 C  
HETATM   20  H   UNL     1     -11.425  11.912  66.745  1.00  0.00     0.000 HD 
HETATM   21  O   UNL     1     -11.830  11.451  67.470  1.00  0.00    -0.614 OA 
BRANCH  19  22
HETATM   22  C   UNL     1     -10.831  13.129  68.925  1.00  0.00    -0.204 C  
HETATM   23  C   UNL     1     -11.737  15.422  68.653  1.00  0.00    -0.371 C  
HETATM   24  C   UNL     1     -11.912  13.970  68.246  1.00  0.00    -0.384 C  
HETATM   25  C   UNL     1     -10.300  15.826  68.498  1.00  0.00    -0.229 A  
HETATM   26  C   UNL     1      -9.282  14.864  68.436  1.00  0.00    -0.189 A  
HETATM   27  O   UNL     1      -9.513  13.513  68.479  1.00  0.00    -0.202 OA 
HETATM   28  C   UNL     1      -7.950  15.255  68.278  1.00  0.00    -0.132 A  
HETATM   29  C   UNL     1      -7.623  16.609  68.202  1.00  0.00    -0.171 A  
HETATM   30  C   UNL     1      -8.632  17.560  68.281  1.00  0.00    -0.266 A  
HETATM   31  F   UNL     1      -8.322  18.862  68.207  1.00  0.00    -0.304 F  
HETATM   32  C   UNL     1      -9.963  17.184  68.431  1.00  0.00    -0.310 A  
ENDBRANCH  19  22
ENDBRANCH  18  19
ENDBRANCH  16  18
ENDBRANCH  15  16
ENDBRANCH   2  15
TORSDOF 6
ENDMDL
MODEL      219
REMARK 921   NORMALIZED FREE ENERGY PREDICTED BY IDOCK:   -4.91 KCAL/MOL
REMARK 922        TOTAL FREE ENERGY PREDICTED BY IDOCK:   -7.82 KCAL/MOL
REMARK 923 INTER-LIGAND FREE ENERGY PREDICTED BY IDOCK:   -7.44 KCAL/MOL
REMARK 924 INTRA-LIGAND FREE ENERGY PREDICTED BY IDOCK:   -0.38 KCAL/MOL
REMARK 927      BINDING AFFINITY PREDICTED BY RF-SCORE:    0.00 PKD
ROOT
HETATM    1  O   UNL     1     -12.181  13.704  63.158  1.00  0.00    -1.003 OA 
HETATM    2  C   UNL     1     -11.494  12.907  64.134  1.00  0.00    -0.396 C  
HETATM    3  H   UNL     1     -12.861  14.212  63.583  1.00  0.00     0.000 HD 
ENDROOT
BRANCH   2   4
HETATM    4  C   UNL     1     -10.942  13.818  65.255  1.00  0.00    -0.322 C  
HETATM    5  C   UNL     1     -10.294  18.162  67.616  1.00  0.00    -0.397 A  
HETATM    6  C   UNL     1     -10.339  18.455  66.260  1.00  0.00    -0.440 A  
HETATM    7  C   UNL     1     -11.657  13.603  66.593  1.00  0.00    -0.391 C  
HETATM    8  C   UNL     1     -10.964  14.433  67.659  1.00  0.00    -0.294 C  
HETATM    9  F   UNL     1     -10.062  19.144  68.498  1.00  0.00    -0.394 F  
HETATM   10  C   UNL     1     -10.586  17.429  65.344  1.00  0.00    -0.043 A  
HETATM   11  O   UNL     1     -11.038  15.188  64.826  1.00  0.00    -0.395 OA 
HETATM   12  C   UNL     1     -10.749  15.833  67.163  1.00  0.00    -0.312 A  
HETATM   13  C   UNL     1     -10.779  16.123  65.792  1.00  0.00    -0.280 A  
HETATM   14  C   UNL     1     -10.492  16.864  68.076  1.00  0.00    -0.347 A  
ENDBRANCH   2   4
BRANCH   2  15
HETATM   15  C   UNL     1     -10.390  12.081  63.443  1.00  0.00    -0.434 C  
BRANCH  15  16
HETATM   16  N   UNL     1     -10.425  10.663  63.842  1.00  0.00    -0.462 NA 
HETATM   17  H   UNL     1      -9.737  10.103  63.339  1.00  0.00     0.000 HD 
BRANCH  16  18
HETATM   18  C   UNL     1     -10.266  10.567  65.304  1.00  0.00    -0.282 C  
BRANCH  18  19
HETATM   19  C   UNL     1      -8.846  10.103  65.685  1.00  0.00    -0.165 C  
HETATM   20  H   UNL     1      -7.370  10.813  66.769  1.00  0.00     0.000 HD 
HETATM   21  O   UNL     1      -8.245  11.098  66.534  1.00  0.00    -0.158 OA 
BRANCH  19  22
HETATM   22  C   UNL     1      -8.841   8.740  66.416  1.00  0.00    -0.147 C  
HETATM   23  C   UNL     1      -8.903   7.539  68.585  1.00  0.00    -0.127 C  
HETATM   24  C   UNL     1      -8.795   8.906  67.935  1.00  0.00    -0.133 C  
HETATM   25  C   UNL     1      -7.945   6.587  67.932  1.00  0.00    -0.109 A  
HETATM   26  C   UNL     1      -7.422   6.849  66.658  1.00  0.00    -0.082 A  
HETATM   27  O   UNL     1      -7.708   7.980  65.939  1.00  0.00    -0.086 OA 
HETATM   28  C   UNL     1      -6.520   5.959  66.068  1.00  0.00    -0.043 A  
HETATM   29  C   UNL     1      -6.153   4.791  66.736  1.00  0.00    -0.031 A  
HETATM   30  C   UNL     1      -6.686   4.525  67.991  1.00  0.00    -0.051 A  
HETATM   31  F   UNL     1      -6.334   3.405  68.636  1.00  0.00    -0.029 F  
HETATM   32  C   UNL     1      -7.578   5.406  68.592  1.00  0.00    -0.083 A  
ENDBRANCH  19  22
ENDBRANCH  18  19
ENDBRANCH  16  18
ENDBRANCH  15  16
ENDBRANCH   2  15
TORSDOF 6
ENDMDL
MODEL      220
REMARK 921   NORMALIZED FREE ENERGY PREDICTED BY IDOCK:   -4.90 KCAL/MOL
REMARK 922        TOTAL FREE ENERGY PREDICTED BY IDOCK:   -7.81 KCAL/MOL
REMARK 923 INTER-LIGAND FREE ENERGY PREDICTED BY IDOCK:   -7.12 KCAL/MOL
REMARK 924 INTRA-LIGAND FREE ENERGY PREDICTED BY IDOCK:   -0.69 KCAL/MOL
REMARK 927      BINDING AFFINITY PREDICTED BY RF-SCORE:    0.00 PKD
ROOT
HETATM    1  O   UNL     1     -10.475  13.746  67.228  1.00  0.00    -0.261 OA 
HETATM    2  C   UNL     1      -9.366  12.836  67.198  1.00  0.00    -0.216 C  
HETATM    3  H   UNL     1     -11.286  13.263  67.123  1.00  0.00     0.000 HD 
ENDROOT
BRANCH   2   4
HETATM    4  C   UNL     1      -9.554  11.748  68.280  1.00  0.00    -0.199 C  
HETATM    5  C   UNL     1     -12.221   8.927  71.410  1.00  0.00    -0.318 A  
HETATM    6  C   UNL     1     -12.851  10.164  71.363  1.00  0.00    -0.530 A  
HETATM    7  C   UNL     1      -9.364  10.331  67.729  1.00  0.00    -0.156 C  
HETATM    8  C   UNL     1      -9.433   9.343  68.880  1.00  0.00    -0.154 C  
HETATM    9  F   UNL     1     -12.689   7.978  72.233  1.00  0.00    -0.317 F  
HETATM   10  C   UNL     1     -12.363  11.149  70.501  1.00  0.00    -0.454 A  
HETATM   11  O   UNL     1     -10.856  11.907  68.873  1.00  0.00    -0.221 OA 
HETATM   12  C   UNL     1     -10.625   9.637  69.741  1.00  0.00    -0.267 A  
HETATM   13  C   UNL     1     -11.249  10.891  69.702  1.00  0.00    -0.282 A  
HETATM   14  C   UNL     1     -11.114   8.655  70.613  1.00  0.00    -0.282 A  
ENDBRANCH   2   4
BRANCH   2  15
HETATM   15  C   UNL     1      -8.048  13.620  67.370  1.00  0.00    -0.175 C  
BRANCH  15  16
HETATM   16  N   UNL     1      -7.528  13.537  68.746  1.00  0.00    -0.189 NA 
HETATM   17  H   UNL     1      -6.531  13.324  68.770  1.00  0.00     0.000 HD 
BRANCH  16  18
HETATM   18  C   UNL     1      -7.851  14.784  69.463  1.00  0.00    -0.042 C  
BRANCH  18  19
HETATM   19  C   UNL     1      -6.699  15.803  69.366  1.00  0.00    -0.184 C  
HETATM   20  H   UNL     1      -4.813  15.759  68.815  1.00  0.00     0.000 HD 
HETATM   21  O   UNL     1      -5.524  15.131  68.875  1.00  0.00    -0.093 OA 
BRANCH  19  22
HETATM   22  C   UNL     1      -7.031  16.992  68.435  1.00  0.00    -0.180 C  
HETATM   23  C   UNL     1      -7.179  19.454  68.171  1.00  0.00    -0.322 C  
HETATM   24  C   UNL     1      -6.950  18.332  69.167  1.00  0.00    -0.230 C  
HETATM   25  C   UNL     1      -8.391  19.157  67.338  1.00  0.00    -0.307 A  
HETATM   26  C   UNL     1      -8.891  17.852  67.230  1.00  0.00    -0.243 A  
HETATM   27  O   UNL     1      -8.350  16.776  67.886  1.00  0.00    -0.189 OA 
HETATM   28  C   UNL     1     -10.029  17.592  66.461  1.00  0.00    -0.332 A  
HETATM   29  C   UNL     1     -10.661  18.630  65.776  1.00  0.00    -0.290 A  
HETATM   30  C   UNL     1     -10.152  19.920  65.871  1.00  0.00    -0.421 A  
HETATM   31  F   UNL     1     -10.758  20.919  65.216  1.00  0.00     0.151 F  
HETATM   32  C   UNL     1      -9.026  20.192  66.639  1.00  0.00    -0.416 A  
ENDBRANCH  19  22
ENDBRANCH  18  19
ENDBRANCH  16  18
ENDBRANCH  15  16
ENDBRANCH   2  15
TORSDOF 6
ENDMDL
MODEL      221
REMARK 921   NORMALIZED FREE ENERGY PREDICTED BY IDOCK:   -4.90 KCAL/MOL
REMARK 922        TOTAL FREE ENERGY PREDICTED BY IDOCK:   -7.81 KCAL/MOL
REMARK 923 INTER-LIGAND FREE ENERGY PREDICTED BY IDOCK:   -6.68 KCAL/MOL
REMARK 924 INTRA-LIGAND FREE ENERGY PREDICTED BY IDOCK:   -1.13 KCAL/MOL
REMARK 927      BINDING AFFINITY PREDICTED BY RF-SCORE:    0.00 PKD
ROOT
HETATM    1  O   UNL     1      -9.129  10.174  66.444  1.00  0.00    -0.148 OA 
HETATM    2  C   UNL     1     -10.368   9.623  66.911  1.00  0.00    -0.238 C  
HETATM    3  H   UNL     1      -9.300  10.961  65.941  1.00  0.00     0.000 HD 
ENDROOT
BRANCH   2   4
HETATM    4  C   UNL     1     -11.142  10.690  67.720  1.00  0.00    -0.321 C  
HETATM    5  C   UNL     1     -13.093  12.653  71.868  1.00  0.00    -0.366 A  
HETATM    6  C   UNL     1     -13.208  11.275  71.995  1.00  0.00    -0.437 A  
HETATM    7  C   UNL     1     -10.338  11.979  67.913  1.00  0.00    -0.209 C  
HETATM    8  C   UNL     1     -11.220  13.010  68.595  1.00  0.00    -0.316 C  
HETATM    9  F   UNL     1     -13.600  13.449  72.820  1.00  0.00    -0.606 F  
HETATM   10  C   UNL     1     -12.675  10.449  71.002  1.00  0.00    -0.490 A  
HETATM   11  O   UNL     1     -11.527  10.120  68.985  1.00  0.00    -0.183 OA 
HETATM   12  C   UNL     1     -11.910  12.397  69.777  1.00  0.00    -0.387 A  
HETATM   13  C   UNL     1     -12.039  11.007  69.894  1.00  0.00    -0.361 A  
HETATM   14  C   UNL     1     -12.454  13.222  70.772  1.00  0.00    -0.403 A  
ENDBRANCH   2   4
BRANCH   2  15
HETATM   15  C   UNL     1     -10.091   8.345  67.729  1.00  0.00    -0.207 C  
BRANCH  15  16
HETATM   16  N   UNL     1     -11.121   7.313  67.513  1.00  0.00    -0.562 NA 
HETATM   17  H   UNL     1     -10.999   6.825  66.625  1.00  0.00     0.000 HD 
BRANCH  16  18
HETATM   18  C   UNL     1     -11.130   6.390  68.662  1.00  0.00    -0.311 C  
BRANCH  18  19
HETATM   19  C   UNL     1      -9.704   6.134  69.190  1.00  0.00    -0.139 C  
HETATM   20  H   UNL     1      -8.887   5.762  70.937  1.00  0.00     0.000 HD 
HETATM   21  O   UNL     1      -9.766   5.919  70.612  1.00  0.00    -0.169 OA 
BRANCH  19  22
HETATM   22  C   UNL     1      -9.030   4.915  68.519  1.00  0.00    -0.109 C  
HETATM   23  C   UNL     1      -6.977   3.545  68.269  1.00  0.00    -0.050 C  
HETATM   24  C   UNL     1      -7.545   4.819  68.869  1.00  0.00    -0.068 C  
HETATM   25  C   UNL     1      -7.392   3.430  66.832  1.00  0.00    -0.067 A  
HETATM   26  C   UNL     1      -8.485   4.152  66.335  1.00  0.00    -0.108 A  
HETATM   27  O   UNL     1      -9.224   5.024  67.092  1.00  0.00    -0.116 OA 
HETATM   28  C   UNL     1      -8.851   4.045  64.991  1.00  0.00    -0.128 A  
HETATM   29  C   UNL     1      -8.141   3.199  64.139  1.00  0.00    -0.082 A  
HETATM   30  C   UNL     1      -7.069   2.470  64.638  1.00  0.00    -0.049 A  
HETATM   31  F   UNL     1      -6.383   1.658  63.822  1.00  0.00    -0.012 F  
HETATM   32  C   UNL     1      -6.690   2.575  65.972  1.00  0.00    -0.039 A  
ENDBRANCH  19  22
ENDBRANCH  18  19
ENDBRANCH  16  18
ENDBRANCH  15  16
ENDBRANCH   2  15
TORSDOF 6
ENDMDL
MODEL      222
REMARK 921   NORMALIZED FREE ENERGY PREDICTED BY IDOCK:   -4.90 KCAL/MOL
REMARK 922        TOTAL FREE ENERGY PREDICTED BY IDOCK:   -7.80 KCAL/MOL
REMARK 923 INTER-LIGAND FREE ENERGY PREDICTED BY IDOCK:   -5.66 KCAL/MOL
REMARK 924 INTRA-LIGAND FREE ENERGY PREDICTED BY IDOCK:   -2.14 KCAL/MOL
REMARK 927      BINDING AFFINITY PREDICTED BY RF-SCORE:    0.00 PKD
ROOT
HETATM    1  O   UNL     1     -12.340   7.497  72.844  1.00  0.00    -0.461 OA 
HETATM    2  C   UNL     1     -11.390   8.399  72.260  1.00  0.00    -0.378 C  
HETATM    3  H   UNL     1     -13.195   7.641  72.457  1.00  0.00     0.000 HD 
ENDROOT
BRANCH   2   4
HETATM    4  C   UNL     1     -11.383   8.227  70.723  1.00  0.00    -0.266 C  
HETATM    5  C   UNL     1      -9.460   8.716  66.148  1.00  0.00    -0.240 A  
HETATM    6  C   UNL     1      -9.085   9.851  66.855  1.00  0.00    -0.162 A  
HETATM    7  C   UNL     1     -11.118   6.781  70.295  1.00  0.00    -0.360 C  
HETATM    8  C   UNL     1     -11.262   6.681  68.787  1.00  0.00    -0.256 C  
HETATM    9  F   UNL     1      -9.133   8.605  64.853  1.00  0.00    -0.193 F  
HETATM   10  C   UNL     1      -9.425   9.961  68.205  1.00  0.00    -0.147 A  
HETATM   11  O   UNL     1     -10.407   9.125  70.163  1.00  0.00    -0.191 OA 
HETATM   12  C   UNL     1     -10.502   7.790  68.121  1.00  0.00    -0.230 A  
HETATM   13  C   UNL     1     -10.140   8.941  68.833  1.00  0.00    -0.197 A  
HETATM   14  C   UNL     1     -10.166   7.688  66.764  1.00  0.00    -0.333 A  
ENDBRANCH   2   4
BRANCH   2  15
HETATM   15  C   UNL     1     -10.001   8.166  72.889  1.00  0.00    -0.266 C  
BRANCH  15  16
HETATM   16  N   UNL     1      -9.964   6.949  73.719  1.00  0.00    -0.277 NA 
HETATM   17  H   UNL     1     -10.358   6.140  73.237  1.00  0.00     0.000 HD 
BRANCH  16  18
HETATM   18  C   UNL     1      -8.582   6.712  74.172  1.00  0.00    -0.140 C  
BRANCH  18  19
HETATM   19  C   UNL     1      -8.015   5.403  73.587  1.00  0.00    -0.109 C  
HETATM   20  H   UNL     1      -7.940   3.521  74.143  1.00  0.00     0.000 HD 
HETATM   21  O   UNL     1      -8.290   4.327  74.503  1.00  0.00    -0.089 OA 
BRANCH  19  22
HETATM   22  C   UNL     1      -8.615   5.059  72.203  1.00  0.00    -0.125 C  
HETATM   23  C   UNL     1      -9.483   3.298  70.688  1.00  0.00    -0.240 C  
HETATM   24  C   UNL     1      -8.792   3.552  72.016  1.00  0.00    -0.129 C  
HETATM   25  C   UNL     1      -8.813   4.089  69.605  1.00  0.00    -0.139 A  
HETATM   26  C   UNL     1      -8.009   5.196  69.909  1.00  0.00    -0.078 A  
HETATM   27  O   UNL     1      -7.750   5.615  71.189  1.00  0.00    -0.099 OA 
HETATM   28  C   UNL     1      -7.381   5.916  68.889  1.00  0.00    -0.084 A  
HETATM   29  C   UNL     1      -7.569   5.548  67.557  1.00  0.00    -0.089 A  
HETATM   30  C   UNL     1      -8.381   4.461  67.257  1.00  0.00    -0.100 A  
HETATM   31  F   UNL     1      -8.562   4.104  65.978  1.00  0.00    -0.111 F  
HETATM   32  C   UNL     1      -9.005   3.732  68.263  1.00  0.00    -0.168 A  
ENDBRANCH  19  22
ENDBRANCH  18  19
ENDBRANCH  16  18
ENDBRANCH  15  16
ENDBRANCH   2  15
TORSDOF 6
ENDMDL
MODEL      223
REMARK 921   NORMALIZED FREE ENERGY PREDICTED BY IDOCK:   -4.89 KCAL/MOL
REMARK 922        TOTAL FREE ENERGY PREDICTED BY IDOCK:   -7.79 KCAL/MOL
REMARK 923 INTER-LIGAND FREE ENERGY PREDICTED BY IDOCK:   -5.93 KCAL/MOL
REMARK 924 INTRA-LIGAND FREE ENERGY PREDICTED BY IDOCK:   -1.87 KCAL/MOL
REMARK 927      BINDING AFFINITY PREDICTED BY RF-SCORE:    0.00 PKD
ROOT
HETATM    1  O   UNL     1      -9.714   5.819  65.380  1.00  0.00    -0.354 OA 
HETATM    2  C   UNL     1      -8.435   6.435  65.585  1.00  0.00    -0.146 C  
HETATM    3  H   UNL     1      -9.742   4.984  65.832  1.00  0.00     0.000 HD 
ENDROOT
BRANCH   2   4
HETATM    4  C   UNL     1      -8.157   6.570  67.100  1.00  0.00    -0.113 C  
HETATM    5  C   UNL     1      -8.068   4.965  71.820  1.00  0.00    -0.113 A  
HETATM    6  C   UNL     1      -9.190   4.395  71.233  1.00  0.00    -0.196 A  
HETATM    7  C   UNL     1      -6.662   6.525  67.430  1.00  0.00    -0.067 C  
HETATM    8  C   UNL     1      -6.477   6.798  68.912  1.00  0.00    -0.036 C  
HETATM    9  F   UNL     1      -7.825   4.756  73.122  1.00  0.00    -0.090 F  
HETATM   10  C   UNL     1      -9.437   4.611  69.875  1.00  0.00    -0.237 A  
HETATM   11  O   UNL     1      -8.876   5.535  67.795  1.00  0.00    -0.108 OA 
HETATM   12  C   UNL     1      -7.427   5.958  69.713  1.00  0.00    -0.080 A  
HETATM   13  C   UNL     1      -8.567   5.398  69.122  1.00  0.00    -0.102 A  
HETATM   14  C   UNL     1      -7.188   5.745  71.078  1.00  0.00    -0.076 A  
ENDBRANCH   2   4
BRANCH   2  15
HETATM   15  C   UNL     1      -8.391   7.791  64.851  1.00  0.00    -0.063 C  
BRANCH  15  16
HETATM   16  N   UNL     1      -9.480   8.688  65.275  1.00  0.00    -0.402 NA 
HETATM   17  H   UNL     1     -10.089   8.256  65.971  1.00  0.00     0.000 HD 
BRANCH  16  18
HETATM   18  C   UNL     1      -8.905   9.960  65.748  1.00  0.00    -0.147 C  
BRANCH  18  19
HETATM   19  C   UNL     1     -10.006  10.991  66.069  1.00  0.00    -0.237 C  
HETATM   20  H   UNL     1     -11.512  11.799  65.101  1.00  0.00     0.000 HD 
HETATM   21  O   UNL     1     -10.834  11.164  64.904  1.00  0.00    -0.275 OA 
BRANCH  19  22
HETATM   22  C   UNL     1     -10.891  10.565  67.264  1.00  0.00    -0.279 C  
HETATM   23  C   UNL     1     -12.358  11.284  69.130  1.00  0.00    -0.115 C  
HETATM   24  C   UNL     1     -11.414  11.771  68.044  1.00  0.00    -0.388 C  
HETATM   25  C   UNL     1     -11.728  10.151  69.883  1.00  0.00    -0.248 A  
HETATM   26  C   UNL     1     -10.667   9.419  69.333  1.00  0.00    -0.217 A  
HETATM   27  O   UNL     1     -10.111   9.692  68.110  1.00  0.00    -0.161 OA 
HETATM   28  C   UNL     1     -10.081   8.374  70.053  1.00  0.00    -0.192 A  
HETATM   29  C   UNL     1     -10.566   8.039  71.317  1.00  0.00    -0.245 A  
HETATM   30  C   UNL     1     -11.629   8.754  71.853  1.00  0.00    -0.361 A  
HETATM   31  F   UNL     1     -12.096   8.436  73.068  1.00  0.00    -0.423 F  
HETATM   32  C   UNL     1     -12.215   9.801  71.150  1.00  0.00    -0.453 A  
ENDBRANCH  19  22
ENDBRANCH  18  19
ENDBRANCH  16  18
ENDBRANCH  15  16
ENDBRANCH   2  15
TORSDOF 6
ENDMDL
MODEL      224
REMARK 921   NORMALIZED FREE ENERGY PREDICTED BY IDOCK:   -4.88 KCAL/MOL
REMARK 922        TOTAL FREE ENERGY PREDICTED BY IDOCK:   -7.78 KCAL/MOL
REMARK 923 INTER-LIGAND FREE ENERGY PREDICTED BY IDOCK:   -6.59 KCAL/MOL
REMARK 924 INTRA-LIGAND FREE ENERGY PREDICTED BY IDOCK:   -1.19 KCAL/MOL
REMARK 927      BINDING AFFINITY PREDICTED BY RF-SCORE:    0.00 PKD
ROOT
HETATM    1  O   UNL     1      -9.248   2.435  71.482  1.00  0.00    -0.086 OA 
HETATM    2  C   UNL     1      -9.063   3.857  71.533  1.00  0.00    -0.113 C  
HETATM    3  H   UNL     1     -10.071   2.236  71.053  1.00  0.00     0.000 HD 
ENDROOT
BRANCH   2   4
HETATM    4  C   UNL     1      -9.146   4.446  70.106  1.00  0.00    -0.105 C  
HETATM    5  C   UNL     1      -9.814   4.207  65.170  1.00  0.00    -0.205 A  
HETATM    6  C   UNL     1      -9.193   3.021  65.540  1.00  0.00    -0.135 A  
HETATM    7  C   UNL     1     -10.422   5.265  69.882  1.00  0.00    -0.351 C  
HETATM    8  C   UNL     1     -10.355   5.911  68.510  1.00  0.00    -0.268 C  
HETATM    9  F   UNL     1     -10.060   4.448  63.875  1.00  0.00    -0.141 F  
HETATM   10  C   UNL     1      -8.942   2.771  66.892  1.00  0.00    -0.171 A  
HETATM   11  O   UNL     1      -9.043   3.370  69.156  1.00  0.00    -0.114 OA 
HETATM   12  C   UNL     1      -9.948   4.898  67.481  1.00  0.00    -0.202 A  
HETATM   13  C   UNL     1      -9.307   3.710  67.856  1.00  0.00    -0.190 A  
HETATM   14  C   UNL     1     -10.190   5.147  66.123  1.00  0.00    -0.258 A  
ENDBRANCH   2   4
BRANCH   2  15
HETATM   15  C   UNL     1      -7.725   4.180  72.230  1.00  0.00    -0.080 C  
BRANCH  15  16
HETATM   16  N   UNL     1      -7.729   5.519  72.846  1.00  0.00    -0.097 NA 
HETATM   17  H   UNL     1      -7.533   6.257  72.169  1.00  0.00     0.000 HD 
BRANCH  16  18
HETATM   18  C   UNL     1      -9.009   5.727  73.546  1.00  0.00    -0.128 C  
BRANCH  18  19
HETATM   19  C   UNL     1      -9.356   7.225  73.650  1.00  0.00    -0.233 C  
HETATM   20  H   UNL     1      -8.453   8.846  74.295  1.00  0.00     0.000 HD 
HETATM   21  O   UNL     1      -8.239   7.923  74.232  1.00  0.00    -0.215 OA 
BRANCH  19  22
HETATM   22  C   UNL     1      -9.691   7.855  72.278  1.00  0.00    -0.209 C  
HETATM   23  C   UNL     1      -8.882   9.169  70.335  1.00  0.00    -0.253 C  
HETATM   24  C   UNL     1      -8.524   8.674  71.725  1.00  0.00    -0.221 C  
HETATM   25  C   UNL     1     -10.253   9.777  70.348  1.00  0.00    -0.343 A  
HETATM   26  C   UNL     1     -11.164   9.486  71.373  1.00  0.00    -0.382 A  
HETATM   27  O   UNL     1     -10.873   8.670  72.435  1.00  0.00    -0.343 OA 
HETATM   28  C   UNL     1     -12.433  10.071  71.378  1.00  0.00    -0.510 A  
HETATM   29  C   UNL     1     -12.809  10.934  70.349  1.00  0.00    -0.257 A  
HETATM   30  C   UNL     1     -11.910  11.208  69.325  1.00  0.00    -0.352 A  
HETATM   31  F   UNL     1     -12.267  12.037  68.335  1.00  0.00    -0.369 F  
HETATM   32  C   UNL     1     -10.642  10.638  69.312  1.00  0.00    -0.263 A  
ENDBRANCH  19  22
ENDBRANCH  18  19
ENDBRANCH  16  18
ENDBRANCH  15  16
ENDBRANCH   2  15
TORSDOF 6
ENDMDL
MODEL      225
REMARK 921   NORMALIZED FREE ENERGY PREDICTED BY IDOCK:   -4.88 KCAL/MOL
REMARK 922        TOTAL FREE ENERGY PREDICTED BY IDOCK:   -7.77 KCAL/MOL
REMARK 923 INTER-LIGAND FREE ENERGY PREDICTED BY IDOCK:   -7.78 KCAL/MOL
REMARK 924 INTRA-LIGAND FREE ENERGY PREDICTED BY IDOCK:    0.01 KCAL/MOL
REMARK 927      BINDING AFFINITY PREDICTED BY RF-SCORE:    0.00 PKD
ROOT
HETATM    1  O   UNL     1     -11.615   6.142  68.337  1.00  0.00    -0.329 OA 
HETATM    2  C   UNL     1     -10.658   7.122  68.762  1.00  0.00    -0.196 C  
HETATM    3  H   UNL     1     -11.873   6.316  67.440  1.00  0.00     0.000 HD 
ENDROOT
BRANCH   2   4
HETATM    4  C   UNL     1      -9.456   7.134  67.789  1.00  0.00    -0.126 C  
HETATM    5  C   UNL     1      -7.003   5.828  63.649  1.00  0.00    -0.046 A  
HETATM    6  C   UNL     1      -7.747   4.719  64.031  1.00  0.00    -0.079 A  
HETATM    7  C   UNL     1      -9.336   8.452  67.019  1.00  0.00    -0.202 C  
HETATM    8  C   UNL     1      -8.061   8.426  66.195  1.00  0.00    -0.106 C  
HETATM    9  F   UNL     1      -6.186   5.743  62.590  1.00  0.00    -0.023 F  
HETATM   10  C   UNL     1      -8.601   4.813  65.133  1.00  0.00    -0.140 A  
HETATM   11  O   UNL     1      -9.577   6.015  66.893  1.00  0.00    -0.130 OA 
HETATM   12  C   UNL     1      -7.958   7.130  65.446  1.00  0.00    -0.125 A  
HETATM   13  C   UNL     1      -8.698   6.009  65.843  1.00  0.00    -0.154 A  
HETATM   14  C   UNL     1      -7.097   7.029  64.344  1.00  0.00    -0.058 A  
ENDBRANCH   2   4
BRANCH   2  15
HETATM   15  C   UNL     1     -10.238   6.838  70.219  1.00  0.00    -0.195 C  
BRANCH  15  16
HETATM   16  N   UNL     1     -11.364   6.352  71.036  1.00  0.00    -0.314 NA 
HETATM   17  H   UNL     1     -11.110   6.241  72.018  1.00  0.00     0.000 HD 
BRANCH  16  18
HETATM   18  C   UNL     1     -12.519   7.249  70.854  1.00  0.00    -0.227 C  
BRANCH  18  19
HETATM   19  C   UNL     1     -12.483   8.421  71.856  1.00  0.00    -0.347 C  
HETATM   20  H   UNL     1     -11.229   9.082  73.216  1.00  0.00     0.000 HD 
HETATM   21  O   UNL     1     -11.251   8.360  72.599  1.00  0.00    -0.369 OA 
BRANCH  19  22
HETATM   22  C   UNL     1     -12.592   9.800  71.163  1.00  0.00    -0.345 C  
HETATM   23  C   UNL     1     -11.473  11.536  69.791  1.00  0.00    -0.362 C  
HETATM   24  C   UNL     1     -11.264  10.234  70.543  1.00  0.00    -0.408 C  
HETATM   25  C   UNL     1     -12.222  12.509  70.653  1.00  0.00    -0.365 A  
HETATM   26  C   UNL     1     -12.971  12.070  71.754  1.00  0.00    -0.340 A  
HETATM   27  O   UNL     1     -13.050  10.758  72.142  1.00  0.00    -0.460 OA 
HETATM   28  C   UNL     1     -13.653  12.989  72.556  1.00  0.00    -0.537 A  
HETATM   29  C   UNL     1     -13.611  14.350  72.250  1.00  0.00    -0.549 A  
HETATM   30  C   UNL     1     -12.882  14.780  71.148  1.00  0.00    -0.341 A  
HETATM   31  F   UNL     1     -12.837  16.086  70.853  1.00  0.00    -0.473 F  
HETATM   32  C   UNL     1     -12.192  13.876  70.347  1.00  0.00    -0.438 A  
ENDBRANCH  19  22
ENDBRANCH  18  19
ENDBRANCH  16  18
ENDBRANCH  15  16
ENDBRANCH   2  15
TORSDOF 6
ENDMDL
MODEL      226
REMARK 921   NORMALIZED FREE ENERGY PREDICTED BY IDOCK:   -4.87 KCAL/MOL
REMARK 922        TOTAL FREE ENERGY PREDICTED BY IDOCK:   -7.77 KCAL/MOL
REMARK 923 INTER-LIGAND FREE ENERGY PREDICTED BY IDOCK:   -6.72 KCAL/MOL
REMARK 924 INTRA-LIGAND FREE ENERGY PREDICTED BY IDOCK:   -1.04 KCAL/MOL
REMARK 927      BINDING AFFINITY PREDICTED BY RF-SCORE:    0.00 PKD
ROOT
HETATM    1  O   UNL     1      -8.905  10.089  66.667  1.00  0.00    -0.131 OA 
HETATM    2  C   UNL     1     -10.325  10.276  66.746  1.00  0.00    -0.227 C  
HETATM    3  H   UNL     1      -8.613  10.237  65.776  1.00  0.00     0.000 HD 
ENDROOT
BRANCH   2   4
HETATM    4  C   UNL     1     -10.695  11.685  66.226  1.00  0.00    -0.272 C  
HETATM    5  C   UNL     1     -10.534  16.669  66.227  1.00  0.00    -0.268 A  
HETATM    6  C   UNL     1     -10.451  16.273  67.556  1.00  0.00    -0.302 A  
HETATM    7  C   UNL     1     -10.017  12.017  64.893  1.00  0.00    -0.253 C  
HETATM    8  C   UNL     1     -10.539  13.353  64.395  1.00  0.00    -0.423 C  
HETATM    9  F   UNL     1     -10.579  17.975  65.927  1.00  0.00    -0.385 F  
HETATM   10  C   UNL     1     -10.400  14.911  67.863  1.00  0.00    -0.237 A  
HETATM   11  O   UNL     1     -10.361  12.652  67.237  1.00  0.00    -0.223 OA 
HETATM   12  C   UNL     1     -10.507  14.364  65.503  1.00  0.00    -0.366 A  
HETATM   13  C   UNL     1     -10.439  13.961  66.843  1.00  0.00    -0.276 A  
HETATM   14  C   UNL     1     -10.566  15.731  65.200  1.00  0.00    -0.436 A  
ENDBRANCH   2   4
BRANCH   2  15
HETATM   15  C   UNL     1     -10.800  10.036  68.193  1.00  0.00    -0.255 C  
BRANCH  15  16
HETATM   16  N   UNL     1      -9.696  10.139  69.164  1.00  0.00    -0.204 NA 
HETATM   17  H   UNL     1      -9.299  11.078  69.200  1.00  0.00     0.000 HD 
BRANCH  16  18
HETATM   18  C   UNL     1     -10.165   9.679  70.483  1.00  0.00    -0.287 C  
BRANCH  18  19
HETATM   19  C   UNL     1      -9.450   8.383  70.913  1.00  0.00    -0.169 C  
HETATM   20  H   UNL     1      -9.391   7.270  72.531  1.00  0.00     0.000 HD 
HETATM   21  O   UNL     1      -9.831   8.068  72.266  1.00  0.00    -0.194 OA 
BRANCH  19  22
HETATM   22  C   UNL     1      -9.789   7.183  69.997  1.00  0.00    -0.178 C  
HETATM   23  C   UNL     1     -10.016   4.722  69.786  1.00  0.00    -0.308 C  
HETATM   24  C   UNL     1      -9.562   5.845  70.701  1.00  0.00    -0.208 C  
HETATM   25  C   UNL     1      -9.451   4.924  68.411  1.00  0.00    -0.187 A  
HETATM   26  C   UNL     1      -8.988   6.181  67.997  1.00  0.00    -0.113 A  
HETATM   27  O   UNL     1      -8.984   7.290  68.803  1.00  0.00    -0.130 OA 
HETATM   28  C   UNL     1      -8.451   6.350  66.719  1.00  0.00    -0.112 A  
HETATM   29  C   UNL     1      -8.393   5.271  65.837  1.00  0.00    -0.120 A  
HETATM   30  C   UNL     1      -8.868   4.030  66.243  1.00  0.00    -0.121 A  
HETATM   31  F   UNL     1      -8.812   2.991  65.400  1.00  0.00    -0.112 F  
HETATM   32  C   UNL     1      -9.397   3.847  67.516  1.00  0.00    -0.229 A  
ENDBRANCH  19  22
ENDBRANCH  18  19
ENDBRANCH  16  18
ENDBRANCH  15  16
ENDBRANCH   2  15
TORSDOF 6
ENDMDL
MODEL      227
REMARK 921   NORMALIZED FREE ENERGY PREDICTED BY IDOCK:   -4.87 KCAL/MOL
REMARK 922        TOTAL FREE ENERGY PREDICTED BY IDOCK:   -7.76 KCAL/MOL
REMARK 923 INTER-LIGAND FREE ENERGY PREDICTED BY IDOCK:   -6.35 KCAL/MOL
REMARK 924 INTRA-LIGAND FREE ENERGY PREDICTED BY IDOCK:   -1.41 KCAL/MOL
REMARK 927      BINDING AFFINITY PREDICTED BY RF-SCORE:    0.00 PKD
ROOT
HETATM    1  O   UNL     1      -8.309  10.871  65.613  1.00  0.00    -0.203 OA 
HETATM    2  C   UNL     1      -7.418  10.578  66.699  1.00  0.00    -0.120 C  
HETATM    3  H   UNL     1      -8.418  10.098  65.072  1.00  0.00     0.000 HD 
ENDROOT
BRANCH   2   4
HETATM    4  C   UNL     1      -7.949   9.364  67.496  1.00  0.00    -0.102 C  
HETATM    5  C   UNL     1     -10.716   7.141  70.998  1.00  0.00    -0.232 A  
HETATM    6  C   UNL     1     -10.338   8.371  71.519  1.00  0.00    -0.296 A  
HETATM    7  C   UNL     1      -8.926   8.508  66.684  1.00  0.00    -0.178 C  
HETATM    8  C   UNL     1      -9.288   7.275  67.492  1.00  0.00    -0.144 C  
HETATM    9  F   UNL     1     -11.423   6.290  71.756  1.00  0.00    -0.293 F  
HETATM   10  C   UNL     1      -9.605   9.256  70.724  1.00  0.00    -0.341 A  
HETATM   11  O   UNL     1      -8.556   9.840  68.711  1.00  0.00    -0.119 OA 
HETATM   12  C   UNL     1      -9.650   7.665  68.894  1.00  0.00    -0.150 A  
HETATM   13  C   UNL     1      -9.254   8.901  69.422  1.00  0.00    -0.146 A  
HETATM   14  C   UNL     1     -10.378   6.777  69.699  1.00  0.00    -0.223 A  
ENDBRANCH   2   4
BRANCH   2  15
HETATM   15  C   UNL     1      -7.243  11.833  67.578  1.00  0.00    -0.123 C  
BRANCH  15  16
HETATM   16  N   UNL     1      -8.533  12.457  67.919  1.00  0.00    -0.156 NA 
HETATM   17  H   UNL     1      -8.551  12.810  68.876  1.00  0.00     0.000 HD 
BRANCH  16  18
HETATM   18  C   UNL     1      -8.843  13.504  66.930  1.00  0.00    -0.182 C  
BRANCH  18  19
HETATM   19  C   UNL     1     -10.319  13.443  66.489  1.00  0.00    -0.284 C  
HETATM   20  H   UNL     1     -11.493  12.105  65.658  1.00  0.00     0.000 HD 
HETATM   21  O   UNL     1     -10.584  12.143  65.930  1.00  0.00    -0.244 OA 
BRANCH  19  22
HETATM   22  C   UNL     1     -11.300  13.705  67.656  1.00  0.00    -0.300 C  
HETATM   23  C   UNL     1     -11.888  15.121  69.605  1.00  0.00    -0.362 C  
HETATM   24  C   UNL     1     -10.828  14.850  68.553  1.00  0.00    -0.249 C  
HETATM   25  C   UNL     1     -12.317  13.832  70.241  1.00  0.00    -0.407 A  
HETATM   26  C   UNL     1     -12.089  12.603  69.608  1.00  0.00    -0.213 A  
HETATM   27  O   UNL     1     -11.443  12.479  68.405  1.00  0.00    -0.264 OA 
HETATM   28  C   UNL     1     -12.483  11.409  70.218  1.00  0.00    -0.312 A  
HETATM   29  C   UNL     1     -13.127  11.437  71.455  1.00  0.00    -0.438 A  
HETATM   30  C   UNL     1     -13.368  12.658  72.073  1.00  0.00    -0.454 A  
HETATM   31  F   UNL     1     -13.985  12.688  73.262  1.00  0.00     0.623 F  
HETATM   32  C   UNL     1     -12.974  13.852  71.479  1.00  0.00    -0.436 A  
ENDBRANCH  19  22
ENDBRANCH  18  19
ENDBRANCH  16  18
ENDBRANCH  15  16
ENDBRANCH   2  15
TORSDOF 6
ENDMDL
MODEL      228
REMARK 921   NORMALIZED FREE ENERGY PREDICTED BY IDOCK:   -4.86 KCAL/MOL
REMARK 922        TOTAL FREE ENERGY PREDICTED BY IDOCK:   -7.75 KCAL/MOL
REMARK 923 INTER-LIGAND FREE ENERGY PREDICTED BY IDOCK:   -6.71 KCAL/MOL
REMARK 924 INTRA-LIGAND FREE ENERGY PREDICTED BY IDOCK:   -1.04 KCAL/MOL
REMARK 927      BINDING AFFINITY PREDICTED BY RF-SCORE:    0.00 PKD
ROOT
HETATM    1  O   UNL     1      -9.955   4.031  70.247  1.00  0.00    -0.188 OA 
HETATM    2  C   UNL     1     -10.153   5.448  70.358  1.00  0.00    -0.244 C  
HETATM    3  H   UNL     1      -9.862   3.792  69.333  1.00  0.00     0.000 HD 
ENDROOT
BRANCH   2   4
HETATM    4  C   UNL     1      -8.988   6.192  69.665  1.00  0.00    -0.134 C  
HETATM    5  C   UNL     1      -6.907   8.915  66.043  1.00  0.00    -0.076 A  
HETATM    6  C   UNL     1      -7.847   8.097  65.429  1.00  0.00    -0.115 A  
HETATM    7  C   UNL     1      -8.625   7.502  70.372  1.00  0.00    -0.143 C  
HETATM    8  C   UNL     1      -7.393   8.093  69.709  1.00  0.00    -0.065 C  
HETATM    9  F   UNL     1      -6.139   9.719  65.293  1.00  0.00    -0.066 F  
HETATM   10  C   UNL     1      -8.647   7.264  66.214  1.00  0.00    -0.147 A  
HETATM   11  O   UNL     1      -9.340   6.422  68.289  1.00  0.00    -0.113 OA 
HETATM   12  C   UNL     1      -7.559   8.089  68.218  1.00  0.00    -0.109 A  
HETATM   13  C   UNL     1      -8.497   7.252  67.600  1.00  0.00    -0.116 A  
HETATM   14  C   UNL     1      -6.752   8.917  67.425  1.00  0.00    -0.066 A  
ENDBRANCH   2   4
BRANCH   2  15
HETATM   15  C   UNL     1     -10.304   5.835  71.843  1.00  0.00    -0.214 C  
BRANCH  15  16
HETATM   16  N   UNL     1     -11.714   6.027  72.226  1.00  0.00    -0.337 NA 
HETATM   17  H   UNL     1     -11.813   6.342  73.191  1.00  0.00     0.000 HD 
BRANCH  16  18
HETATM   18  C   UNL     1     -12.355   6.946  71.268  1.00  0.00    -0.375 C  
BRANCH  18  19
HETATM   19  C   UNL     1     -12.755   8.273  71.944  1.00  0.00    -0.342 C  
HETATM   20  H   UNL     1     -12.104   9.343  73.457  1.00  0.00     0.000 HD 
HETATM   21  O   UNL     1     -11.857   8.525  73.041  1.00  0.00    -0.169 OA 
BRANCH  19  22
HETATM   22  C   UNL     1     -12.717   9.473  70.969  1.00  0.00    -0.238 C  
HETATM   23  C   UNL     1     -11.547  10.596  69.093  1.00  0.00    -0.342 C  
HETATM   24  C   UNL     1     -11.463   9.458  70.094  1.00  0.00    -0.175 C  
HETATM   25  C   UNL     1     -11.926  11.867  69.794  1.00  0.00    -0.377 A  
HETATM   26  C   UNL     1     -12.535  11.841  71.057  1.00  0.00    -0.309 A  
HETATM   27  O   UNL     1     -12.797  10.686  71.748  1.00  0.00    -0.437 OA 
HETATM   28  C   UNL     1     -12.871  13.033  71.704  1.00  0.00    -0.376 A  
HETATM   29  C   UNL     1     -12.620  14.258  71.086  1.00  0.00    -0.432 A  
HETATM   30  C   UNL     1     -12.033  14.280  69.827  1.00  0.00    -0.339 A  
HETATM   31  F   UNL     1     -11.789  15.455  69.231  1.00  0.00    -0.295 F  
HETATM   32  C   UNL     1     -11.687  13.101  69.176  1.00  0.00    -0.376 A  
ENDBRANCH  19  22
ENDBRANCH  18  19
ENDBRANCH  16  18
ENDBRANCH  15  16
ENDBRANCH   2  15
TORSDOF 6
ENDMDL
MODEL      229
REMARK 921   NORMALIZED FREE ENERGY PREDICTED BY IDOCK:   -4.85 KCAL/MOL
REMARK 922        TOTAL FREE ENERGY PREDICTED BY IDOCK:   -7.74 KCAL/MOL
REMARK 923 INTER-LIGAND FREE ENERGY PREDICTED BY IDOCK:   -7.20 KCAL/MOL
REMARK 924 INTRA-LIGAND FREE ENERGY PREDICTED BY IDOCK:   -0.54 KCAL/MOL
REMARK 927      BINDING AFFINITY PREDICTED BY RF-SCORE:    0.00 PKD
ROOT
HETATM    1  O   UNL     1      -7.467  14.098  69.821  1.00  0.00    -0.356 OA 
HETATM    2  C   UNL     1      -7.015  14.373  68.488  1.00  0.00    -0.100 C  
HETATM    3  H   UNL     1      -6.842  14.445  70.447  1.00  0.00     0.000 HD 
ENDROOT
BRANCH   2   4
HETATM    4  C   UNL     1      -6.784  15.892  68.317  1.00  0.00    -0.118 C  
HETATM    5  C   UNL     1      -6.320  20.108  65.695  1.00  0.00    -0.228 A  
HETATM    6  C   UNL     1      -5.781  19.097  64.910  1.00  0.00    -0.285 A  
HETATM    7  C   UNL     1      -7.988  16.724  68.769  1.00  0.00    -0.250 C  
HETATM    8  C   UNL     1      -7.624  18.197  68.694  1.00  0.00    -0.306 C  
HETATM    9  F   UNL     1      -6.272  21.376  65.263  1.00  0.00    -0.280 F  
HETATM   10  C   UNL     1      -5.837  17.776  65.362  1.00  0.00     0.046 A  
HETATM   11  O   UNL     1      -6.454  16.157  66.942  1.00  0.00    -0.283 OA 
HETATM   12  C   UNL     1      -6.981  18.501  67.374  1.00  0.00    -0.208 A  
HETATM   13  C   UNL     1      -6.424  17.481  66.592  1.00  0.00    -0.217 A  
HETATM   14  C   UNL     1      -6.915  19.826  66.920  1.00  0.00    -0.230 A  
ENDBRANCH   2   4
BRANCH   2  15
HETATM   15  C   UNL     1      -8.030  13.810  67.471  1.00  0.00    -0.181 C  
BRANCH  15  16
HETATM   16  N   UNL     1      -9.287  13.391  68.116  1.00  0.00    -0.213 NA 
HETATM   17  H   UNL     1      -9.811  14.180  68.493  1.00  0.00     0.000 HD 
BRANCH  16  18
HETATM   18  C   UNL     1     -10.080  12.597  67.161  1.00  0.00    -0.223 C  
BRANCH  18  19
HETATM   19  C   UNL     1     -11.188  11.799  67.877  1.00  0.00    -0.267 C  
HETATM   20  H   UNL     1     -12.415  10.340  67.400  1.00  0.00     0.000 HD 
HETATM   21  O   UNL     1     -11.732  10.832  66.959  1.00  0.00    -0.237 OA 
BRANCH  19  22
HETATM   22  C   UNL     1     -10.675  11.069  69.140  1.00  0.00    -0.234 C  
HETATM   23  C   UNL     1      -9.109   9.395  70.087  1.00  0.00    -0.262 C  
HETATM   24  C   UNL     1      -9.646   9.990  68.798  1.00  0.00    -0.168 C  
HETATM   25  C   UNL     1     -10.245   9.048  71.002  1.00  0.00    -0.347 A  
HETATM   26  C   UNL     1     -11.511   9.625  70.833  1.00  0.00    -0.353 A  
HETATM   27  O   UNL     1     -11.814  10.506  69.826  1.00  0.00    -0.265 OA 
HETATM   28  C   UNL     1     -12.564   9.282  71.685  1.00  0.00    -0.446 A  
HETATM   29  C   UNL     1     -12.354   8.377  72.725  1.00  0.00    -0.137 A  
HETATM   30  C   UNL     1     -11.094   7.818  72.901  1.00  0.00    -0.398 A  
HETATM   31  F   UNL     1     -10.890   6.946  73.897  1.00  0.00    -0.355 F  
HETATM   32  C   UNL     1     -10.041   8.146  72.054  1.00  0.00    -0.304 A  
ENDBRANCH  19  22
ENDBRANCH  18  19
ENDBRANCH  16  18
ENDBRANCH  15  16
ENDBRANCH   2  15
TORSDOF 6
ENDMDL
MODEL      230
REMARK 921   NORMALIZED FREE ENERGY PREDICTED BY IDOCK:   -4.84 KCAL/MOL
REMARK 922        TOTAL FREE ENERGY PREDICTED BY IDOCK:   -7.72 KCAL/MOL
REMARK 923 INTER-LIGAND FREE ENERGY PREDICTED BY IDOCK:   -7.85 KCAL/MOL
REMARK 924 INTRA-LIGAND FREE ENERGY PREDICTED BY IDOCK:    0.13 KCAL/MOL
REMARK 927      BINDING AFFINITY PREDICTED BY RF-SCORE:    0.00 PKD
ROOT
HETATM    1  O   UNL     1     -13.406  12.432  64.605  1.00  0.00    -0.778 OA 
HETATM    2  C   UNL     1     -12.135  13.089  64.709  1.00  0.00    -0.415 C  
HETATM    3  H   UNL     1     -13.375  11.788  63.908  1.00  0.00     0.000 HD 
ENDROOT
BRANCH   2   4
HETATM    4  C   UNL     1     -11.020  12.039  64.919  1.00  0.00    -0.306 C  
HETATM    5  C   UNL     1      -7.348   9.014  63.426  1.00  0.00    -0.097 A  
HETATM    6  C   UNL     1      -8.282   9.033  62.399  1.00  0.00    -0.171 A  
HETATM    7  C   UNL     1      -9.779  12.627  65.599  1.00  0.00    -0.149 C  
HETATM    8  C   UNL     1      -8.797  11.505  65.885  1.00  0.00    -0.107 C  
HETATM    9  F   UNL     1      -6.271   8.222  63.326  1.00  0.00    -0.073 F  
HETATM   10  C   UNL     1      -9.401   9.863  62.506  1.00  0.00    -0.263 A  
HETATM   11  O   UNL     1     -10.690  11.456  63.646  1.00  0.00    -0.367 OA 
HETATM   12  C   UNL     1      -8.625  10.647  64.666  1.00  0.00    -0.125 A  
HETATM   13  C   UNL     1      -9.577  10.658  63.639  1.00  0.00    -0.314 A  
HETATM   14  C   UNL     1      -7.508   9.807  64.557  1.00  0.00    -0.135 A  
ENDBRANCH   2   4
BRANCH   2  15
HETATM   15  C   UNL     1     -12.185  14.135  65.842  1.00  0.00    -0.439 C  
BRANCH  15  16
HETATM   16  N   UNL     1     -11.860  13.548  67.154  1.00  0.00    -0.376 NA 
HETATM   17  H   UNL     1     -10.965  13.060  67.149  1.00  0.00     0.000 HD 
BRANCH  16  18
HETATM   18  C   UNL     1     -11.918  14.602  68.184  1.00  0.00    -0.246 C  
BRANCH  18  19
HETATM   19  C   UNL     1     -10.534  14.841  68.821  1.00  0.00    -0.250 C  
HETATM   20  H   UNL     1      -8.761  14.004  68.708  1.00  0.00     0.000 HD 
HETATM   21  O   UNL     1      -9.613  13.856  68.316  1.00  0.00    -0.209 OA 
BRANCH  19  22
HETATM   22  C   UNL     1      -9.980  16.255  68.527  1.00  0.00    -0.234 C  
HETATM   23  C   UNL     1     -10.442  18.538  67.677  1.00  0.00    -0.452 C  
HETATM   24  C   UNL     1     -11.015  17.141  67.834  1.00  0.00    -0.208 C  
HETATM   25  C   UNL     1      -9.057  18.461  67.108  1.00  0.00    -0.267 A  
HETATM   26  C   UNL     1      -8.313  17.275  67.175  1.00  0.00    -0.201 A  
HETATM   27  O   UNL     1      -8.790  16.111  67.721  1.00  0.00    -0.181 OA 
HETATM   28  C   UNL     1      -7.029  17.214  66.628  1.00  0.00    -0.285 A  
HETATM   29  C   UNL     1      -6.469  18.343  66.031  1.00  0.00    -0.271 A  
HETATM   30  C   UNL     1      -7.201  19.523  65.981  1.00  0.00    -0.288 A  
HETATM   31  F   UNL     1      -6.668  20.609  65.406  1.00  0.00    -0.270 F  
HETATM   32  C   UNL     1      -8.484  19.594  66.515  1.00  0.00    -0.374 A  
ENDBRANCH  19  22
ENDBRANCH  18  19
ENDBRANCH  16  18
ENDBRANCH  15  16
ENDBRANCH   2  15
TORSDOF 6
ENDMDL
MODEL      231
REMARK 921   NORMALIZED FREE ENERGY PREDICTED BY IDOCK:   -4.84 KCAL/MOL
REMARK 922        TOTAL FREE ENERGY PREDICTED BY IDOCK:   -7.72 KCAL/MOL
REMARK 923 INTER-LIGAND FREE ENERGY PREDICTED BY IDOCK:   -7.18 KCAL/MOL
REMARK 924 INTRA-LIGAND FREE ENERGY PREDICTED BY IDOCK:   -0.54 KCAL/MOL
REMARK 927      BINDING AFFINITY PREDICTED BY RF-SCORE:    0.00 PKD
ROOT
HETATM    1  O   UNL     1     -11.181   5.261  66.214  1.00  0.00    -0.651 OA 
HETATM    2  C   UNL     1      -9.901   5.762  66.626  1.00  0.00    -0.165 C  
HETATM    3  H   UNL     1     -11.213   4.321  66.347  1.00  0.00     0.000 HD 
ENDROOT
BRANCH   2   4
HETATM    4  C   UNL     1      -9.632   5.359  68.095  1.00  0.00    -0.124 C  
HETATM    5  C   UNL     1     -10.764   4.974  72.936  1.00  0.00    -0.242 A  
HETATM    6  C   UNL     1     -11.328   6.164  72.495  1.00  0.00    -0.328 A  
HETATM    7  C   UNL     1      -9.725   3.847  68.317  1.00  0.00    -0.119 C  
HETATM    8  C   UNL     1      -9.316   3.534  69.745  1.00  0.00    -0.244 C  
HETATM    9  F   UNL     1     -10.855   4.639  74.231  1.00  0.00    -0.308 F  
HETATM   10  C   UNL     1     -11.234   6.507  71.144  1.00  0.00    -0.353 A  
HETATM   11  O   UNL     1     -10.552   6.069  68.944  1.00  0.00    -0.227 OA 
HETATM   12  C   UNL     1     -10.020   4.456  70.697  1.00  0.00    -0.254 A  
HETATM   13  C   UNL     1     -10.574   5.663  70.251  1.00  0.00    -0.300 A  
HETATM   14  C   UNL     1     -10.109   4.120  72.055  1.00  0.00    -0.234 A  
ENDBRANCH   2   4
BRANCH   2  15
HETATM   15  C   UNL     1      -9.849   7.288  66.411  1.00  0.00    -0.054 C  
BRANCH  15  16
HETATM   16  N   UNL     1      -8.687   7.695  65.600  1.00  0.00    -0.287 NA 
HETATM   17  H   UNL     1      -8.869   7.621  64.600  1.00  0.00     0.000 HD 
BRANCH  16  18
HETATM   18  C   UNL     1      -8.273   9.053  65.996  1.00  0.00    -0.113 C  
BRANCH  18  19
HETATM   19  C   UNL     1      -9.228   9.648  67.050  1.00  0.00    -0.142 C  
HETATM   20  H   UNL     1      -9.220   9.869  69.002  1.00  0.00     0.000 HD 
HETATM   21  O   UNL     1      -8.632   9.502  68.352  1.00  0.00    -0.118 OA 
BRANCH  19  22
HETATM   22  C   UNL     1      -9.539  11.142  66.797  1.00  0.00    -0.191 C  
HETATM   23  C   UNL     1     -10.530  13.240  67.671  1.00  0.00    -0.231 C  
HETATM   24  C   UNL     1     -10.357  11.755  67.933  1.00  0.00    -0.209 C  
HETATM   25  C   UNL     1     -10.976  13.460  66.256  1.00  0.00    -0.296 A  
HETATM   26  C   UNL     1     -10.792  12.473  65.278  1.00  0.00    -0.286 A  
HETATM   27  O   UNL     1     -10.234  11.247  65.535  1.00  0.00    -0.239 OA 
HETATM   28  C   UNL     1     -11.225  12.687  63.967  1.00  0.00    -0.459 A  
HETATM   29  C   UNL     1     -11.824  13.897  63.618  1.00  0.00    -0.128 A  
HETATM   30  C   UNL     1     -11.990  14.881  64.585  1.00  0.00    -0.401 A  
HETATM   31  F   UNL     1     -12.568  16.043  64.253  1.00  0.00    -0.146 F  
HETATM   32  C   UNL     1     -11.571  14.677  65.895  1.00  0.00    -0.327 A  
ENDBRANCH  19  22
ENDBRANCH  18  19
ENDBRANCH  16  18
ENDBRANCH  15  16
ENDBRANCH   2  15
TORSDOF 6
ENDMDL
MODEL      232
REMARK 921   NORMALIZED FREE ENERGY PREDICTED BY IDOCK:   -4.84 KCAL/MOL
REMARK 922        TOTAL FREE ENERGY PREDICTED BY IDOCK:   -7.72 KCAL/MOL
REMARK 923 INTER-LIGAND FREE ENERGY PREDICTED BY IDOCK:   -6.99 KCAL/MOL
REMARK 924 INTRA-LIGAND FREE ENERGY PREDICTED BY IDOCK:   -0.73 KCAL/MOL
REMARK 927      BINDING AFFINITY PREDICTED BY RF-SCORE:    0.00 PKD
ROOT
HETATM    1  O   UNL     1     -10.482   9.297  71.144  1.00  0.00    -0.282 OA 
HETATM    2  C   UNL     1      -9.642   8.613  70.204  1.00  0.00    -0.172 C  
HETATM    3  H   UNL     1     -11.286   8.808  71.269  1.00  0.00     0.000 HD 
ENDROOT
BRANCH   2   4
HETATM    4  C   UNL     1      -9.388   7.166  70.688  1.00  0.00    -0.158 C  
HETATM    5  C   UNL     1     -10.635   2.877  72.903  1.00  0.00    -0.123 A  
HETATM    6  C   UNL     1     -11.276   3.885  73.611  1.00  0.00    -0.294 A  
HETATM    7  C   UNL     1      -9.369   6.156  69.537  1.00  0.00    -0.147 C  
HETATM    8  C   UNL     1      -8.982   4.794  70.085  1.00  0.00    -0.143 C  
HETATM    9  F   UNL     1     -10.739   1.607  73.320  1.00  0.00    -0.156 F  
HETATM   10  C   UNL     1     -11.167   5.206  73.172  1.00  0.00    -0.398 A  
HETATM   11  O   UNL     1     -10.386   6.825  71.666  1.00  0.00    -0.197 OA 
HETATM   12  C   UNL     1      -9.784   4.485  71.314  1.00  0.00    -0.252 A  
HETATM   13  C   UNL     1     -10.416   5.507  72.035  1.00  0.00    -0.222 A  
HETATM   14  C   UNL     1      -9.889   3.162  71.765  1.00  0.00    -0.229 A  
ENDBRANCH   2   4
BRANCH   2  15
HETATM   15  C   UNL     1      -8.336   9.408  70.001  1.00  0.00    -0.180 C  
BRANCH  15  16
HETATM   16  N   UNL     1      -7.733   9.159  68.680  1.00  0.00    -0.091 NA 
HETATM   17  H   UNL     1      -8.317   8.562  68.094  1.00  0.00     0.000 HD 
BRANCH  16  18
HETATM   18  C   UNL     1      -7.428  10.449  68.035  1.00  0.00    -0.090 C  
BRANCH  18  19
HETATM   19  C   UNL     1      -8.226  11.601  68.679  1.00  0.00    -0.110 C  
HETATM   20  H   UNL     1      -7.801  13.351  69.464  1.00  0.00     0.000 HD 
HETATM   21  O   UNL     1      -7.309  12.641  69.067  1.00  0.00    -0.057 OA 
BRANCH  19  22
HETATM   22  C   UNL     1      -9.293  12.192  67.727  1.00  0.00    -0.193 C  
HETATM   23  C   UNL     1     -11.684  12.739  67.362  1.00  0.00    -0.425 C  
HETATM   24  C   UNL     1     -10.706  12.044  68.292  1.00  0.00    -0.252 C  
HETATM   25  C   UNL     1     -11.423  12.324  65.945  1.00  0.00    -0.428 A  
HETATM   26  C   UNL     1     -10.193  11.766  65.570  1.00  0.00    -0.252 A  
HETATM   27  O   UNL     1      -9.169  11.530  66.450  1.00  0.00    -0.196 OA 
HETATM   28  C   UNL     1      -9.970  11.371  64.248  1.00  0.00    -0.329 A  
HETATM   29  C   UNL     1     -10.965  11.552  63.287  1.00  0.00    -0.308 A  
HETATM   30  C   UNL     1     -12.177  12.122  63.658  1.00  0.00    -0.562 A  
HETATM   31  F   UNL     1     -13.135  12.295  62.738  1.00  0.00    -0.253 F  
HETATM   32  C   UNL     1     -12.414  12.511  64.971  1.00  0.00    -0.494 A  
ENDBRANCH  19  22
ENDBRANCH  18  19
ENDBRANCH  16  18
ENDBRANCH  15  16
ENDBRANCH   2  15
TORSDOF 6
ENDMDL
MODEL      233
REMARK 921   NORMALIZED FREE ENERGY PREDICTED BY IDOCK:   -4.84 KCAL/MOL
REMARK 922        TOTAL FREE ENERGY PREDICTED BY IDOCK:   -7.72 KCAL/MOL
REMARK 923 INTER-LIGAND FREE ENERGY PREDICTED BY IDOCK:   -5.62 KCAL/MOL
REMARK 924 INTRA-LIGAND FREE ENERGY PREDICTED BY IDOCK:   -2.10 KCAL/MOL
REMARK 927      BINDING AFFINITY PREDICTED BY RF-SCORE:    0.00 PKD
ROOT
HETATM    1  O   UNL     1      -8.158  11.595  65.982  1.00  0.00    -0.377 OA 
HETATM    2  C   UNL     1      -9.474  11.735  65.429  1.00  0.00    -0.140 C  
HETATM    3  H   UNL     1      -8.058  12.185  66.720  1.00  0.00     0.000 HD 
ENDROOT
BRANCH   2   4
HETATM    4  C   UNL     1     -10.532  11.493  66.531  1.00  0.00    -0.244 C  
HETATM    5  C   UNL     1     -12.121   9.841  70.960  1.00  0.00    -0.346 A  
HETATM    6  C   UNL     1     -11.156   8.940  70.528  1.00  0.00    -0.288 A  
HETATM    7  C   UNL     1     -10.913  12.779  67.272  1.00  0.00    -0.294 C  
HETATM    8  C   UNL     1     -12.046  12.472  68.236  1.00  0.00    -0.123 C  
HETATM    9  F   UNL     1     -12.775   9.610  72.107  1.00  0.00    -0.428 F  
HETATM   10  C   UNL     1     -10.473   9.187  69.334  1.00  0.00    -0.226 A  
HETATM   11  O   UNL     1     -10.031  10.496  67.440  1.00  0.00    -0.170 OA 
HETATM   12  C   UNL     1     -11.729  11.239  69.029  1.00  0.00    -0.410 A  
HETATM   13  C   UNL     1     -10.766  10.325  68.583  1.00  0.00    -0.224 A  
HETATM   14  C   UNL     1     -12.416  10.983  70.223  1.00  0.00    -0.365 A  
ENDBRANCH   2   4
BRANCH   2  15
HETATM   15  C   UNL     1      -9.637  10.776  64.232  1.00  0.00    -0.283 C  
BRANCH  15  16
HETATM   16  N   UNL     1      -8.537  10.909  63.260  1.00  0.00    -0.360 NA 
HETATM   17  H   UNL     1      -7.761  11.461  63.627  1.00  0.00     0.000 HD 
BRANCH  16  18
HETATM   18  C   UNL     1      -8.111   9.567  62.823  1.00  0.00    -0.137 C  
BRANCH  18  19
HETATM   19  C   UNL     1      -6.738   9.192  63.416  1.00  0.00    -0.090 C  
HETATM   20  H   UNL     1      -5.257  10.155  64.275  1.00  0.00     0.000 HD 
HETATM   21  O   UNL     1      -6.103  10.386  63.909  1.00  0.00    -0.137 OA 
BRANCH  19  22
HETATM   22  C   UNL     1      -6.847   8.161  64.565  1.00  0.00    -0.068 C  
HETATM   23  C   UNL     1      -8.085   6.242  65.531  1.00  0.00    -0.129 C  
HETATM   24  C   UNL     1      -8.102   7.297  64.439  1.00  0.00    -0.065 C  
HETATM   25  C   UNL     1      -7.774   6.880  66.852  1.00  0.00    -0.099 A  
HETATM   26  C   UNL     1      -7.159   8.138  66.920  1.00  0.00    -0.078 A  
HETATM   27  O   UNL     1      -6.831   8.882  65.816  1.00  0.00    -0.071 OA 
HETATM   28  C   UNL     1      -6.887   8.726  68.159  1.00  0.00    -0.069 A  
HETATM   29  C   UNL     1      -7.208   8.052  69.337  1.00  0.00    -0.071 A  
HETATM   30  C   UNL     1      -7.801   6.798  69.267  1.00  0.00    -0.110 A  
HETATM   31  F   UNL     1      -8.112   6.149  70.397  1.00  0.00    -0.103 F  
HETATM   32  C   UNL     1      -8.084   6.206  68.041  1.00  0.00    -0.114 A  
ENDBRANCH  19  22
ENDBRANCH  18  19
ENDBRANCH  16  18
ENDBRANCH  15  16
ENDBRANCH   2  15
TORSDOF 6
ENDMDL
MODEL      234
REMARK 921   NORMALIZED FREE ENERGY PREDICTED BY IDOCK:   -4.83 KCAL/MOL
REMARK 922        TOTAL FREE ENERGY PREDICTED BY IDOCK:   -7.71 KCAL/MOL
REMARK 923 INTER-LIGAND FREE ENERGY PREDICTED BY IDOCK:   -6.64 KCAL/MOL
REMARK 924 INTRA-LIGAND FREE ENERGY PREDICTED BY IDOCK:   -1.07 KCAL/MOL
REMARK 927      BINDING AFFINITY PREDICTED BY RF-SCORE:    0.00 PKD
ROOT
HETATM    1  O   UNL     1     -13.365  10.318  69.750  1.00  0.00    -0.403 OA 
HETATM    2  C   UNL     1     -12.041  10.739  70.106  1.00  0.00    -0.346 C  
HETATM    3  H   UNL     1     -13.965  11.050  69.831  1.00  0.00     0.000 HD 
ENDROOT
BRANCH   2   4
HETATM    4  C   UNL     1     -11.625  11.947  69.235  1.00  0.00    -0.315 C  
HETATM    5  C   UNL     1     -11.631  14.723  65.093  1.00  0.00    -0.358 A  
HETATM    6  C   UNL     1     -11.732  13.401  64.679  1.00  0.00    -0.406 A  
HETATM    7  C   UNL     1     -12.287  13.253  69.686  1.00  0.00    -0.154 C  
HETATM    8  C   UNL     1     -11.721  14.399  68.866  1.00  0.00    -0.357 C  
HETATM    9  F   UNL     1     -11.545  15.698  64.177  1.00  0.00    -0.368 F  
HETATM   10  C   UNL     1     -11.826  12.389  65.637  1.00  0.00    -0.468 A  
HETATM   11  O   UNL     1     -11.934  11.652  67.861  1.00  0.00    -0.599 OA 
HETATM   12  C   UNL     1     -11.727  14.042  67.409  1.00  0.00    -0.421 A  
HETATM   13  C   UNL     1     -11.813  12.707  66.995  1.00  0.00    -0.345 A  
HETATM   14  C   UNL     1     -11.624  15.054  66.444  1.00  0.00    -0.172 A  
ENDBRANCH   2   4
BRANCH   2  15
HETATM   15  C   UNL     1     -11.067   9.550  69.974  1.00  0.00    -0.237 C  
BRANCH  15  16
HETATM   16  N   UNL     1      -9.778   9.951  69.381  1.00  0.00    -0.201 NA 
HETATM   17  H   UNL     1      -9.054  10.089  70.086  1.00  0.00     0.000 HD 
BRANCH  16  18
HETATM   18  C   UNL     1      -9.386   8.962  68.361  1.00  0.00    -0.136 C  
BRANCH  18  19
HETATM   19  C   UNL     1      -7.883   8.632  68.447  1.00  0.00    -0.105 C  
HETATM   20  H   UNL     1      -6.225   9.646  68.738  1.00  0.00     0.000 HD 
HETATM   21  O   UNL     1      -7.152   9.849  68.685  1.00  0.00    -0.069 OA 
BRANCH  19  22
HETATM   22  C   UNL     1      -7.559   7.616  69.568  1.00  0.00    -0.098 C  
HETATM   23  C   UNL     1      -6.502   5.458  70.183  1.00  0.00    -0.034 C  
HETATM   24  C   UNL     1      -6.888   6.357  69.021  1.00  0.00    -0.066 C  
HETATM   25  C   UNL     1      -7.663   5.312  71.121  1.00  0.00    -0.101 A  
HETATM   26  C   UNL     1      -8.719   6.234  71.115  1.00  0.00    -0.128 A  
HETATM   27  O   UNL     1      -8.790   7.297  70.252  1.00  0.00    -0.146 OA 
HETATM   28  C   UNL     1      -9.800   6.076  71.985  1.00  0.00    -0.177 A  
HETATM   29  C   UNL     1      -9.824   5.009  72.883  1.00  0.00    -0.180 A  
HETATM   30  C   UNL     1      -8.769   4.106  72.900  1.00  0.00    -0.100 A  
HETATM   31  F   UNL     1      -8.790   3.079  73.759  1.00  0.00    -0.075 F  
HETATM   32  C   UNL     1      -7.691   4.248  72.033  1.00  0.00    -0.080 A  
ENDBRANCH  19  22
ENDBRANCH  18  19
ENDBRANCH  16  18
ENDBRANCH  15  16
ENDBRANCH   2  15
TORSDOF 6
ENDMDL
MODEL      235
REMARK 921   NORMALIZED FREE ENERGY PREDICTED BY IDOCK:   -4.82 KCAL/MOL
REMARK 922        TOTAL FREE ENERGY PREDICTED BY IDOCK:   -7.70 KCAL/MOL
REMARK 923 INTER-LIGAND FREE ENERGY PREDICTED BY IDOCK:   -6.56 KCAL/MOL
REMARK 924 INTRA-LIGAND FREE ENERGY PREDICTED BY IDOCK:   -1.15 KCAL/MOL
REMARK 927      BINDING AFFINITY PREDICTED BY RF-SCORE:    0.00 PKD
ROOT
HETATM    1  O   UNL     1     -13.654  12.452  72.205  1.00  0.00    -0.539 OA 
HETATM    2  C   UNL     1     -12.591  12.329  71.249  1.00  0.00    -0.234 C  
HETATM    3  H   UNL     1     -13.320  12.843  73.004  1.00  0.00     0.000 HD 
ENDROOT
BRANCH   2   4
HETATM    4  C   UNL     1     -11.943  13.712  71.008  1.00  0.00    -0.057 C  
HETATM    5  C   UNL     1     -10.320  17.492  68.190  1.00  0.00    -0.375 A  
HETATM    6  C   UNL     1     -10.088  16.333  67.462  1.00  0.00    -0.258 A  
HETATM    7  C   UNL     1     -12.863  14.870  71.406  1.00  0.00    -0.416 C  
HETATM    8  C   UNL     1     -12.100  16.175  71.264  1.00  0.00    -0.332 C  
HETATM    9  F   UNL     1      -9.918  18.673  67.699  1.00  0.00    -0.304 F  
HETATM   10  C   UNL     1     -10.512  15.105  67.977  1.00  0.00    -0.247 A  
HETATM   11  O   UNL     1     -11.555  13.805  69.626  1.00  0.00    -0.271 OA 
HETATM   12  C   UNL     1     -11.401  16.221  69.937  1.00  0.00    -0.265 A  
HETATM   13  C   UNL     1     -11.155  15.048  69.213  1.00  0.00    -0.272 A  
HETATM   14  C   UNL     1     -10.966  17.450  69.421  1.00  0.00     0.445 A  
ENDBRANCH   2   4
BRANCH   2  15
HETATM   15  C   UNL     1     -13.133  11.695  69.952  1.00  0.00     0.872 C  
BRANCH  15  16
HETATM   16  N   UNL     1     -12.857  10.248  69.883  1.00  0.00    -0.533 NA 
HETATM   17  H   UNL     1     -12.664   9.936  68.932  1.00  0.00     0.000 HD 
BRANCH  16  18
HETATM   18  C   UNL     1     -11.762   9.920  70.814  1.00  0.00    -0.341 C  
BRANCH  18  19
HETATM   19  C   UNL     1     -10.384  10.109  70.149  1.00  0.00    -0.224 C  
HETATM   20  H   UNL     1      -8.590   9.339  70.368  1.00  0.00     0.000 HD 
HETATM   21  O   UNL     1      -9.439   9.223  70.777  1.00  0.00    -0.247 OA 
BRANCH  19  22
HETATM   22  C   UNL     1     -10.412   9.828  68.628  1.00  0.00    -0.208 C  
HETATM   23  C   UNL     1      -9.254   8.838  66.671  1.00  0.00    -0.223 C  
HETATM   24  C   UNL     1      -9.113   9.184  68.142  1.00  0.00    -0.134 C  
HETATM   25  C   UNL     1      -9.804  10.015  65.921  1.00  0.00    -0.330 A  
HETATM   26  C   UNL     1     -10.482  11.045  66.588  1.00  0.00    -0.256 A  
HETATM   27  O   UNL     1     -10.663  11.076  67.947  1.00  0.00    -0.191 OA 
HETATM   28  C   UNL     1     -10.977  12.142  65.878  1.00  0.00    -0.332 A  
HETATM   29  C   UNL     1     -10.818  12.207  64.494  1.00  0.00    -0.356 A  
HETATM   30  C   UNL     1     -10.162  11.176  63.832  1.00  0.00    -0.362 A  
HETATM   31  F   UNL     1     -10.006  11.237  62.503  1.00  0.00    -0.221 F  
HETATM   32  C   UNL     1      -9.658  10.084  64.529  1.00  0.00    -0.346 A  
ENDBRANCH  19  22
ENDBRANCH  18  19
ENDBRANCH  16  18
ENDBRANCH  15  16
ENDBRANCH   2  15
TORSDOF 6
ENDMDL
MODEL      236
REMARK 921   NORMALIZED FREE ENERGY PREDICTED BY IDOCK:   -4.80 KCAL/MOL
REMARK 922        TOTAL FREE ENERGY PREDICTED BY IDOCK:   -7.67 KCAL/MOL
REMARK 923 INTER-LIGAND FREE ENERGY PREDICTED BY IDOCK:   -7.28 KCAL/MOL
REMARK 924 INTRA-LIGAND FREE ENERGY PREDICTED BY IDOCK:   -0.39 KCAL/MOL
REMARK 927      BINDING AFFINITY PREDICTED BY RF-SCORE:    0.00 PKD
ROOT
HETATM    1  O   UNL     1     -11.906  15.705  69.846  1.00  0.00    -0.327 OA 
HETATM    2  C   UNL     1     -10.759  14.937  69.456  1.00  0.00    -0.244 C  
HETATM    3  H   UNL     1     -11.636  16.585  70.081  1.00  0.00     0.000 HD 
ENDROOT
BRANCH   2   4
HETATM    4  C   UNL     1     -10.015  15.657  68.308  1.00  0.00    -0.213 C  
HETATM    5  C   UNL     1      -7.992  19.609  66.035  1.00  0.00    -0.328 A  
HETATM    6  C   UNL     1      -9.105  20.078  66.721  1.00  0.00    -0.467 A  
HETATM    7  C   UNL     1      -8.521  15.318  68.271  1.00  0.00    -0.154 C  
HETATM    8  C   UNL     1      -7.902  15.958  67.041  1.00  0.00    -0.267 C  
HETATM    9  F   UNL     1      -7.282  20.452  65.272  1.00  0.00    -0.318 F  
HETATM   10  C   UNL     1      -9.840  19.197  67.519  1.00  0.00    -0.406 A  
HETATM   11  O   UNL     1     -10.225  17.075  68.439  1.00  0.00    -0.290 OA 
HETATM   12  C   UNL     1      -8.328  17.392  66.936  1.00  0.00    -0.260 A  
HETATM   13  C   UNL     1      -9.460  17.858  67.617  1.00  0.00    -0.260 A  
HETATM   14  C   UNL     1      -7.599  18.278  66.131  1.00  0.00    -0.276 A  
ENDBRANCH   2   4
BRANCH   2  15
HETATM   15  C   UNL     1     -11.198  13.509  69.073  1.00  0.00    -0.269 C  
BRANCH  15  16
HETATM   16  N   UNL     1     -11.864  12.815  70.190  1.00  0.00    -0.513 NA 
HETATM   17  H   UNL     1     -12.749  13.254  70.446  1.00  0.00     0.000 HD 
BRANCH  16  18
HETATM   18  C   UNL     1     -12.024  11.390  69.849  1.00  0.00    -0.359 C  
BRANCH  18  19
HETATM   19  C   UNL     1     -10.746  10.589  70.166  1.00  0.00    -0.171 C  
HETATM   20  H   UNL     1     -10.313   8.946  71.151  1.00  0.00     0.000 HD 
HETATM   21  O   UNL     1     -11.101   9.439  70.956  1.00  0.00    -0.284 OA 
BRANCH  19  22
HETATM   22  C   UNL     1     -10.004  10.122  68.892  1.00  0.00    -0.199 C  
HETATM   23  C   UNL     1      -9.928  10.108  66.412  1.00  0.00    -0.295 C  
HETATM   24  C   UNL     1     -10.763  10.498  67.619  1.00  0.00    -0.324 C  
HETATM   25  C   UNL     1      -9.429   8.702  66.570  1.00  0.00    -0.278 A  
HETATM   26  C   UNL     1      -9.385   8.088  67.830  1.00  0.00    -0.137 A  
HETATM   27  O   UNL     1      -9.812   8.694  68.983  1.00  0.00    -0.173 OA 
HETATM   28  C   UNL     1      -8.930   6.773  67.959  1.00  0.00    -0.117 A  
HETATM   29  C   UNL     1      -8.496   6.070  66.835  1.00  0.00    -0.109 A  
HETATM   30  C   UNL     1      -8.525   6.687  65.591  1.00  0.00    -0.144 A  
HETATM   31  F   UNL     1      -8.111   6.013  64.509  1.00  0.00    -0.115 F  
HETATM   32  C   UNL     1      -8.983   7.992  65.448  1.00  0.00     0.013 A  
ENDBRANCH  19  22
ENDBRANCH  18  19
ENDBRANCH  16  18
ENDBRANCH  15  16
ENDBRANCH   2  15
TORSDOF 6
ENDMDL
MODEL      237
REMARK 921   NORMALIZED FREE ENERGY PREDICTED BY IDOCK:   -4.76 KCAL/MOL
REMARK 922        TOTAL FREE ENERGY PREDICTED BY IDOCK:   -7.62 KCAL/MOL
REMARK 923 INTER-LIGAND FREE ENERGY PREDICTED BY IDOCK:   -6.74 KCAL/MOL
REMARK 924 INTRA-LIGAND FREE ENERGY PREDICTED BY IDOCK:   -0.87 KCAL/MOL
REMARK 927      BINDING AFFINITY PREDICTED BY RF-SCORE:    0.00 PKD
ROOT
HETATM    1  O   UNL     1     -13.035  11.742  64.790  1.00  0.00    -0.024 OA 
HETATM    2  C   UNL     1     -11.886  12.519  64.424  1.00  0.00    -0.386 C  
HETATM    3  H   UNL     1     -13.064  10.950  64.267  1.00  0.00     0.000 HD 
ENDROOT
BRANCH   2   4
HETATM    4  C   UNL     1     -10.608  11.661  64.572  1.00  0.00    -0.318 C  
HETATM    5  C   UNL     1      -7.923   7.855  66.353  1.00  0.00    -0.102 A  
HETATM    6  C   UNL     1      -8.784   8.238  67.372  1.00  0.00    -0.125 A  
HETATM    7  C   UNL     1     -10.315  10.821  63.325  1.00  0.00    -0.137 C  
HETATM    8  C   UNL     1      -8.980  10.121  63.507  1.00  0.00    -0.265 C  
HETATM    9  F   UNL     1      -7.027   6.883  66.575  1.00  0.00    -0.058 F  
HETATM   10  C   UNL     1      -9.719   9.249  67.136  1.00  0.00    -0.225 A  
HETATM   11  O   UNL     1     -10.742  10.832  65.741  1.00  0.00    -0.179 OA 
HETATM   12  C   UNL     1      -8.919   9.469  64.857  1.00  0.00    -0.264 A  
HETATM   13  C   UNL     1      -9.779   9.869  65.888  1.00  0.00    -0.262 A  
HETATM   14  C   UNL     1      -7.977   8.460  65.102  1.00  0.00    -0.136 A  
ENDBRANCH   2   4
BRANCH   2  15
HETATM   15  C   UNL     1     -11.838  13.805  65.274  1.00  0.00    -0.352 C  
BRANCH  15  16
HETATM   16  N   UNL     1     -11.374  13.546  66.649  1.00  0.00    -0.313 NA 
HETATM   17  H   UNL     1     -10.475  13.064  66.669  1.00  0.00     0.000 HD 
BRANCH  16  18
HETATM   18  C   UNL     1     -11.346  14.814  67.398  1.00  0.00    -0.351 C  
BRANCH  18  19
HETATM   19  C   UNL     1      -9.955  15.075  68.011  1.00  0.00    -0.219 C  
HETATM   20  H   UNL     1      -8.136  14.385  67.736  1.00  0.00     0.000 HD 
HETATM   21  O   UNL     1      -8.993  14.225  67.358  1.00  0.00    -0.182 OA 
BRANCH  19  22
HETATM   22  C   UNL     1      -9.509  16.549  67.871  1.00  0.00    -0.220 C  
HETATM   23  C   UNL     1      -9.060  18.454  66.348  1.00  0.00    -0.271 C  
HETATM   24  C   UNL     1      -9.392  16.974  66.407  1.00  0.00    -0.295 C  
HETATM   25  C   UNL     1      -7.929  18.761  67.285  1.00  0.00    -0.251 A  
HETATM   26  C   UNL     1      -7.602  17.890  68.333  1.00  0.00    -0.282 A  
HETATM   27  O   UNL     1      -8.251  16.704  68.563  1.00  0.00    -0.209 OA 
HETATM   28  C   UNL     1      -6.538  18.182  69.190  1.00  0.00    -0.259 A  
HETATM   29  C   UNL     1      -5.805  19.357  69.018  1.00  0.00    -0.255 A  
HETATM   30  C   UNL     1      -6.142  20.227  67.988  1.00  0.00    -0.246 A  
HETATM   31  F   UNL     1      -5.439  21.355  67.819  1.00  0.00    -0.288 F  
HETATM   32  C   UNL     1      -7.194  19.943  67.125  1.00  0.00    -0.272 A  
ENDBRANCH  19  22
ENDBRANCH  18  19
ENDBRANCH  16  18
ENDBRANCH  15  16
ENDBRANCH   2  15
TORSDOF 6
ENDMDL
MODEL      238
REMARK 921   NORMALIZED FREE ENERGY PREDICTED BY IDOCK:   -4.74 KCAL/MOL
REMARK 922        TOTAL FREE ENERGY PREDICTED BY IDOCK:   -7.59 KCAL/MOL
REMARK 923 INTER-LIGAND FREE ENERGY PREDICTED BY IDOCK:   -7.16 KCAL/MOL
REMARK 924 INTRA-LIGAND FREE ENERGY PREDICTED BY IDOCK:   -0.43 KCAL/MOL
REMARK 927      BINDING AFFINITY PREDICTED BY RF-SCORE:    0.00 PKD
ROOT
HETATM    1  O   UNL     1     -11.036  17.756  64.800  1.00  0.00    -0.855 OA 
HETATM    2  C   UNL     1     -11.227  16.695  65.745  1.00  0.00     0.338 C  
HETATM    3  H   UNL     1     -11.108  18.594  65.241  1.00  0.00     0.000 HD 
ENDROOT
BRANCH   2   4
HETATM    4  C   UNL     1     -10.217  16.842  66.907  1.00  0.00    -0.296 C  
HETATM    5  C   UNL     1      -6.318  15.448  69.685  1.00  0.00    -0.160 A  
HETATM    6  C   UNL     1      -6.952  14.279  69.284  1.00  0.00    -0.116 A  
HETATM    7  C   UNL     1      -9.190  17.950  66.656  1.00  0.00    -0.288 C  
HETATM    8  C   UNL     1      -8.330  18.113  67.897  1.00  0.00    -0.254 C  
HETATM    9  F   UNL     1      -5.262  15.378  70.507  1.00  0.00    -0.114 F  
HETATM   10  C   UNL     1      -8.051  14.356  68.424  1.00  0.00    -0.143 A  
HETATM   11  O   UNL     1      -9.574  15.573  67.122  1.00  0.00    -0.217 OA 
HETATM   12  C   UNL     1      -7.856  16.773  68.375  1.00  0.00    -0.214 A  
HETATM   13  C   UNL     1      -8.507  15.597  67.980  1.00  0.00    -0.146 A  
HETATM   14  C   UNL     1      -6.759  16.691  69.244  1.00  0.00    -0.221 A  
ENDBRANCH   2   4
BRANCH   2  15
HETATM   15  C   UNL     1     -11.110  15.335  65.027  1.00  0.00    -0.426 C  
BRANCH  15  16
HETATM   16  N   UNL     1     -12.048  14.336  65.572  1.00  0.00    -0.390 NA 
HETATM   17  H   UNL     1     -13.020  14.628  65.478  1.00  0.00     0.000 HD 
BRANCH  16  18
HETATM   18  C   UNL     1     -11.790  13.032  64.936  1.00  0.00    -0.361 C  
BRANCH  18  19
HETATM   19  C   UNL     1     -10.447  12.435  65.402  1.00  0.00    -0.277 C  
HETATM   20  H   UNL     1      -8.594  13.068  65.555  1.00  0.00     0.000 HD 
HETATM   21  O   UNL     1      -9.421  13.436  65.268  1.00  0.00     0.095 OA 
BRANCH  19  22
HETATM   22  C   UNL     1     -10.491  11.944  66.869  1.00  0.00    -0.222 C  
HETATM   23  C   UNL     1     -10.888  10.051  68.421  1.00  0.00    -0.277 C  
HETATM   24  C   UNL     1     -10.974  10.497  66.972  1.00  0.00    -0.247 C  
HETATM   25  C   UNL     1     -11.505  11.087  69.312  1.00  0.00    -0.370 A  
HETATM   26  C   UNL     1     -11.684  12.406  68.872  1.00  0.00    -0.324 A  
HETATM   27  O   UNL     1     -11.347  12.836  67.614  1.00  0.00    -0.273 OA 
HETATM   28  C   UNL     1     -12.273  13.357  69.709  1.00  0.00    -0.307 A  
HETATM   29  C   UNL     1     -12.668  13.003  70.999  1.00  0.00    -0.347 A  
HETATM   30  C   UNL     1     -12.474  11.699  71.439  1.00  0.00    -0.208 A  
HETATM   31  F   UNL     1     -12.854  11.356  72.677  1.00  0.00    -0.080 F  
HETATM   32  C   UNL     1     -11.896  10.742  70.613  1.00  0.00    -0.460 A  
ENDBRANCH  19  22
ENDBRANCH  18  19
ENDBRANCH  16  18
ENDBRANCH  15  16
ENDBRANCH   2  15
TORSDOF 6
ENDMDL
MODEL      239
REMARK 921   NORMALIZED FREE ENERGY PREDICTED BY IDOCK:   -4.74 KCAL/MOL
REMARK 922        TOTAL FREE ENERGY PREDICTED BY IDOCK:   -7.59 KCAL/MOL
REMARK 923 INTER-LIGAND FREE ENERGY PREDICTED BY IDOCK:   -6.24 KCAL/MOL
REMARK 924 INTRA-LIGAND FREE ENERGY PREDICTED BY IDOCK:   -1.35 KCAL/MOL
REMARK 927      BINDING AFFINITY PREDICTED BY RF-SCORE:    0.00 PKD
ROOT
HETATM    1  O   UNL     1      -7.868   8.419  73.778  1.00  0.00    -0.291 OA 
HETATM    2  C   UNL     1      -8.728   7.763  72.836  1.00  0.00    -0.166 C  
HETATM    3  H   UNL     1      -7.396   9.119  73.344  1.00  0.00     0.000 HD 
ENDROOT
BRANCH   2   4
HETATM    4  C   UNL     1      -9.671   8.799  72.180  1.00  0.00    -0.265 C  
HETATM    5  C   UNL     1     -11.483  11.455  68.369  1.00  0.00    -0.299 A  
HETATM    6  C   UNL     1     -10.122  11.311  68.134  1.00  0.00    -0.195 A  
HETATM    7  C   UNL     1     -11.106   8.282  72.040  1.00  0.00    -0.379 C  
HETATM    8  C   UNL     1     -11.983   9.405  71.515  1.00  0.00    -0.456 C  
HETATM    9  F   UNL     1     -12.225  12.191  67.528  1.00  0.00    -0.328 F  
HETATM   10  C   UNL     1      -9.354  10.540  69.010  1.00  0.00    -0.205 A  
HETATM   11  O   UNL     1      -9.125   9.175  70.903  1.00  0.00    -0.230 OA 
HETATM   12  C   UNL     1     -11.327  10.065  70.338  1.00  0.00    -0.392 A  
HETATM   13  C   UNL     1      -9.951   9.929  70.113  1.00  0.00    -0.238 A  
HETATM   14  C   UNL     1     -12.092  10.845  69.461  1.00  0.00    -0.380 A  
ENDBRANCH   2   4
BRANCH   2  15
HETATM   15  C   UNL     1      -9.497   6.626  73.541  1.00  0.00    -0.154 C  
BRANCH  15  16
HETATM   16  N   UNL     1      -9.040   5.294  73.106  1.00  0.00    -0.127 NA 
HETATM   17  H   UNL     1      -8.789   4.695  73.892  1.00  0.00     0.000 HD 
BRANCH  16  18
HETATM   18  C   UNL     1     -10.070   4.686  72.245  1.00  0.00    -0.189 C  
BRANCH  18  19
HETATM   19  C   UNL     1      -9.442   3.746  71.196  1.00  0.00    -0.166 C  
HETATM   20  H   UNL     1      -9.641   1.859  70.688  1.00  0.00     0.000 HD 
HETATM   21  O   UNL     1     -10.028   2.438  71.334  1.00  0.00    -0.144 OA 
BRANCH  19  22
HETATM   22  C   UNL     1      -9.651   4.246  69.747  1.00  0.00    -0.209 C  
HETATM   23  C   UNL     1      -9.621   3.696  67.329  1.00  0.00    -0.194 C  
HETATM   24  C   UNL     1      -9.290   3.176  68.716  1.00  0.00    -0.231 C  
HETATM   25  C   UNL     1      -9.071   5.081  67.158  1.00  0.00    -0.115 A  
HETATM   26  C   UNL     1      -8.738   5.868  68.269  1.00  0.00    -0.112 A  
HETATM   27  O   UNL     1      -8.854   5.437  69.565  1.00  0.00    -0.104 OA 
HETATM   28  C   UNL     1      -8.214   7.151  68.094  1.00  0.00    -0.124 A  
HETATM   29  C   UNL     1      -8.040   7.666  66.809  1.00  0.00    -0.115 A  
HETATM   30  C   UNL     1      -8.387   6.890  65.710  1.00  0.00    -0.142 A  
HETATM   31  F   UNL     1      -8.219   7.380  64.475  1.00  0.00    -0.138 F  
HETATM   32  C   UNL     1      -8.902   5.609  65.871  1.00  0.00    -0.154 A  
ENDBRANCH  19  22
ENDBRANCH  18  19
ENDBRANCH  16  18
ENDBRANCH  15  16
ENDBRANCH   2  15
TORSDOF 6
ENDMDL
MODEL      240
REMARK 921   NORMALIZED FREE ENERGY PREDICTED BY IDOCK:   -4.70 KCAL/MOL
REMARK 922        TOTAL FREE ENERGY PREDICTED BY IDOCK:   -7.53 KCAL/MOL
REMARK 923 INTER-LIGAND FREE ENERGY PREDICTED BY IDOCK:   -6.48 KCAL/MOL
REMARK 924 INTRA-LIGAND FREE ENERGY PREDICTED BY IDOCK:   -1.06 KCAL/MOL
REMARK 927      BINDING AFFINITY PREDICTED BY RF-SCORE:    0.00 PKD
ROOT
HETATM    1  O   UNL     1      -9.683  16.310  69.330  1.00  0.00    -0.244 OA 
HETATM    2  C   UNL     1      -8.628  15.928  68.436  1.00  0.00    -0.178 C  
HETATM    3  H   UNL     1     -10.222  16.977  68.922  1.00  0.00     0.000 HD 
ENDROOT
BRANCH   2   4
HETATM    4  C   UNL     1      -9.228  15.464  67.089  1.00  0.00    -0.213 C  
HETATM    5  C   UNL     1     -12.186  12.675  64.202  1.00  0.00    -0.450 A  
HETATM    6  C   UNL     1     -11.779  11.860  65.250  1.00  0.00    -0.232 A  
HETATM    7  C   UNL     1     -10.211  16.482  66.501  1.00  0.00    -0.305 C  
HETATM    8  C   UNL     1     -10.644  16.009  65.125  1.00  0.00    -0.394 C  
HETATM    9  F   UNL     1     -12.948  12.164  63.224  1.00  0.00    -0.601 F  
HETATM   10  C   UNL     1     -10.989  12.397  66.269  1.00  0.00    -0.323 A  
HETATM   11  O   UNL     1      -9.856  14.183  67.280  1.00  0.00    -0.231 OA 
HETATM   12  C   UNL     1     -11.036  14.562  65.177  1.00  0.00    -0.387 A  
HETATM   13  C   UNL     1     -10.610  13.739  66.227  1.00  0.00    -0.289 A  
HETATM   14  C   UNL     1     -11.821  14.016  64.152  1.00  0.00    -0.393 A  
ENDBRANCH   2   4
BRANCH   2  15
HETATM   15  C   UNL     1      -7.754  14.844  69.100  1.00  0.00    -0.164 C  
BRANCH  15  16
HETATM   16  N   UNL     1      -7.384  13.774  68.156  1.00  0.00    -0.108 NA 
HETATM   17  H   UNL     1      -6.455  13.912  67.760  1.00  0.00     0.000 HD 
BRANCH  16  18
HETATM   18  C   UNL     1      -7.520  12.469  68.826  1.00  0.00    -0.049 C  
BRANCH  18  19
HETATM   19  C   UNL     1      -7.677  11.325  67.804  1.00  0.00    -0.113 C  
HETATM   20  H   UNL     1      -6.480  10.041  66.923  1.00  0.00     0.000 HD 
HETATM   21  O   UNL     1      -6.383  10.745  67.553  1.00  0.00    -0.055 OA 
BRANCH  19  22
HETATM   22  C   UNL     1      -8.645  10.221  68.289  1.00  0.00    -0.122 C  
HETATM   23  C   UNL     1     -10.600   9.636  69.699  1.00  0.00    -0.252 C  
HETATM   24  C   UNL     1      -9.615  10.738  69.351  1.00  0.00    -0.056 C  
HETATM   25  C   UNL     1      -9.863   8.355  69.952  1.00  0.00    -0.186 A  
HETATM   26  C   UNL     1      -8.557   8.166  69.479  1.00  0.00    -0.134 A  
HETATM   27  O   UNL     1      -7.855   9.122  68.793  1.00  0.00    -0.093 OA 
HETATM   28  C   UNL     1      -7.879   6.971  69.735  1.00  0.00    -0.115 A  
HETATM   29  C   UNL     1      -8.507   5.949  70.446  1.00  0.00    -0.131 A  
HETATM   30  C   UNL     1      -9.808   6.132  70.899  1.00  0.00    -0.182 A  
HETATM   31  F   UNL     1     -10.414   5.153  71.585  1.00  0.00    -0.252 F  
HETATM   32  C   UNL     1     -10.491   7.319  70.658  1.00  0.00    -0.226 A  
ENDBRANCH  19  22
ENDBRANCH  18  19
ENDBRANCH  16  18
ENDBRANCH  15  16
ENDBRANCH   2  15
TORSDOF 6
ENDMDL
MODEL      241
REMARK 921   NORMALIZED FREE ENERGY PREDICTED BY IDOCK:   -4.69 KCAL/MOL
REMARK 922        TOTAL FREE ENERGY PREDICTED BY IDOCK:   -7.52 KCAL/MOL
REMARK 923 INTER-LIGAND FREE ENERGY PREDICTED BY IDOCK:   -6.67 KCAL/MOL
REMARK 924 INTRA-LIGAND FREE ENERGY PREDICTED BY IDOCK:   -0.85 KCAL/MOL
REMARK 927      BINDING AFFINITY PREDICTED BY RF-SCORE:    0.00 PKD
ROOT
HETATM    1  O   UNL     1      -6.394   8.543  65.741  1.00  0.00    -0.051 OA 
HETATM    2  C   UNL     1      -7.510   8.725  64.858  1.00  0.00    -0.095 C  
HETATM    3  H   UNL     1      -5.868   9.334  65.756  1.00  0.00     0.000 HD 
ENDROOT
BRANCH   2   4
HETATM    4  C   UNL     1      -8.320   9.969  65.290  1.00  0.00    -0.154 C  
HETATM    5  C   UNL     1     -12.262  13.023  65.215  1.00  0.00    -0.466 A  
HETATM    6  C   UNL     1     -12.114  12.541  63.921  1.00  0.00    -0.581 A  
HETATM    7  C   UNL     1      -8.901   9.831  66.701  1.00  0.00    -0.153 C  
HETATM    8  C   UNL     1      -9.561  11.143  67.091  1.00  0.00    -0.192 C  
HETATM    9  F   UNL     1     -13.216  13.927  65.479  1.00  0.00    -0.533 F  
HETATM   10  C   UNL     1     -11.121  11.596  63.650  1.00  0.00    -0.506 A  
HETATM   11  O   UNL     1      -9.357  10.205  64.320  1.00  0.00    -0.254 OA 
HETATM   12  C   UNL     1     -10.447  11.624  65.980  1.00  0.00    -0.294 A  
HETATM   13  C   UNL     1     -10.284  11.148  64.673  1.00  0.00    -0.317 A  
HETATM   14  C   UNL     1     -11.439  12.578  66.244  1.00  0.00    -0.421 A  
ENDBRANCH   2   4
BRANCH   2  15
HETATM   15  C   UNL     1      -8.365   7.441  64.833  1.00  0.00    -0.022 C  
BRANCH  15  16
HETATM   16  N   UNL     1      -7.540   6.227  64.703  1.00  0.00    -0.090 NA 
HETATM   17  H   UNL     1      -6.541   6.436  64.701  1.00  0.00     0.000 HD 
BRANCH  16  18
HETATM   18  C   UNL     1      -7.910   5.273  65.763  1.00  0.00    -0.099 C  
BRANCH  18  19
HETATM   19  C   UNL     1      -9.441   5.132  65.883  1.00  0.00    -0.156 C  
HETATM   20  H   UNL     1     -10.798   3.858  65.255  1.00  0.00     0.000 HD 
HETATM   21  O   UNL     1      -9.855   3.945  65.181  1.00  0.00    -0.179 OA 
BRANCH  19  22
HETATM   22  C   UNL     1      -9.919   5.048  67.352  1.00  0.00    -0.177 C  
HETATM   23  C   UNL     1     -10.090   6.176  69.554  1.00  0.00    -0.232 C  
HETATM   24  C   UNL     1      -9.496   6.275  68.160  1.00  0.00    -0.113 C  
HETATM   25  C   UNL     1      -9.835   4.811  70.121  1.00  0.00    -0.308 A  
HETATM   26  C   UNL     1      -9.518   3.729  69.288  1.00  0.00    -0.182 A  
HETATM   27  O   UNL     1      -9.388   3.834  67.927  1.00  0.00    -0.161 OA 
HETATM   28  C   UNL     1      -9.270   2.466  69.832  1.00  0.00    -0.192 A  
HETATM   29  C   UNL     1      -9.357   2.270  71.210  1.00  0.00    -0.198 A  
HETATM   30  C   UNL     1      -9.688   3.339  72.032  1.00  0.00    -0.165 A  
HETATM   31  F   UNL     1      -9.771   3.155  73.357  1.00  0.00    -0.112 F  
HETATM   32  C   UNL     1      -9.930   4.603  71.504  1.00  0.00    -0.265 A  
ENDBRANCH  19  22
ENDBRANCH  18  19
ENDBRANCH  16  18
ENDBRANCH  15  16
ENDBRANCH   2  15
TORSDOF 6
ENDMDL
MODEL      242
REMARK 921   NORMALIZED FREE ENERGY PREDICTED BY IDOCK:   -4.68 KCAL/MOL
REMARK 922        TOTAL FREE ENERGY PREDICTED BY IDOCK:   -7.51 KCAL/MOL
REMARK 923 INTER-LIGAND FREE ENERGY PREDICTED BY IDOCK:   -6.46 KCAL/MOL
REMARK 924 INTRA-LIGAND FREE ENERGY PREDICTED BY IDOCK:   -1.05 KCAL/MOL
REMARK 927      BINDING AFFINITY PREDICTED BY RF-SCORE:    0.00 PKD
ROOT
HETATM    1  O   UNL     1     -11.862   6.393  67.883  1.00  0.00    -0.299 OA 
HETATM    2  C   UNL     1     -10.506   6.737  67.563  1.00  0.00    -0.239 C  
HETATM    3  H   UNL     1     -11.886   5.534  68.288  1.00  0.00     0.000 HD 
ENDROOT
BRANCH   2   4
HETATM    4  C   UNL     1      -9.633   6.657  68.837  1.00  0.00    -0.129 C  
HETATM    5  C   UNL     1      -6.583   8.496  72.327  1.00  0.00    -0.084 A  
HETATM    6  C   UNL     1      -6.259   9.143  71.142  1.00  0.00    -0.070 A  
HETATM    7  C   UNL     1     -10.468   6.569  70.118  1.00  0.00    -0.259 C  
HETATM    8  C   UNL     1      -9.536   6.358  71.298  1.00  0.00    -0.182 C  
HETATM    9  F   UNL     1      -5.871   8.748  73.434  1.00  0.00    -0.091 F  
HETATM   10  C   UNL     1      -7.006   8.881  69.991  1.00  0.00    -0.044 A  
HETATM   11  O   UNL     1      -8.752   7.794  68.865  1.00  0.00    -0.134 OA 
HETATM   12  C   UNL     1      -8.396   7.331  71.235  1.00  0.00    -0.111 A  
HETATM   13  C   UNL     1      -8.062   7.971  70.034  1.00  0.00    -0.116 A  
HETATM   14  C   UNL     1      -7.638   7.592  72.385  1.00  0.00    -0.095 A  
ENDBRANCH   2   4
BRANCH   2  15
HETATM   15  C   UNL     1     -10.468   8.132  66.906  1.00  0.00    -0.309 C  
BRANCH  15  16
HETATM   16  N   UNL     1      -9.430   8.227  65.864  1.00  0.00    -0.430 NA 
HETATM   17  H   UNL     1      -9.595   7.579  65.094  1.00  0.00     0.000 HD 
BRANCH  16  18
HETATM   18  C   UNL     1      -9.328   9.625  65.407  1.00  0.00    -0.259 C  
BRANCH  18  19
HETATM   19  C   UNL     1      -9.145  10.592  66.594  1.00  0.00    -0.155 C  
HETATM   20  H   UNL     1      -7.636  11.521  67.442  1.00  0.00     0.000 HD 
HETATM   21  O   UNL     1      -7.749  10.925  66.711  1.00  0.00    -0.127 OA 
BRANCH  19  22
HETATM   22  C   UNL     1      -9.967  11.892  66.436  1.00  0.00    -0.213 C  
HETATM   23  C   UNL     1     -11.609  13.167  65.083  1.00  0.00    -0.347 C  
HETATM   24  C   UNL     1     -10.744  11.920  65.120  1.00  0.00    -0.339 C  
HETATM   25  C   UNL     1     -10.793  14.365  65.468  1.00  0.00    -0.335 A  
HETATM   26  C   UNL     1      -9.590  14.224  66.174  1.00  0.00    -0.275 A  
HETATM   27  O   UNL     1      -9.060  13.011  66.532  1.00  0.00    -0.214 OA 
HETATM   28  C   UNL     1      -8.834  15.348  66.515  1.00  0.00    -0.347 A  
HETATM   29  C   UNL     1      -9.285  16.623  66.172  1.00  0.00    -0.312 A  
HETATM   30  C   UNL     1     -10.486  16.762  65.487  1.00  0.00    -0.237 A  
HETATM   31  F   UNL     1     -10.921  17.985  65.155  1.00  0.00    -0.422 F  
HETATM   32  C   UNL     1     -11.243  15.650  65.136  1.00  0.00    -0.286 A  
ENDBRANCH  19  22
ENDBRANCH  18  19
ENDBRANCH  16  18
ENDBRANCH  15  16
ENDBRANCH   2  15
TORSDOF 6
ENDMDL
MODEL      243
REMARK 921   NORMALIZED FREE ENERGY PREDICTED BY IDOCK:   -4.67 KCAL/MOL
REMARK 922        TOTAL FREE ENERGY PREDICTED BY IDOCK:   -7.50 KCAL/MOL
REMARK 923 INTER-LIGAND FREE ENERGY PREDICTED BY IDOCK:   -6.87 KCAL/MOL
REMARK 924 INTRA-LIGAND FREE ENERGY PREDICTED BY IDOCK:   -0.63 KCAL/MOL
REMARK 927      BINDING AFFINITY PREDICTED BY RF-SCORE:    0.00 PKD
ROOT
HETATM    1  O   UNL     1     -12.939  15.854  69.794  1.00  0.00    -0.547 OA 
HETATM    2  C   UNL     1     -11.712  15.114  69.730  1.00  0.00    -0.319 C  
HETATM    3  H   UNL     1     -12.755  16.758  70.019  1.00  0.00     0.000 HD 
ENDROOT
BRANCH   2   4
HETATM    4  C   UNL     1     -10.746  15.790  68.729  1.00  0.00    -0.253 C  
HETATM    5  C   UNL     1      -8.808  19.667  66.264  1.00  0.00    -0.371 A  
HETATM    6  C   UNL     1     -10.162  19.937  66.418  1.00  0.00    -0.617 A  
HETATM    7  C   UNL     1      -9.309  15.860  69.255  1.00  0.00    -0.259 C  
HETATM    8  C   UNL     1      -8.413  16.412  68.160  1.00  0.00    -0.188 C  
HETATM    9  F   UNL     1      -8.038  20.519  65.572  1.00  0.00    -0.137 F  
HETATM   10  C   UNL     1     -10.959  19.048  67.143  1.00  0.00    -0.338 A  
HETATM   11  O   UNL     1     -11.252  17.100  68.414  1.00  0.00    -0.218 OA 
HETATM   12  C   UNL     1      -9.030  17.638  67.557  1.00  0.00    -0.235 A  
HETATM   13  C   UNL     1     -10.399  17.899  67.701  1.00  0.00    -0.381 A  
HETATM   14  C   UNL     1      -8.236  18.529  66.821  1.00  0.00    -0.268 A  
ENDBRANCH   2   4
BRANCH   2  15
HETATM   15  C   UNL     1     -12.012  13.646  69.364  1.00  0.00    -0.342 C  
BRANCH  15  16
HETATM   16  N   UNL     1     -11.715  13.354  67.951  1.00  0.00    -0.341 NA 
HETATM   17  H   UNL     1     -11.539  14.200  67.409  1.00  0.00     0.000 HD 
BRANCH  16  18
HETATM   18  C   UNL     1     -10.594  12.400  67.878  1.00  0.00    -0.213 C  
BRANCH  18  19
HETATM   19  C   UNL     1      -9.888  12.464  66.509  1.00  0.00    -0.235 C  
HETATM   20  H   UNL     1      -8.593  13.658  65.640  1.00  0.00     0.000 HD 
HETATM   21  O   UNL     1      -9.027  13.618  66.483  1.00  0.00    -0.172 OA 
BRANCH  19  22
HETATM   22  C   UNL     1      -9.053  11.198  66.208  1.00  0.00    -0.194 C  
HETATM   23  C   UNL     1      -6.850  10.069  66.369  1.00  0.00    -0.093 C  
HETATM   24  C   UNL     1      -7.583  11.381  66.588  1.00  0.00    -0.119 C  
HETATM   25  C   UNL     1      -7.186   9.517  65.016  1.00  0.00    -0.110 A  
HETATM   26  C   UNL     1      -8.331   9.939  64.326  1.00  0.00    -0.166 A  
HETATM   27  O   UNL     1      -9.196  10.889  64.805  1.00  0.00    -0.201 OA 
HETATM   28  C   UNL     1      -8.623   9.425  63.061  1.00  0.00    -0.222 A  
HETATM   29  C   UNL     1      -7.786   8.470  62.484  1.00  0.00    -0.141 A  
HETATM   30  C   UNL     1      -6.661   8.040  63.177  1.00  0.00    -0.084 A  
HETATM   31  F   UNL     1      -5.854   7.124  62.625  1.00  0.00    -0.040 F  
HETATM   32  C   UNL     1      -6.355   8.550  64.434  1.00  0.00    -0.067 A  
ENDBRANCH  19  22
ENDBRANCH  18  19
ENDBRANCH  16  18
ENDBRANCH  15  16
ENDBRANCH   2  15
TORSDOF 6
ENDMDL
MODEL      244
REMARK 921   NORMALIZED FREE ENERGY PREDICTED BY IDOCK:   -4.67 KCAL/MOL
REMARK 922        TOTAL FREE ENERGY PREDICTED BY IDOCK:   -7.49 KCAL/MOL
REMARK 923 INTER-LIGAND FREE ENERGY PREDICTED BY IDOCK:   -7.07 KCAL/MOL
REMARK 924 INTRA-LIGAND FREE ENERGY PREDICTED BY IDOCK:   -0.43 KCAL/MOL
REMARK 927      BINDING AFFINITY PREDICTED BY RF-SCORE:    0.00 PKD
ROOT
HETATM    1  O   UNL     1     -10.932  16.060  64.858  1.00  0.00    -0.472 OA 
HETATM    2  C   UNL     1     -10.778  15.540  66.186  1.00  0.00    -0.313 C  
HETATM    3  H   UNL     1     -11.125  16.989  64.900  1.00  0.00     0.000 HD 
ENDROOT
BRANCH   2   4
HETATM    4  C   UNL     1      -9.688  16.340  66.936  1.00  0.00    -0.238 C  
HETATM    5  C   UNL     1      -6.885  20.362  67.853  1.00  0.00    -0.301 A  
HETATM    6  C   UNL     1      -7.090  20.331  66.480  1.00  0.00    -0.297 A  
HETATM    7  C   UNL     1     -10.133  16.770  68.338  1.00  0.00    -0.285 C  
HETATM    8  C   UNL     1      -8.961  17.426  69.046  1.00  0.00    -0.062 C  
HETATM    9  F   UNL     1      -6.101  21.311  68.384  1.00  0.00    -0.362 F  
HETATM   10  C   UNL     1      -7.911  19.342  65.932  1.00  0.00    -0.230 A  
HETATM   11  O   UNL     1      -9.316  17.477  66.136  1.00  0.00    -0.432 OA 
HETATM   12  C   UNL     1      -8.314  18.436  68.145  1.00  0.00    -0.301 A  
HETATM   13  C   UNL     1      -8.511  18.393  66.758  1.00  0.00    -0.264 A  
HETATM   14  C   UNL     1      -7.483  19.425  68.689  1.00  0.00    -0.385 A  
ENDBRANCH   2   4
BRANCH   2  15
HETATM   15  C   UNL     1     -10.464  14.032  66.118  1.00  0.00    -0.297 C  
BRANCH  15  16
HETATM   16  N   UNL     1     -11.048  13.291  67.251  1.00  0.00    -0.272 NA 
HETATM   17  H   UNL     1     -12.052  13.146  67.141  1.00  0.00     0.000 HD 
BRANCH  16  18
HETATM   18  C   UNL     1     -10.315  12.026  67.432  1.00  0.00    -0.207 C  
BRANCH  18  19
HETATM   19  C   UNL     1     -10.509  11.464  68.855  1.00  0.00    -0.193 C  
HETATM   20  H   UNL     1     -12.000  10.712  69.889  1.00  0.00     0.000 HD 
HETATM   21  O   UNL     1     -11.881  11.058  69.012  1.00  0.00    -0.310 OA 
BRANCH  19  22
HETATM   22  C   UNL     1      -9.585  10.258  69.150  1.00  0.00    -0.218 C  
HETATM   23  C   UNL     1      -8.928   7.942  68.554  1.00  0.00    -0.133 C  
HETATM   24  C   UNL     1      -9.939   9.044  68.291  1.00  0.00    -0.198 C  
HETATM   25  C   UNL     1      -8.748   7.757  70.031  1.00  0.00    -0.141 A  
HETATM   26  C   UNL     1      -9.117   8.762  70.936  1.00  0.00    -0.208 A  
HETATM   27  O   UNL     1      -9.686   9.950  70.557  1.00  0.00    -0.203 OA 
HETATM   28  C   UNL     1      -8.955   8.570  72.310  1.00  0.00    -0.299 A  
HETATM   29  C   UNL     1      -8.404   7.381  72.790  1.00  0.00    -0.137 A  
HETATM   30  C   UNL     1      -8.024   6.393  71.890  1.00  0.00    -0.104 A  
HETATM   31  F   UNL     1      -7.496   5.250  72.347  1.00  0.00    -0.085 F  
HETATM   32  C   UNL     1      -8.187   6.570  70.520  1.00  0.00    -0.118 A  
ENDBRANCH  19  22
ENDBRANCH  18  19
ENDBRANCH  16  18
ENDBRANCH  15  16
ENDBRANCH   2  15
TORSDOF 6
ENDMDL
MODEL      245
REMARK 921   NORMALIZED FREE ENERGY PREDICTED BY IDOCK:   -4.65 KCAL/MOL
REMARK 922        TOTAL FREE ENERGY PREDICTED BY IDOCK:   -7.47 KCAL/MOL
REMARK 923 INTER-LIGAND FREE ENERGY PREDICTED BY IDOCK:   -4.65 KCAL/MOL
REMARK 924 INTRA-LIGAND FREE ENERGY PREDICTED BY IDOCK:   -2.82 KCAL/MOL
REMARK 927      BINDING AFFINITY PREDICTED BY RF-SCORE:    0.00 PKD
ROOT
HETATM    1  O   UNL     1     -13.074  10.639  71.019  1.00  0.00    -0.362 OA 
HETATM    2  C   UNL     1     -11.889  10.131  70.390  1.00  0.00    -0.288 C  
HETATM    3  H   UNL     1     -13.609   9.916  71.322  1.00  0.00     0.000 HD 
ENDROOT
BRANCH   2   4
HETATM    4  C   UNL     1     -11.134   9.204  71.370  1.00  0.00    -0.345 C  
HETATM    5  C   UNL     1      -9.236   4.851  72.891  1.00  0.00    -0.130 A  
HETATM    6  C   UNL     1     -10.404   4.551  72.203  1.00  0.00    -0.233 A  
HETATM    7  C   UNL     1      -9.624   9.460  71.377  1.00  0.00    -0.076 C  
HETATM    8  C   UNL     1      -8.985   8.606  72.458  1.00  0.00    -0.163 C  
HETATM    9  F   UNL     1      -8.540   3.865  73.475  1.00  0.00    -0.089 F  
HETATM   10  C   UNL     1     -11.124   5.581  71.593  1.00  0.00    -0.192 A  
HETATM   11  O   UNL     1     -11.430   7.837  71.034  1.00  0.00    -0.275 OA 
HETATM   12  C   UNL     1      -9.486   7.195  72.363  1.00  0.00    -0.166 A  
HETATM   13  C   UNL     1     -10.674   6.898  71.682  1.00  0.00    -0.222 A  
HETATM   14  C   UNL     1      -8.772   6.159  72.981  1.00  0.00    -0.121 A  
ENDBRANCH   2   4
BRANCH   2  15
HETATM   15  C   UNL     1     -11.020  11.307  69.897  1.00  0.00    -0.026 C  
BRANCH  15  16
HETATM   16  N   UNL     1     -10.884  11.320  68.430  1.00  0.00    -0.191 NA 
HETATM   17  H   UNL     1     -10.896  12.267  68.049  1.00  0.00     0.000 HD 
BRANCH  16  18
HETATM   18  C   UNL     1      -9.669  10.578  68.049  1.00  0.00    -0.147 C  
BRANCH  18  19
HETATM   19  C   UNL     1      -9.952   9.588  66.901  1.00  0.00    -0.216 C  
HETATM   20  H   UNL     1      -9.518   9.478  64.988  1.00  0.00     0.000 HD 
HETATM   21  O   UNL     1      -9.344  10.088  65.695  1.00  0.00    -0.173 OA 
BRANCH  19  22
HETATM   22  C   UNL     1      -9.413   8.168  67.193  1.00  0.00    -0.161 C  
HETATM   23  C   UNL     1      -9.948   5.812  67.755  1.00  0.00    -0.166 C  
HETATM   24  C   UNL     1     -10.531   7.204  67.592  1.00  0.00    -0.306 C  
HETATM   25  C   UNL     1      -8.709   5.874  68.598  1.00  0.00    -0.109 A  
HETATM   26  C   UNL     1      -8.013   7.079  68.774  1.00  0.00    -0.120 A  
HETATM   27  O   UNL     1      -8.416   8.272  68.232  1.00  0.00    -0.133 OA 
HETATM   28  C   UNL     1      -6.868   7.123  69.573  1.00  0.00    -0.050 A  
HETATM   29  C   UNL     1      -6.396   5.961  70.184  1.00  0.00    -0.031 A  
HETATM   30  C   UNL     1      -7.077   4.765  69.994  1.00  0.00    -0.050 A  
HETATM   31  F   UNL     1      -6.628   3.648  70.581  1.00  0.00    -0.028 F  
HETATM   32  C   UNL     1      -8.223   4.710  69.207  1.00  0.00    -0.077 A  
ENDBRANCH  19  22
ENDBRANCH  18  19
ENDBRANCH  16  18
ENDBRANCH  15  16
ENDBRANCH   2  15
TORSDOF 6
ENDMDL
MODEL      246
REMARK 921   NORMALIZED FREE ENERGY PREDICTED BY IDOCK:   -4.64 KCAL/MOL
REMARK 922        TOTAL FREE ENERGY PREDICTED BY IDOCK:   -7.45 KCAL/MOL
REMARK 923 INTER-LIGAND FREE ENERGY PREDICTED BY IDOCK:   -6.51 KCAL/MOL
REMARK 924 INTRA-LIGAND FREE ENERGY PREDICTED BY IDOCK:   -0.94 KCAL/MOL
REMARK 927      BINDING AFFINITY PREDICTED BY RF-SCORE:    0.00 PKD
ROOT
HETATM    1  O   UNL     1     -13.583   9.966  70.705  1.00  0.00    -0.574 OA 
HETATM    2  C   UNL     1     -12.259   9.701  71.190  1.00  0.00    -0.350 C  
HETATM    3  H   UNL     1     -13.704  10.902  70.602  1.00  0.00     0.000 HD 
ENDROOT
BRANCH   2   4
HETATM    4  C   UNL     1     -11.218  10.333  70.237  1.00  0.00    -0.323 C  
HETATM    5  C   UNL     1      -6.895  10.484  67.757  1.00  0.00    -0.073 A  
HETATM    6  C   UNL     1      -6.633   9.849  68.964  1.00  0.00    -0.052 A  
HETATM    7  C   UNL     1     -11.651  10.271  68.769  1.00  0.00    -0.118 C  
HETATM    8  C   UNL     1     -10.640  11.029  67.927  1.00  0.00    -0.244 C  
HETATM    9  F   UNL     1      -5.889  10.725  66.904  1.00  0.00    -0.050 F  
HETATM   10  C   UNL     1      -7.685   9.597  69.848  1.00  0.00    -0.146 A  
HETATM   11  O   UNL     1      -9.953   9.678  70.437  1.00  0.00    -0.252 OA 
HETATM   12  C   UNL     1      -9.247  10.614  68.296  1.00  0.00    -0.153 A  
HETATM   13  C   UNL     1      -8.983   9.987  69.521  1.00  0.00    -0.205 A  
HETATM   14  C   UNL     1      -8.187  10.872  67.415  1.00  0.00    -0.117 A  
ENDBRANCH   2   4
BRANCH   2  15
HETATM   15  C   UNL     1     -12.063   8.181  71.357  1.00  0.00    -0.297 C  
BRANCH  15  16
HETATM   16  N   UNL     1     -11.902   7.793  72.770  1.00  0.00    -0.598 NA 
HETATM   17  H   UNL     1     -12.677   7.221  73.105  1.00  0.00     0.000 HD 
BRANCH  16  18
HETATM   18  C   UNL     1     -10.599   7.127  72.944  1.00  0.00    -0.281 C  
BRANCH  18  19
HETATM   19  C   UNL     1     -10.735   5.594  72.857  1.00  0.00    -0.248 C  
HETATM   20  H   UNL     1     -12.200   4.293  72.999  1.00  0.00     0.000 HD 
HETATM   21  O   UNL     1     -12.117   5.238  73.052  1.00  0.00    -0.163 OA 
BRANCH  19  22
HETATM   22  C   UNL     1     -10.250   5.028  71.502  1.00  0.00    -0.204 C  
HETATM   23  C   UNL     1      -8.322   4.341  70.101  1.00  0.00    -0.081 C  
HETATM   24  C   UNL     1      -8.725   5.006  71.405  1.00  0.00    -0.141 C  
HETATM   25  C   UNL     1      -9.111   4.924  68.967  1.00  0.00    -0.150 A  
HETATM   26  C   UNL     1     -10.310   5.612  69.199  1.00  0.00    -0.258 A  
HETATM   27  O   UNL     1     -10.829   5.830  70.449  1.00  0.00    -0.291 OA 
HETATM   28  C   UNL     1     -11.028   6.162  68.133  1.00  0.00    -0.398 A  
HETATM   29  C   UNL     1     -10.564   6.009  66.826  1.00  0.00    -0.359 A  
HETATM   30  C   UNL     1      -9.384   5.312  66.597  1.00  0.00    -0.138 A  
HETATM   31  F   UNL     1      -8.935   5.165  65.343  1.00  0.00    -0.146 F  
HETATM   32  C   UNL     1      -8.658   4.767  67.650  1.00  0.00    -0.103 A  
ENDBRANCH  19  22
ENDBRANCH  18  19
ENDBRANCH  16  18
ENDBRANCH  15  16
ENDBRANCH   2  15
TORSDOF 6
ENDMDL
MODEL      247
REMARK 921   NORMALIZED FREE ENERGY PREDICTED BY IDOCK:   -4.62 KCAL/MOL
REMARK 922        TOTAL FREE ENERGY PREDICTED BY IDOCK:   -7.43 KCAL/MOL
REMARK 923 INTER-LIGAND FREE ENERGY PREDICTED BY IDOCK:   -6.85 KCAL/MOL
REMARK 924 INTRA-LIGAND FREE ENERGY PREDICTED BY IDOCK:   -0.58 KCAL/MOL
REMARK 927      BINDING AFFINITY PREDICTED BY RF-SCORE:    0.00 PKD
ROOT
HETATM    1  O   UNL     1      -7.490  13.309  68.502  1.00  0.00    -0.109 OA 
HETATM    2  C   UNL     1      -8.022  13.638  67.210  1.00  0.00    -0.114 C  
HETATM    3  H   UNL     1      -6.597  13.624  68.568  1.00  0.00     0.000 HD 
ENDROOT
BRANCH   2   4
HETATM    4  C   UNL     1      -7.910  15.161  66.972  1.00  0.00    -0.162 C  
HETATM    5  C   UNL     1      -9.280  19.921  67.551  1.00  0.00    -0.346 A  
HETATM    6  C   UNL     1     -10.448  19.171  67.571  1.00  0.00    -0.549 A  
HETATM    7  C   UNL     1      -6.719  15.785  67.706  1.00  0.00    -0.178 C  
HETATM    8  C   UNL     1      -6.608  17.247  67.309  1.00  0.00    -0.188 C  
HETATM    9  F   UNL     1      -9.350  21.258  67.623  1.00  0.00    -0.405 F  
HETATM   10  C   UNL     1     -10.370  17.778  67.500  1.00  0.00    -0.371 A  
HETATM   11  O   UNL     1      -9.148  15.782  67.364  1.00  0.00    -0.192 OA 
HETATM   12  C   UNL     1      -7.950  17.909  67.401  1.00  0.00    -0.221 A  
HETATM   13  C   UNL     1      -9.128  17.151  67.404  1.00  0.00    -0.224 A  
HETATM   14  C   UNL     1      -8.035  19.307  67.464  1.00  0.00    -0.290 A  
ENDBRANCH   2   4
BRANCH   2  15
HETATM   15  C   UNL     1      -9.474  13.127  67.103  1.00  0.00    -0.239 C  
BRANCH  15  16
HETATM   16  N   UNL     1      -9.592  11.976  66.191  1.00  0.00    -0.237 NA 
HETATM   17  H   UNL     1      -8.710  11.473  66.086  1.00  0.00     0.000 HD 
BRANCH  16  18
HETATM   18  C   UNL     1     -10.683  11.100  66.653  1.00  0.00    -0.269 C  
BRANCH  18  19
HETATM   19  C   UNL     1     -10.169   9.683  66.975  1.00  0.00    -0.244 C  
HETATM   20  H   UNL     1      -8.565   8.630  66.552  1.00  0.00     0.000 HD 
HETATM   21  O   UNL     1      -8.882   9.503  66.354  1.00  0.00    -0.138 OA 
BRANCH  19  22
HETATM   22  C   UNL     1     -10.042   9.425  68.494  1.00  0.00    -0.187 C  
HETATM   23  C   UNL     1      -8.542   9.282  70.464  1.00  0.00    -0.271 C  
HETATM   24  C   UNL     1      -8.583   9.430  68.954  1.00  0.00    -0.131 C  
HETATM   25  C   UNL     1      -9.432   8.153  70.891  1.00  0.00    -0.186 A  
HETATM   26  C   UNL     1     -10.446   7.674  70.050  1.00  0.00    -0.229 A  
HETATM   27  O   UNL     1     -10.679   8.164  68.790  1.00  0.00    -0.159 OA 
HETATM   28  C   UNL     1     -11.260   6.613  70.456  1.00  0.00    -0.388 A  
HETATM   29  C   UNL     1     -11.080   6.037  71.713  1.00  0.00    -0.332 A  
HETATM   30  C   UNL     1     -10.086   6.525  72.552  1.00  0.00    -0.172 A  
HETATM   31  F   UNL     1      -9.910   5.972  73.760  1.00  0.00    -0.148 F  
HETATM   32  C   UNL     1      -9.265   7.575  72.157  1.00  0.00    -0.171 A  
ENDBRANCH  19  22
ENDBRANCH  18  19
ENDBRANCH  16  18
ENDBRANCH  15  16
ENDBRANCH   2  15
TORSDOF 6
ENDMDL
MODEL      248
REMARK 921   NORMALIZED FREE ENERGY PREDICTED BY IDOCK:   -4.62 KCAL/MOL
REMARK 922        TOTAL FREE ENERGY PREDICTED BY IDOCK:   -7.43 KCAL/MOL
REMARK 923 INTER-LIGAND FREE ENERGY PREDICTED BY IDOCK:   -6.72 KCAL/MOL
REMARK 924 INTRA-LIGAND FREE ENERGY PREDICTED BY IDOCK:   -0.70 KCAL/MOL
REMARK 927      BINDING AFFINITY PREDICTED BY RF-SCORE:    0.00 PKD
ROOT
HETATM    1  O   UNL     1      -9.653   3.082  70.219  1.00  0.00    -0.159 OA 
HETATM    2  C   UNL     1      -9.912   4.396  69.706  1.00  0.00    -0.154 C  
HETATM    3  H   UNL     1      -9.751   2.443  69.523  1.00  0.00     0.000 HD 
ENDROOT
BRANCH   2   4
HETATM    4  C   UNL     1      -8.982   4.680  68.504  1.00  0.00    -0.110 C  
HETATM    5  C   UNL     1      -7.919   5.204  63.660  1.00  0.00    -0.098 A  
HETATM    6  C   UNL     1      -8.877   4.203  63.745  1.00  0.00    -0.124 A  
HETATM    7  C   UNL     1      -8.615   6.162  68.380  1.00  0.00    -0.112 C  
HETATM    8  C   UNL     1      -7.599   6.326  67.264  1.00  0.00    -0.093 C  
HETATM    9  F   UNL     1      -7.393   5.516  62.467  1.00  0.00    -0.041 F  
HETATM   10  C   UNL     1      -9.426   3.883  64.990  1.00  0.00    -0.170 A  
HETATM   11  O   UNL     1      -9.616   4.197  67.305  1.00  0.00    -0.180 OA 
HETATM   12  C   UNL     1      -8.051   5.582  66.042  1.00  0.00    -0.108 A  
HETATM   13  C   UNL     1      -9.007   4.562  66.134  1.00  0.00    -0.120 A  
HETATM   14  C   UNL     1      -7.498   5.893  64.793  1.00  0.00    -0.078 A  
ENDBRANCH   2   4
BRANCH   2  15
HETATM   15  C   UNL     1      -9.753   5.433  70.836  1.00  0.00    -0.180 C  
BRANCH  15  16
HETATM   16  N   UNL     1     -11.053   5.908  71.342  1.00  0.00    -0.271 NA 
HETATM   17  H   UNL     1     -11.045   6.056  72.351  1.00  0.00     0.000 HD 
BRANCH  16  18
HETATM   18  C   UNL     1     -11.450   7.118  70.601  1.00  0.00    -0.308 C  
BRANCH  18  19
HETATM   19  C   UNL     1     -12.040   8.186  71.543  1.00  0.00    -0.298 C  
HETATM   20  H   UNL     1     -11.852   8.658  73.441  1.00  0.00     0.000 HD 
HETATM   21  O   UNL     1     -11.489   8.000  72.860  1.00  0.00    -0.411 OA 
BRANCH  19  22
HETATM   22  C   UNL     1     -11.747   9.628  71.067  1.00  0.00    -0.353 C  
HETATM   23  C   UNL     1     -12.439  12.010  71.088  1.00  0.00    -0.353 C  
HETATM   24  C   UNL     1     -12.845  10.604  71.491  1.00  0.00    -0.567 C  
HETATM   25  C   UNL     1     -11.974  12.017  69.662  1.00  0.00    -0.360 A  
HETATM   26  C   UNL     1     -11.569  10.834  69.028  1.00  0.00    -0.299 A  
HETATM   27  O   UNL     1     -11.595   9.604  69.632  1.00  0.00    -0.088 OA 
HETATM   28  C   UNL     1     -11.151  10.855  67.695  1.00  0.00    -0.376 A  
HETATM   29  C   UNL     1     -11.113  12.059  66.992  1.00  0.00    -0.351 A  
HETATM   30  C   UNL     1     -11.499  13.233  67.628  1.00  0.00    -0.321 A  
HETATM   31  F   UNL     1     -11.466  14.392  66.956  1.00  0.00    -0.306 F  
HETATM   32  C   UNL     1     -11.924  13.224  68.952  1.00  0.00    -0.336 A  
ENDBRANCH  19  22
ENDBRANCH  18  19
ENDBRANCH  16  18
ENDBRANCH  15  16
ENDBRANCH   2  15
TORSDOF 6
ENDMDL
MODEL      249
REMARK 921   NORMALIZED FREE ENERGY PREDICTED BY IDOCK:   -4.59 KCAL/MOL
REMARK 922        TOTAL FREE ENERGY PREDICTED BY IDOCK:   -7.38 KCAL/MOL
REMARK 923 INTER-LIGAND FREE ENERGY PREDICTED BY IDOCK:   -6.77 KCAL/MOL
REMARK 924 INTRA-LIGAND FREE ENERGY PREDICTED BY IDOCK:   -0.61 KCAL/MOL
REMARK 927      BINDING AFFINITY PREDICTED BY RF-SCORE:    0.00 PKD
ROOT
HETATM    1  O   UNL     1     -13.008  15.773  69.475  1.00  0.00    -0.410 OA 
HETATM    2  C   UNL     1     -11.803  15.010  69.626  1.00  0.00    -0.324 C  
HETATM    3  H   UNL     1     -12.842  16.680  69.701  1.00  0.00     0.000 HD 
ENDROOT
BRANCH   2   4
HETATM    4  C   UNL     1     -10.677  15.637  68.772  1.00  0.00    -0.250 C  
HETATM    5  C   UNL     1      -8.383  19.369  66.389  1.00  0.00    -0.331 A  
HETATM    6  C   UNL     1      -9.747  19.599  66.258  1.00  0.00    -0.511 A  
HETATM    7  C   UNL     1      -9.370  15.805  69.553  1.00  0.00    -0.238 C  
HETATM    8  C   UNL     1      -8.292  16.298  68.605  1.00  0.00    -0.220 C  
HETATM    9  F   UNL     1      -7.513  20.189  65.784  1.00  0.00    -0.298 F  
HETATM   10  C   UNL     1     -10.650  18.743  66.894  1.00  0.00    -0.472 A  
HETATM   11  O   UNL     1     -11.140  16.897  68.252  1.00  0.00    -0.349 OA 
HETATM   12  C   UNL     1      -8.807  17.446  67.790  1.00  0.00    -0.232 A  
HETATM   13  C   UNL     1     -10.183  17.666  67.647  1.00  0.00    -0.351 A  
HETATM   14  C   UNL     1      -7.905  18.302  67.143  1.00  0.00    -0.229 A  
ENDBRANCH   2   4
BRANCH   2  15
HETATM   15  C   UNL     1     -12.074  13.536  69.260  1.00  0.00    -0.288 C  
BRANCH  15  16
HETATM   16  N   UNL     1     -11.465  13.164  67.970  1.00  0.00    -0.290 NA 
HETATM   17  H   UNL     1     -11.231  13.978  67.403  1.00  0.00     0.000 HD 
BRANCH  16  18
HETATM   18  C   UNL     1     -10.297  12.299  68.218  1.00  0.00    -0.221 C  
BRANCH  18  19
HETATM   19  C   UNL     1      -9.504  12.041  66.921  1.00  0.00    -0.203 C  
HETATM   20  H   UNL     1      -8.040  12.927  65.957  1.00  0.00     0.000 HD 
HETATM   21  O   UNL     1      -8.528  13.087  66.756  1.00  0.00    -0.129 OA 
BRANCH  19  22
HETATM   22  C   UNL     1      -8.787  10.671  66.924  1.00  0.00    -0.138 C  
HETATM   23  C   UNL     1      -7.622   8.926  65.601  1.00  0.00    -0.086 C  
HETATM   24  C   UNL     1      -8.415  10.218  65.512  1.00  0.00    -0.167 C  
HETATM   25  C   UNL     1      -8.320   7.960  66.512  1.00  0.00    -0.127 A  
HETATM   26  C   UNL     1      -9.271   8.402  67.442  1.00  0.00    -0.140 A  
HETATM   27  O   UNL     1      -9.653   9.713  67.570  1.00  0.00    -0.145 OA 
HETATM   28  C   UNL     1      -9.922   7.489  68.275  1.00  0.00    -0.193 A  
HETATM   29  C   UNL     1      -9.613   6.131  68.200  1.00  0.00    -0.117 A  
HETATM   30  C   UNL     1      -8.658   5.697  67.289  1.00  0.00    -0.109 A  
HETATM   31  F   UNL     1      -8.360   4.393  67.213  1.00  0.00    -0.099 F  
HETATM   32  C   UNL     1      -8.008   6.596  66.449  1.00  0.00    -0.106 A  
ENDBRANCH  19  22
ENDBRANCH  18  19
ENDBRANCH  16  18
ENDBRANCH  15  16
ENDBRANCH   2  15
TORSDOF 6
ENDMDL
MODEL      250
REMARK 921   NORMALIZED FREE ENERGY PREDICTED BY IDOCK:   -4.58 KCAL/MOL
REMARK 922        TOTAL FREE ENERGY PREDICTED BY IDOCK:   -7.38 KCAL/MOL
REMARK 923 INTER-LIGAND FREE ENERGY PREDICTED BY IDOCK:   -6.63 KCAL/MOL
REMARK 924 INTRA-LIGAND FREE ENERGY PREDICTED BY IDOCK:   -0.74 KCAL/MOL
REMARK 927      BINDING AFFINITY PREDICTED BY RF-SCORE:    0.00 PKD
ROOT
HETATM    1  O   UNL     1      -9.762   7.916  73.722  1.00  0.00    -0.320 OA 
HETATM    2  C   UNL     1      -9.951   7.768  72.307  1.00  0.00    -0.203 C  
HETATM    3  H   UNL     1     -10.284   7.270  74.182  1.00  0.00     0.000 HD 
ENDROOT
BRANCH   2   4
HETATM    4  C   UNL     1      -9.613   6.320  71.884  1.00  0.00    -0.152 C  
HETATM    5  C   UNL     1      -7.854   2.832  68.784  1.00  0.00    -0.053 A  
HETATM    6  C   UNL     1      -8.424   3.815  67.986  1.00  0.00    -0.107 A  
HETATM    7  C   UNL     1      -8.405   5.755  72.637  1.00  0.00    -0.116 C  
HETATM    8  C   UNL     1      -8.229   4.295  72.258  1.00  0.00    -0.103 C  
HETATM    9  F   UNL     1      -7.353   1.726  68.216  1.00  0.00    -0.042 F  
HETATM   10  C   UNL     1      -8.942   4.968  68.582  1.00  0.00    -0.127 A  
HETATM   11  O   UNL     1      -9.400   6.294  70.461  1.00  0.00    -0.160 OA 
HETATM   12  C   UNL     1      -8.300   4.136  70.769  1.00  0.00    -0.086 A  
HETATM   13  C   UNL     1      -8.890   5.123  69.968  1.00  0.00    -0.111 A  
HETATM   14  C   UNL     1      -7.790   2.978  70.166  1.00  0.00    -0.047 A  
ENDBRANCH   2   4
BRANCH   2  15
HETATM   15  C   UNL     1      -9.104   8.818  71.559  1.00  0.00    -0.252 C  
BRANCH  15  16
HETATM   16  N   UNL     1      -9.937   9.858  70.930  1.00  0.00    -0.289 NA 
HETATM   17  H   UNL     1      -9.395  10.473  70.323  1.00  0.00     0.000 HD 
BRANCH  16  18
HETATM   18  C   UNL     1     -11.058   9.217  70.220  1.00  0.00    -0.251 C  
BRANCH  18  19
HETATM   19  C   UNL     1     -12.370  10.004  70.414  1.00  0.00    -0.135 C  
HETATM   20  H   UNL     1     -13.339  10.786  71.934  1.00  0.00     0.000 HD 
HETATM   21  O   UNL     1     -12.531  10.301  71.814  1.00  0.00    -0.397 OA 
BRANCH  19  22
HETATM   22  C   UNL     1     -12.398  11.324  69.607  1.00  0.00    -0.194 C  
HETATM   23  C   UNL     1     -11.664  12.537  67.573  1.00  0.00    -0.439 C  
HETATM   24  C   UNL     1     -11.502  11.256  68.370  1.00  0.00    -0.377 C  
HETATM   25  C   UNL     1     -11.552  13.723  68.485  1.00  0.00    -0.373 A  
HETATM   26  C   UNL     1     -11.736  13.591  69.868  1.00  0.00    -0.271 A  
HETATM   27  O   UNL     1     -11.995  12.395  70.487  1.00  0.00    -0.330 OA 
HETATM   28  C   UNL     1     -11.615  14.702  70.706  1.00  0.00    -0.289 A  
HETATM   29  C   UNL     1     -11.331  15.957  70.167  1.00  0.00    -0.369 A  
HETATM   30  C   UNL     1     -11.166  16.088  68.794  1.00  0.00    -0.360 A  
HETATM   31  F   UNL     1     -10.891  17.291  68.272  1.00  0.00    -0.351 F  
HETATM   32  C   UNL     1     -11.276  14.989  67.950  1.00  0.00    -0.330 A  
ENDBRANCH  19  22
ENDBRANCH  18  19
ENDBRANCH  16  18
ENDBRANCH  15  16
ENDBRANCH   2  15
TORSDOF 6
ENDMDL
MODEL      251
REMARK 921   NORMALIZED FREE ENERGY PREDICTED BY IDOCK:   -4.57 KCAL/MOL
REMARK 922        TOTAL FREE ENERGY PREDICTED BY IDOCK:   -7.37 KCAL/MOL
REMARK 923 INTER-LIGAND FREE ENERGY PREDICTED BY IDOCK:   -7.18 KCAL/MOL
REMARK 924 INTRA-LIGAND FREE ENERGY PREDICTED BY IDOCK:   -0.19 KCAL/MOL
REMARK 927      BINDING AFFINITY PREDICTED BY RF-SCORE:    0.00 PKD
ROOT
HETATM    1  O   UNL     1      -8.473   9.822  71.131  1.00  0.00    -0.305 OA 
HETATM    2  C   UNL     1      -9.197   9.662  69.904  1.00  0.00    -0.229 C  
HETATM    3  H   UNL     1      -8.812   9.220  71.783  1.00  0.00     0.000 HD 
ENDROOT
BRANCH   2   4
HETATM    4  C   UNL     1      -9.124   8.187  69.444  1.00  0.00    -0.148 C  
HETATM    5  C   UNL     1      -9.515   3.255  70.064  1.00  0.00    -0.161 A  
HETATM    6  C   UNL     1      -9.063   3.767  71.272  1.00  0.00    -0.181 A  
HETATM    7  C   UNL     1     -10.277   7.804  68.511  1.00  0.00    -0.227 C  
HETATM    8  C   UNL     1     -10.052   6.390  68.006  1.00  0.00    -0.168 C  
HETATM    9  F   UNL     1      -9.653   1.929  69.917  1.00  0.00    -0.178 F  
HETATM   10  C   UNL     1      -8.925   5.150  71.422  1.00  0.00    -0.156 A  
HETATM   11  O   UNL     1      -9.092   7.342  70.608  1.00  0.00    -0.155 OA 
HETATM   12  C   UNL     1      -9.706   5.483  69.150  1.00  0.00    -0.208 A  
HETATM   13  C   UNL     1      -9.235   6.003  70.363  1.00  0.00    -0.156 A  
HETATM   14  C   UNL     1      -9.834   4.095  69.002  1.00  0.00    -0.106 A  
ENDBRANCH   2   4
BRANCH   2  15
HETATM   15  C   UNL     1      -8.647  10.640  68.846  1.00  0.00    -0.158 C  
BRANCH  15  16
HETATM   16  N   UNL     1      -9.397  11.908  68.818  1.00  0.00    -0.395 NA 
HETATM   17  H   UNL     1      -8.821  12.704  69.092  1.00  0.00     0.000 HD 
BRANCH  16  18
HETATM   18  C   UNL     1     -10.000  12.086  67.485  1.00  0.00    -0.192 C  
BRANCH  18  19
HETATM   19  C   UNL     1     -10.829  13.384  67.412  1.00  0.00    -0.268 C  
HETATM   20  H   UNL     1     -12.305  14.180  68.435  1.00  0.00     0.000 HD 
HETATM   21  O   UNL     1     -11.794  13.380  68.481  1.00  0.00    -0.334 OA 
BRANCH  19  22
HETATM   22  C   UNL     1      -9.956  14.655  67.519  1.00  0.00    -0.223 C  
HETATM   23  C   UNL     1      -8.752  16.237  69.002  1.00  0.00    -0.246 C  
HETATM   24  C   UNL     1      -9.701  15.052  68.973  1.00  0.00    -0.229 C  
HETATM   25  C   UNL     1      -9.215  17.286  68.036  1.00  0.00    -0.256 A  
HETATM   26  C   UNL     1     -10.097  16.969  66.993  1.00  0.00    -0.295 A  
HETATM   27  O   UNL     1     -10.618  15.716  66.796  1.00  0.00    -0.301 OA 
HETATM   28  C   UNL     1     -10.530  17.959  66.108  1.00  0.00    -0.321 A  
HETATM   29  C   UNL     1     -10.070  19.269  66.245  1.00  0.00    -0.519 A  
HETATM   30  C   UNL     1      -9.183  19.577  67.269  1.00  0.00    -0.315 A  
HETATM   31  F   UNL     1      -8.740  20.835  67.405  1.00  0.00    -0.415 F  
HETATM   32  C   UNL     1      -8.750  18.602  68.161  1.00  0.00    -0.336 A  
ENDBRANCH  19  22
ENDBRANCH  18  19
ENDBRANCH  16  18
ENDBRANCH  15  16
ENDBRANCH   2  15
TORSDOF 6
ENDMDL
MODEL      252
REMARK 921   NORMALIZED FREE ENERGY PREDICTED BY IDOCK:   -4.56 KCAL/MOL
REMARK 922        TOTAL FREE ENERGY PREDICTED BY IDOCK:   -7.34 KCAL/MOL
REMARK 923 INTER-LIGAND FREE ENERGY PREDICTED BY IDOCK:   -7.40 KCAL/MOL
REMARK 924 INTRA-LIGAND FREE ENERGY PREDICTED BY IDOCK:    0.06 KCAL/MOL
REMARK 927      BINDING AFFINITY PREDICTED BY RF-SCORE:    0.00 PKD
ROOT
HETATM    1  O   UNL     1      -9.126  19.812  66.054  1.00  0.00    -0.367 OA 
HETATM    2  C   UNL     1      -8.934  19.620  67.463  1.00  0.00    -0.317 C  
HETATM    3  H   UNL     1      -8.307  20.080  65.654  1.00  0.00     0.000 HD 
ENDROOT
BRANCH   2   4
HETATM    4  C   UNL     1      -7.795  18.602  67.701  1.00  0.00    -0.235 C  
HETATM    5  C   UNL     1      -5.929  14.133  68.889  1.00  0.00    -0.087 A  
HETATM    6  C   UNL     1      -7.060  14.308  69.676  1.00  0.00    -0.007 A  
HETATM    7  C   UNL     1      -7.144  18.133  66.396  1.00  0.00    -0.274 C  
HETATM    8  C   UNL     1      -5.957  17.246  66.730  1.00  0.00    -0.232 C  
HETATM    9  F   UNL     1      -5.179  13.033  69.044  1.00  0.00    -0.067 F  
HETATM   10  C   UNL     1      -7.841  15.454  69.508  1.00  0.00    -0.204 A  
HETATM   11  O   UNL     1      -8.319  17.491  68.451  1.00  0.00    -0.261 OA 
HETATM   12  C   UNL     1      -6.349  16.226  67.759  1.00  0.00    -0.163 A  
HETATM   13  C   UNL     1      -7.481  16.414  68.562  1.00  0.00    -0.181 A  
HETATM   14  C   UNL     1      -5.564  15.079  67.937  1.00  0.00    -0.133 A  
ENDBRANCH   2   4
BRANCH   2  15
HETATM   15  C   UNL     1     -10.264  19.184  68.111  1.00  0.00    -0.403 C  
BRANCH  15  16
HETATM   16  N   UNL     1     -11.175  18.553  67.140  1.00  0.00     0.139 NA 
HETATM   17  H   UNL     1     -11.624  19.236  66.530  1.00  0.00     0.000 HD 
BRANCH  16  18
HETATM   18  C   UNL     1     -10.439  17.525  66.382  1.00  0.00    -0.277 C  
BRANCH  18  19
HETATM   19  C   UNL     1     -11.402  16.577  65.640  1.00  0.00     0.437 C  
HETATM   20  H   UNL     1     -11.898  16.244  63.769  1.00  0.00     0.000 HD 
HETATM   21  O   UNL     1     -11.304  16.828  64.226  1.00  0.00    -1.170 OA 
BRANCH  19  22
HETATM   22  C   UNL     1     -11.099  15.085  65.914  1.00  0.00    -0.334 C  
HETATM   23  C   UNL     1      -9.572  13.426  66.948  1.00  0.00    -0.257 C  
HETATM   24  C   UNL     1      -9.753  14.896  66.615  1.00  0.00    -0.276 C  
HETATM   25  C   UNL     1      -9.888  12.587  65.745  1.00  0.00    -0.244 A  
HETATM   26  C   UNL     1     -10.653  13.098  64.688  1.00  0.00    -0.392 A  
HETATM   27  O   UNL     1     -11.136  14.381  64.654  1.00  0.00    -0.381 OA 
HETATM   28  C   UNL     1     -10.928  12.309  63.568  1.00  0.00    -0.521 A  
HETATM   29  C   UNL     1     -10.458  10.997  63.506  1.00  0.00    -0.365 A  
HETATM   30  C   UNL     1      -9.714  10.487  64.562  1.00  0.00    -0.314 A  
HETATM   31  F   UNL     1      -9.260   9.228  64.504  1.00  0.00    -0.263 F  
HETATM   32  C   UNL     1      -9.428  11.265  65.679  1.00  0.00    -0.254 A  
ENDBRANCH  19  22
ENDBRANCH  18  19
ENDBRANCH  16  18
ENDBRANCH  15  16
ENDBRANCH   2  15
TORSDOF 6
ENDMDL
MODEL      253
REMARK 921   NORMALIZED FREE ENERGY PREDICTED BY IDOCK:   -4.55 KCAL/MOL
REMARK 922        TOTAL FREE ENERGY PREDICTED BY IDOCK:   -7.33 KCAL/MOL
REMARK 923 INTER-LIGAND FREE ENERGY PREDICTED BY IDOCK:   -7.06 KCAL/MOL
REMARK 924 INTRA-LIGAND FREE ENERGY PREDICTED BY IDOCK:   -0.27 KCAL/MOL
REMARK 927      BINDING AFFINITY PREDICTED BY RF-SCORE:    0.00 PKD
ROOT
HETATM    1  O   UNL     1     -12.189  11.525  67.996  1.00  0.00    -0.582 OA 
HETATM    2  C   UNL     1     -11.414  12.295  67.067  1.00  0.00    -0.354 C  
HETATM    3  H   UNL     1     -11.693  11.397  68.796  1.00  0.00     0.000 HD 
ENDROOT
BRANCH   2   4
HETATM    4  C   UNL     1     -10.990  13.630  67.722  1.00  0.00    -0.259 C  
HETATM    5  C   UNL     1     -10.280  18.564  67.832  1.00  0.00    -0.384 A  
HETATM    6  C   UNL     1     -10.007  18.158  66.532  1.00  0.00    -0.374 A  
HETATM    7  C   UNL     1     -11.985  14.107  68.784  1.00  0.00    -0.367 C  
HETATM    8  C   UNL     1     -11.424  15.343  69.464  1.00  0.00    -0.330 C  
HETATM    9  F   UNL     1     -10.107  19.849  68.172  1.00  0.00    -0.462 F  
HETATM   10  C   UNL     1     -10.192  16.818  66.180  1.00  0.00    -0.363 A  
HETATM   11  O   UNL     1     -10.816  14.616  66.689  1.00  0.00    -0.300 OA 
HETATM   12  C   UNL     1     -10.931  16.318  68.435  1.00  0.00    -0.351 A  
HETATM   13  C   UNL     1     -10.642  15.901  67.130  1.00  0.00    -0.316 A  
HETATM   14  C   UNL     1     -10.735  17.661  68.786  1.00  0.00    -0.070 A  
ENDBRANCH   2   4
BRANCH   2  15
HETATM   15  C   UNL     1     -12.221  12.503  65.768  1.00  0.00    -0.292 C  
BRANCH  15  16
HETATM   16  N   UNL     1     -12.027  11.399  64.812  1.00  0.00     0.154 NA 
HETATM   17  H   UNL     1     -12.776  10.708  64.860  1.00  0.00     0.000 HD 
BRANCH  16  18
HETATM   18  C   UNL     1     -11.864  11.954  63.456  1.00  0.00    -0.460 C  
BRANCH  18  19
HETATM   19  C   UNL     1     -10.414  12.413  63.207  1.00  0.00    -0.158 C  
HETATM   20  H   UNL     1      -9.202  13.754  63.977  1.00  0.00     0.000 HD 
HETATM   21  O   UNL     1     -10.096  13.472  64.130  1.00  0.00    -0.300 OA 
BRANCH  19  22
HETATM   22  C   UNL     1      -9.389  11.267  63.375  1.00  0.00    -0.241 C  
HETATM   23  C   UNL     1      -8.562   9.076  62.558  1.00  0.00    -0.210 C  
HETATM   24  C   UNL     1      -9.664  10.110  62.414  1.00  0.00    -0.005 C  
HETATM   25  C   UNL     1      -8.332   8.774  64.009  1.00  0.00    -0.146 A  
HETATM   26  C   UNL     1      -8.759   9.659  65.008  1.00  0.00    -0.175 A  
HETATM   27  O   UNL     1      -9.431  10.826  64.750  1.00  0.00    -0.213 OA 
HETATM   28  C   UNL     1      -8.549   9.358  66.356  1.00  0.00    -0.144 A  
HETATM   29  C   UNL     1      -7.893   8.180  66.715  1.00  0.00    -0.095 A  
HETATM   30  C   UNL     1      -7.456   7.312  65.722  1.00  0.00    -0.084 A  
HETATM   31  F   UNL     1      -6.827   6.180  66.063  1.00  0.00    -0.051 F  
HETATM   32  C   UNL     1      -7.665   7.598  64.378  1.00  0.00    -0.127 A  
ENDBRANCH  19  22
ENDBRANCH  18  19
ENDBRANCH  16  18
ENDBRANCH  15  16
ENDBRANCH   2  15
TORSDOF 6
ENDMDL
MODEL      254
REMARK 921   NORMALIZED FREE ENERGY PREDICTED BY IDOCK:   -4.54 KCAL/MOL
REMARK 922        TOTAL FREE ENERGY PREDICTED BY IDOCK:   -7.31 KCAL/MOL
REMARK 923 INTER-LIGAND FREE ENERGY PREDICTED BY IDOCK:   -6.82 KCAL/MOL
REMARK 924 INTRA-LIGAND FREE ENERGY PREDICTED BY IDOCK:   -0.50 KCAL/MOL
REMARK 927      BINDING AFFINITY PREDICTED BY RF-SCORE:    0.00 PKD
ROOT
HETATM    1  O   UNL     1     -11.055  12.842  68.493  1.00  0.00    -0.238 OA 
HETATM    2  C   UNL     1      -9.756  13.344  68.150  1.00  0.00    -0.226 C  
HETATM    3  H   UNL     1     -11.233  13.018  69.409  1.00  0.00     0.000 HD 
ENDROOT
BRANCH   2   4
HETATM    4  C   UNL     1      -9.672  14.849  68.493  1.00  0.00    -0.215 C  
HETATM    5  C   UNL     1      -9.677  19.718  67.415  1.00  0.00    -0.373 A  
HETATM    6  C   UNL     1      -9.070  19.079  66.341  1.00  0.00    -0.339 A  
HETATM    7  C   UNL     1     -10.933  15.365  69.192  1.00  0.00    -0.252 C  
HETATM    8  C   UNL     1     -10.709  16.808  69.609  1.00  0.00    -0.229 C  
HETATM    9  F   UNL     1      -9.759  21.056  67.428  1.00  0.00    -0.607 F  
HETATM   10  C   UNL     1      -8.990  17.684  66.330  1.00  0.00    -0.255 A  
HETATM   11  O   UNL     1      -9.408  15.584  67.283  1.00  0.00    -0.207 OA 
HETATM   12  C   UNL     1     -10.136  17.592  68.466  1.00  0.00    -0.363 A  
HETATM   13  C   UNL     1      -9.511  16.945  67.392  1.00  0.00    -0.238 A  
HETATM   14  C   UNL     1     -10.206  18.992  68.476  1.00  0.00    -0.422 A  
ENDBRANCH   2   4
BRANCH   2  15
HETATM   15  C   UNL     1      -9.467  13.058  66.662  1.00  0.00    -0.256 C  
BRANCH  15  16
HETATM   16  N   UNL     1      -8.590  11.887  66.481  1.00  0.00    -0.305 NA 
HETATM   17  H   UNL     1      -7.873  11.826  67.204  1.00  0.00     0.000 HD 
BRANCH  16  18
HETATM   18  C   UNL     1      -9.417  10.669  66.408  1.00  0.00    -0.171 C  
BRANCH  18  19
HETATM   19  C   UNL     1      -8.716   9.563  65.593  1.00  0.00    -0.149 C  
HETATM   20  H   UNL     1      -6.867   8.958  65.328  1.00  0.00     0.000 HD 
HETATM   21  O   UNL     1      -7.298   9.639  65.830  1.00  0.00    -0.095 OA 
BRANCH  19  22
HETATM   22  C   UNL     1      -9.218   8.146  65.958  1.00  0.00    -0.147 C  
HETATM   23  C   UNL     1     -10.916   6.778  67.140  1.00  0.00    -0.458 C  
HETATM   24  C   UNL     1     -10.411   8.192  66.913  1.00  0.00    -0.379 C  
HETATM   25  C   UNL     1      -9.766   5.870  67.459  1.00  0.00    -0.123 A  
HETATM   26  C   UNL     1      -8.451   6.226  67.130  1.00  0.00    -0.108 A  
HETATM   27  O   UNL     1      -8.115   7.415  66.535  1.00  0.00    -0.110 OA 
HETATM   28  C   UNL     1      -7.388   5.376  67.446  1.00  0.00    -0.083 A  
HETATM   29  C   UNL     1      -7.633   4.155  68.074  1.00  0.00    -0.068 A  
HETATM   30  C   UNL     1      -8.939   3.797  68.384  1.00  0.00    -0.125 A  
HETATM   31  F   UNL     1      -9.178   2.625  68.989  1.00  0.00    -0.152 F  
HETATM   32  C   UNL     1     -10.005   4.637  68.081  1.00  0.00    -0.127 A  
ENDBRANCH  19  22
ENDBRANCH  18  19
ENDBRANCH  16  18
ENDBRANCH  15  16
ENDBRANCH   2  15
TORSDOF 6
ENDMDL
MODEL      255
REMARK 921   NORMALIZED FREE ENERGY PREDICTED BY IDOCK:   -4.53 KCAL/MOL
REMARK 922        TOTAL FREE ENERGY PREDICTED BY IDOCK:   -7.31 KCAL/MOL
REMARK 923 INTER-LIGAND FREE ENERGY PREDICTED BY IDOCK:   -6.51 KCAL/MOL
REMARK 924 INTRA-LIGAND FREE ENERGY PREDICTED BY IDOCK:   -0.80 KCAL/MOL
REMARK 927      BINDING AFFINITY PREDICTED BY RF-SCORE:    0.00 PKD
ROOT
HETATM    1  O   UNL     1      -8.602  11.439  67.225  1.00  0.00    -0.139 OA 
HETATM    2  C   UNL     1      -9.578  10.492  66.766  1.00  0.00    -0.170 C  
HETATM    3  H   UNL     1      -8.360  11.238  68.121  1.00  0.00     0.000 HD 
ENDROOT
BRANCH   2   4
HETATM    4  C   UNL     1      -9.026   9.057  66.924  1.00  0.00    -0.123 C  
HETATM    5  C   UNL     1      -9.160   4.100  66.395  1.00  0.00    -0.135 A  
HETATM    6  C   UNL     1     -10.472   4.509  66.596  1.00  0.00    -0.009 A  
HETATM    7  C   UNL     1      -7.853   8.770  65.982  1.00  0.00    -0.105 C  
HETATM    8  C   UNL     1      -7.293   7.395  66.299  1.00  0.00    -0.082 C  
HETATM    9  F   UNL     1      -8.884   2.793  66.285  1.00  0.00    -0.118 F  
HETATM   10  C   UNL     1     -10.756   5.872  66.706  1.00  0.00    -0.371 A  
HETATM   11  O   UNL     1     -10.102   8.124  66.717  1.00  0.00    -0.254 OA 
HETATM   12  C   UNL     1      -8.407   6.395  66.403  1.00  0.00    -0.119 A  
HETATM   13  C   UNL     1      -9.727   6.810  66.621  1.00  0.00    -0.158 A  
HETATM   14  C   UNL     1      -8.127   5.026  66.301  1.00  0.00    -0.108 A  
ENDBRANCH   2   4
BRANCH   2  15
HETATM   15  C   UNL     1      -9.971  10.819  65.310  1.00  0.00    -0.282 C  
BRANCH  15  16
HETATM   16  N   UNL     1      -9.971  12.269  65.047  1.00  0.00    -0.380 NA 
HETATM   17  H   UNL     1      -9.108  12.582  64.601  1.00  0.00     0.000 HD 
BRANCH  16  18
HETATM   18  C   UNL     1     -11.167  12.618  64.259  1.00  0.00    -0.362 C  
BRANCH  18  19
HETATM   19  C   UNL     1     -12.205  13.370  65.117  1.00  0.00    -0.434 C  
HETATM   20  H   UNL     1     -13.348  12.938  66.655  1.00  0.00     0.000 HD 
HETATM   21  O   UNL     1     -12.709  12.475  66.126  1.00  0.00    -0.222 OA 
BRANCH  19  22
HETATM   22  C   UNL     1     -11.616  14.627  65.799  1.00  0.00    -0.328 C  
HETATM   23  C   UNL     1     -10.435  16.790  65.517  1.00  0.00    -0.254 C  
HETATM   24  C   UNL     1     -10.889  15.530  64.802  1.00  0.00    -0.385 C  
HETATM   25  C   UNL     1      -9.750  16.429  66.801  1.00  0.00    -0.263 A  
HETATM   26  C   UNL     1      -9.944  15.175  67.397  1.00  0.00    -0.226 A  
HETATM   27  O   UNL     1     -10.730  14.192  66.853  1.00  0.00    -0.282 OA 
HETATM   28  C   UNL     1      -9.288  14.848  68.586  1.00  0.00    -0.194 A  
HETATM   29  C   UNL     1      -8.450  15.779  69.201  1.00  0.00    -0.251 A  
HETATM   30  C   UNL     1      -8.273  17.027  68.617  1.00  0.00    -0.261 A  
HETATM   31  F   UNL     1      -7.467  17.923  69.204  1.00  0.00    -0.260 F  
HETATM   32  C   UNL     1      -8.914  17.362  67.430  1.00  0.00    -0.232 A  
ENDBRANCH  19  22
ENDBRANCH  18  19
ENDBRANCH  16  18
ENDBRANCH  15  16
ENDBRANCH   2  15
TORSDOF 6
ENDMDL
MODEL      256
REMARK 921   NORMALIZED FREE ENERGY PREDICTED BY IDOCK:   -4.53 KCAL/MOL
REMARK 922        TOTAL FREE ENERGY PREDICTED BY IDOCK:   -7.30 KCAL/MOL
REMARK 923 INTER-LIGAND FREE ENERGY PREDICTED BY IDOCK:   -6.10 KCAL/MOL
REMARK 924 INTRA-LIGAND FREE ENERGY PREDICTED BY IDOCK:   -1.20 KCAL/MOL
REMARK 927      BINDING AFFINITY PREDICTED BY RF-SCORE:    0.00 PKD
ROOT
HETATM    1  O   UNL     1      -8.724   4.411  73.043  1.00  0.00    -0.104 OA 
HETATM    2  C   UNL     1      -9.668   5.178  72.282  1.00  0.00    -0.163 C  
HETATM    3  H   UNL     1      -8.256   3.819  72.467  1.00  0.00     0.000 HD 
ENDROOT
BRANCH   2   4
HETATM    4  C   UNL     1      -8.937   5.917  71.137  1.00  0.00    -0.139 C  
HETATM    5  C   UNL     1      -6.023   9.478  69.216  1.00  0.00    -0.034 A  
HETATM    6  C   UNL     1      -6.716  10.063  70.267  1.00  0.00    -0.137 A  
HETATM    7  C   UNL     1      -7.726   5.138  70.613  1.00  0.00    -0.079 C  
HETATM    8  C   UNL     1      -7.155   5.868  69.410  1.00  0.00    -0.065 C  
HETATM    9  F   UNL     1      -5.203  10.228  68.466  1.00  0.00    -0.036 F  
HETATM   10  C   UNL     1      -7.567   9.277  71.048  1.00  0.00    -0.091 A  
HETATM   11  O   UNL     1      -8.556   7.225  71.600  1.00  0.00    -0.117 OA 
HETATM   12  C   UNL     1      -7.007   7.329  69.716  1.00  0.00    -0.057 A  
HETATM   13  C   UNL     1      -7.721   7.920  70.768  1.00  0.00    -0.083 A  
HETATM   14  C   UNL     1      -6.161   8.124  68.930  1.00  0.00    -0.040 A  
ENDBRANCH   2   4
BRANCH   2  15
HETATM   15  C   UNL     1     -10.428   6.141  73.218  1.00  0.00    -0.243 C  
BRANCH  15  16
HETATM   16  N   UNL     1     -11.769   6.471  72.704  1.00  0.00    -0.486 NA 
HETATM   17  H   UNL     1     -12.512   6.063  73.272  1.00  0.00     0.000 HD 
BRANCH  16  18
HETATM   18  C   UNL     1     -11.895   7.935  72.585  1.00  0.00    -0.297 C  
BRANCH  18  19
HETATM   19  C   UNL     1     -13.040   8.324  71.629  1.00  0.00    -0.334 C  
HETATM   20  H   UNL     1     -14.932   8.819  71.814  1.00  0.00     0.000 HD 
HETATM   21  O   UNL     1     -14.227   8.579  72.403  1.00  0.00    -0.398 OA 
BRANCH  19  22
HETATM   22  C   UNL     1     -12.708   9.574  70.780  1.00  0.00    -0.068 C  
HETATM   23  C   UNL     1     -10.981  10.852  69.542  1.00  0.00    -0.306 C  
HETATM   24  C   UNL     1     -11.216   9.669  70.464  1.00  0.00    -0.359 C  
HETATM   25  C   UNL     1     -11.688  12.063  70.075  1.00  0.00    -0.346 A  
HETATM   26  C   UNL     1     -12.735  11.940  70.998  1.00  0.00    -0.258 A  
HETATM   27  O   UNL     1     -13.166  10.739  71.500  1.00  0.00    -0.382 OA 
HETATM   28  C   UNL     1     -13.375  13.078  71.496  1.00  0.00    -0.284 A  
HETATM   29  C   UNL     1     -12.988  14.345  71.060  1.00  0.00    -0.416 A  
HETATM   30  C   UNL     1     -11.961  14.463  70.132  1.00  0.00    -0.322 A  
HETATM   31  F   UNL     1     -11.586  15.679  69.711  1.00  0.00    -0.263 F  
HETATM   32  C   UNL     1     -11.312  13.339  69.634  1.00  0.00    -0.191 A  
ENDBRANCH  19  22
ENDBRANCH  18  19
ENDBRANCH  16  18
ENDBRANCH  15  16
ENDBRANCH   2  15
TORSDOF 6
ENDMDL
MODEL      257
REMARK 921   NORMALIZED FREE ENERGY PREDICTED BY IDOCK:   -4.52 KCAL/MOL
REMARK 922        TOTAL FREE ENERGY PREDICTED BY IDOCK:   -7.30 KCAL/MOL
REMARK 923 INTER-LIGAND FREE ENERGY PREDICTED BY IDOCK:   -6.92 KCAL/MOL
REMARK 924 INTRA-LIGAND FREE ENERGY PREDICTED BY IDOCK:   -0.38 KCAL/MOL
REMARK 927      BINDING AFFINITY PREDICTED BY RF-SCORE:    0.00 PKD
ROOT
HETATM    1  O   UNL     1      -7.333   9.230  66.881  1.00  0.00    -0.089 OA 
HETATM    2  C   UNL     1      -8.226   9.810  65.919  1.00  0.00    -0.117 C  
HETATM    3  H   UNL     1      -6.508   9.701  66.874  1.00  0.00     0.000 HD 
ENDROOT
BRANCH   2   4
HETATM    4  C   UNL     1      -8.400  11.318  66.211  1.00  0.00    -0.142 C  
HETATM    5  C   UNL     1     -10.965  15.374  67.567  1.00  0.00    -0.315 A  
HETATM    6  C   UNL     1     -11.856  14.555  66.886  1.00  0.00    -0.399 A  
HETATM    7  C   UNL     1      -7.719  11.747  67.515  1.00  0.00    -0.143 C  
HETATM    8  C   UNL     1      -7.825  13.256  67.651  1.00  0.00    -0.168 C  
HETATM    9  F   UNL     1     -11.368  16.577  67.997  1.00  0.00    -0.336 F  
HETATM   10  C   UNL     1     -11.433  13.300  66.443  1.00  0.00    -0.364 A  
HETATM   11  O   UNL     1      -9.805  11.625  66.230  1.00  0.00    -0.207 OA 
HETATM   12  C   UNL     1      -9.232  13.700  67.381  1.00  0.00    -0.222 A  
HETATM   13  C   UNL     1     -10.124  12.879  66.679  1.00  0.00    -0.245 A  
HETATM   14  C   UNL     1      -9.660  14.963  67.816  1.00  0.00    -0.208 A  
ENDBRANCH   2   4
BRANCH   2  15
HETATM   15  C   UNL     1      -9.566   9.046  65.930  1.00  0.00    -0.247 C  
BRANCH  15  16
HETATM   16  N   UNL     1      -9.390   7.621  66.262  1.00  0.00    -0.304 NA 
HETATM   17  H   UNL     1      -8.461   7.422  66.634  1.00  0.00     0.000 HD 
BRANCH  16  18
HETATM   18  C   UNL     1     -10.463   7.202  67.182  1.00  0.00    -0.319 C  
BRANCH  18  19
HETATM   19  C   UNL     1     -10.401   7.983  68.510  1.00  0.00    -0.199 C  
HETATM   20  H   UNL     1     -11.106   9.689  69.182  1.00  0.00     0.000 HD 
HETATM   21  O   UNL     1     -11.144   9.208  68.364  1.00  0.00    -0.012 OA 
BRANCH  19  22
HETATM   22  C   UNL     1     -10.974   7.179  69.700  1.00  0.00    -0.212 C  
HETATM   23  C   UNL     1     -11.755   7.214  72.055  1.00  0.00    -0.326 C  
HETATM   24  C   UNL     1     -11.087   8.032  70.964  1.00  0.00    -0.275 C  
HETATM   25  C   UNL     1     -11.109   5.863  72.147  1.00  0.00    -0.333 A  
HETATM   26  C   UNL     1     -10.354   5.349  71.084  1.00  0.00    -0.235 A  
HETATM   27  O   UNL     1     -10.124   6.032  69.918  1.00  0.00    -0.167 OA 
HETATM   28  C   UNL     1      -9.747   4.095  71.190  1.00  0.00    -0.258 A  
HETATM   29  C   UNL     1      -9.908   3.337  72.350  1.00  0.00    -0.226 A  
HETATM   30  C   UNL     1     -10.671   3.841  73.395  1.00  0.00    -0.207 A  
HETATM   31  F   UNL     1     -10.826   3.117  74.512  1.00  0.00    -0.229 F  
HETATM   32  C   UNL     1     -11.273   5.091  73.305  1.00  0.00    -0.411 A  
ENDBRANCH  19  22
ENDBRANCH  18  19
ENDBRANCH  16  18
ENDBRANCH  15  16
ENDBRANCH   2  15
TORSDOF 6
ENDMDL
MODEL      258
REMARK 921   NORMALIZED FREE ENERGY PREDICTED BY IDOCK:   -4.50 KCAL/MOL
REMARK 922        TOTAL FREE ENERGY PREDICTED BY IDOCK:   -7.27 KCAL/MOL
REMARK 923 INTER-LIGAND FREE ENERGY PREDICTED BY IDOCK:   -6.14 KCAL/MOL
REMARK 924 INTRA-LIGAND FREE ENERGY PREDICTED BY IDOCK:   -1.13 KCAL/MOL
REMARK 927      BINDING AFFINITY PREDICTED BY RF-SCORE:    0.00 PKD
ROOT
HETATM    1  O   UNL     1     -11.633   6.484  67.886  1.00  0.00    -0.623 OA 
HETATM    2  C   UNL     1     -10.666   7.517  68.121  1.00  0.00    -0.085 C  
HETATM    3  H   UNL     1     -12.001   6.583  67.015  1.00  0.00     0.000 HD 
ENDROOT
BRANCH   2   4
HETATM    4  C   UNL     1      -9.587   7.483  67.013  1.00  0.00    -0.170 C  
HETATM    5  C   UNL     1      -6.858   9.439  63.326  1.00  0.00    -0.096 A  
HETATM    6  C   UNL     1      -8.114  10.027  63.240  1.00  0.00    -0.159 A  
HETATM    7  C   UNL     1      -8.164   7.465  67.579  1.00  0.00    -0.113 C  
HETATM    8  C   UNL     1      -7.182   7.296  66.434  1.00  0.00    -0.079 C  
HETATM    9  F   UNL     1      -5.926   9.732  62.409  1.00  0.00    -0.092 F  
HETATM   10  C   UNL     1      -9.081   9.722  64.201  1.00  0.00    -0.289 A  
HETATM   11  O   UNL     1      -9.787   8.608  66.139  1.00  0.00    -0.262 OA 
HETATM   12  C   UNL     1      -7.514   8.250  65.324  1.00  0.00    -0.083 A  
HETATM   13  C   UNL     1      -8.786   8.829  65.231  1.00  0.00    -0.162 A  
HETATM   14  C   UNL     1      -6.550   8.553  64.353  1.00  0.00    -0.067 A  
ENDBRANCH   2   4
BRANCH   2  15
HETATM   15  C   UNL     1     -10.069   7.355  69.534  1.00  0.00    -0.187 C  
BRANCH  15  16
HETATM   16  N   UNL     1     -10.569   8.379  70.468  1.00  0.00    -0.211 NA 
HETATM   17  H   UNL     1      -9.834   8.743  71.074  1.00  0.00     0.000 HD 
BRANCH  16  18
HETATM   18  C   UNL     1     -11.243   9.445  69.704  1.00  0.00    -0.074 C  
BRANCH  18  19
HETATM   19  C   UNL     1     -10.447  10.765  69.760  1.00  0.00    -0.083 C  
HETATM   20  H   UNL     1      -8.576  11.301  69.494  1.00  0.00     0.000 HD 
HETATM   21  O   UNL     1      -9.066  10.488  69.460  1.00  0.00    -0.152 OA 
BRANCH  19  22
HETATM   22  C   UNL     1     -10.981  11.825  68.768  1.00  0.00    -0.234 C  
HETATM   23  C   UNL     1     -11.750  12.319  66.462  1.00  0.00    -0.420 C  
HETATM   24  C   UNL     1     -11.122  11.263  67.353  1.00  0.00    -0.358 C  
HETATM   25  C   UNL     1     -11.049  13.631  66.655  1.00  0.00    -0.312 A  
HETATM   26  C   UNL     1     -10.280  13.879  67.800  1.00  0.00    -0.237 A  
HETATM   27  O   UNL     1     -10.083  12.956  68.795  1.00  0.00    -0.168 OA 
HETATM   28  C   UNL     1      -9.622  15.101  67.959  1.00  0.00    -0.204 A  
HETATM   29  C   UNL     1      -9.746  16.093  66.986  1.00  0.00    -0.236 A  
HETATM   30  C   UNL     1     -10.523  15.852  65.860  1.00  0.00    -0.359 A  
HETATM   31  F   UNL     1     -10.643  16.802  64.923  1.00  0.00    -0.286 F  
HETATM   32  C   UNL     1     -11.176  14.637  65.687  1.00  0.00    -0.342 A  
ENDBRANCH  19  22
ENDBRANCH  18  19
ENDBRANCH  16  18
ENDBRANCH  15  16
ENDBRANCH   2  15
TORSDOF 6
ENDMDL
MODEL      259
REMARK 921   NORMALIZED FREE ENERGY PREDICTED BY IDOCK:   -4.50 KCAL/MOL
REMARK 922        TOTAL FREE ENERGY PREDICTED BY IDOCK:   -7.26 KCAL/MOL
REMARK 923 INTER-LIGAND FREE ENERGY PREDICTED BY IDOCK:   -6.88 KCAL/MOL
REMARK 924 INTRA-LIGAND FREE ENERGY PREDICTED BY IDOCK:   -0.38 KCAL/MOL
REMARK 927      BINDING AFFINITY PREDICTED BY RF-SCORE:    0.00 PKD
ROOT
HETATM    1  O   UNL     1      -8.046  10.280  67.720  1.00  0.00    -0.102 OA 
HETATM    2  C   UNL     1      -8.546  10.674  69.006  1.00  0.00    -0.146 C  
HETATM    3  H   UNL     1      -7.197   9.866  67.821  1.00  0.00     0.000 HD 
ENDROOT
BRANCH   2   4
HETATM    4  C   UNL     1      -8.591   9.447  69.946  1.00  0.00    -0.191 C  
HETATM    5  C   UNL     1     -10.784   5.562  72.173  1.00  0.00    -0.231 A  
HETATM    6  C   UNL     1     -11.759   6.542  72.046  1.00  0.00    -0.367 A  
HETATM    7  C   UNL     1      -7.837   8.242  69.377  1.00  0.00    -0.104 C  
HETATM    8  C   UNL     1      -7.819   7.137  70.419  1.00  0.00    -0.100 C  
HETATM    9  F   UNL     1     -11.077   4.415  72.803  1.00  0.00    -0.252 F  
HETATM   10  C   UNL     1     -11.450   7.734  71.385  1.00  0.00    -0.289 A  
HETATM   11  O   UNL     1      -9.967   9.123  70.215  1.00  0.00    -0.182 OA 
HETATM   12  C   UNL     1      -9.195   6.938  70.982  1.00  0.00    -0.156 A  
HETATM   13  C   UNL     1     -10.171   7.935  70.866  1.00  0.00    -0.198 A  
HETATM   14  C   UNL     1      -9.508   5.747  71.653  1.00  0.00    -0.172 A  
ENDBRANCH   2   4
BRANCH   2  15
HETATM   15  C   UNL     1      -9.925  11.345  68.841  1.00  0.00    -0.131 C  
BRANCH  15  16
HETATM   16  N   UNL     1      -9.820  12.812  68.738  1.00  0.00    -0.422 NA 
HETATM   17  H   UNL     1      -9.477  13.237  69.599  1.00  0.00     0.000 HD 
BRANCH  16  18
HETATM   18  C   UNL     1      -8.987  13.157  67.572  1.00  0.00    -0.197 C  
BRANCH  18  19
HETATM   19  C   UNL     1      -7.612  13.704  68.006  1.00  0.00    -0.139 C  
HETATM   20  H   UNL     1      -5.752  13.489  67.413  1.00  0.00     0.000 HD 
HETATM   21  O   UNL     1      -6.598  13.152  67.146  1.00  0.00    -0.192 OA 
BRANCH  19  22
HETATM   22  C   UNL     1      -7.541  15.248  67.951  1.00  0.00    -0.139 C  
HETATM   23  C   UNL     1      -7.075  17.358  69.170  1.00  0.00    -0.196 C  
HETATM   24  C   UNL     1      -7.237  15.856  69.321  1.00  0.00    -0.217 C  
HETATM   25  C   UNL     1      -8.211  17.915  68.366  1.00  0.00    -0.303 A  
HETATM   26  C   UNL     1      -8.987  17.089  67.541  1.00  0.00    -0.219 A  
HETATM   27  O   UNL     1      -8.796  15.736  67.430  1.00  0.00    -0.178 OA 
HETATM   28  C   UNL     1     -10.051  17.621  66.808  1.00  0.00    -0.334 A  
HETATM   29  C   UNL     1     -10.335  18.985  66.877  1.00  0.00    -0.483 A  
HETATM   30  C   UNL     1      -9.553  19.805  67.682  1.00  0.00    -0.355 A  
HETATM   31  F   UNL     1      -9.824  21.115  67.752  1.00  0.00    -0.497 F  
HETATM   32  C   UNL     1      -8.496  19.286  68.422  1.00  0.00    -0.386 A  
ENDBRANCH  19  22
ENDBRANCH  18  19
ENDBRANCH  16  18
ENDBRANCH  15  16
ENDBRANCH   2  15
TORSDOF 6
ENDMDL
MODEL      260
REMARK 921   NORMALIZED FREE ENERGY PREDICTED BY IDOCK:   -4.47 KCAL/MOL
REMARK 922        TOTAL FREE ENERGY PREDICTED BY IDOCK:   -7.23 KCAL/MOL
REMARK 923 INTER-LIGAND FREE ENERGY PREDICTED BY IDOCK:   -6.02 KCAL/MOL
REMARK 924 INTRA-LIGAND FREE ENERGY PREDICTED BY IDOCK:   -1.21 KCAL/MOL
REMARK 927      BINDING AFFINITY PREDICTED BY RF-SCORE:    0.00 PKD
ROOT
HETATM    1  O   UNL     1     -11.399   7.495  73.503  1.00  0.00    -0.620 OA 
HETATM    2  C   UNL     1     -10.069   7.670  72.995  1.00  0.00    -0.304 C  
HETATM    3  H   UNL     1     -11.844   8.334  73.528  1.00  0.00     0.000 HD 
ENDROOT
BRANCH   2   4
HETATM    4  C   UNL     1     -10.126   8.353  71.609  1.00  0.00    -0.239 C  
HETATM    5  C   UNL     1     -11.226  12.060  68.459  1.00  0.00    -0.256 A  
HETATM    6  C   UNL     1     -12.232  12.047  69.417  1.00  0.00    -0.155 A  
HETATM    7  C   UNL     1      -8.751   8.832  71.132  1.00  0.00    -0.265 C  
HETATM    8  C   UNL     1      -8.880   9.364  69.716  1.00  0.00    -0.193 C  
HETATM    9  F   UNL     1     -11.297  12.924  67.436  1.00  0.00    -0.272 F  
HETATM   10  C   UNL     1     -12.151  11.148  70.483  1.00  0.00    -0.474 A  
HETATM   11  O   UNL     1     -11.065   9.442  71.669  1.00  0.00    -0.369 OA 
HETATM   12  C   UNL     1     -10.051  10.296  69.619  1.00  0.00    -0.257 A  
HETATM   13  C   UNL     1     -11.072  10.270  70.578  1.00  0.00    -0.306 A  
HETATM   14  C   UNL     1     -10.141  11.194  68.547  1.00  0.00    -0.208 A  
ENDBRANCH   2   4
BRANCH   2  15
HETATM   15  C   UNL     1      -9.347   6.308  72.954  1.00  0.00    -0.139 C  
BRANCH  15  16
HETATM   16  N   UNL     1     -10.290   5.183  72.829  1.00  0.00    -0.188 NA 
HETATM   17  H   UNL     1     -11.256   5.466  72.997  1.00  0.00     0.000 HD 
BRANCH  16  18
HETATM   18  C   UNL     1     -10.115   4.548  71.510  1.00  0.00    -0.169 C  
BRANCH  18  19
HETATM   19  C   UNL     1      -8.698   4.792  70.953  1.00  0.00    -0.111 C  
HETATM   20  H   UNL     1      -6.975   3.851  71.009  1.00  0.00     0.000 HD 
HETATM   21  O   UNL     1      -7.848   3.701  71.352  1.00  0.00    -0.058 OA 
BRANCH  19  22
HETATM   22  C   UNL     1      -8.677   4.917  69.411  1.00  0.00    -0.087 C  
HETATM   23  C   UNL     1      -9.602   6.034  67.399  1.00  0.00    -0.118 C  
HETATM   24  C   UNL     1      -9.752   5.877  68.902  1.00  0.00    -0.168 C  
HETATM   25  C   UNL     1      -9.471   4.685  66.756  1.00  0.00    -0.172 A  
HETATM   26  C   UNL     1      -9.092   3.562  67.504  1.00  0.00    -0.167 A  
HETATM   27  O   UNL     1      -8.848   3.597  68.853  1.00  0.00    -0.090 OA 
HETATM   28  C   UNL     1      -8.987   2.309  66.894  1.00  0.00    -0.145 A  
HETATM   29  C   UNL     1      -9.239   2.174  65.528  1.00  0.00    -0.033 A  
HETATM   30  C   UNL     1      -9.598   3.292  64.786  1.00  0.00    -0.149 A  
HETATM   31  F   UNL     1      -9.843   3.165  63.475  1.00  0.00    -0.113 F  
HETATM   32  C   UNL     1      -9.713   4.542  65.383  1.00  0.00    -0.196 A  
ENDBRANCH  19  22
ENDBRANCH  18  19
ENDBRANCH  16  18
ENDBRANCH  15  16
ENDBRANCH   2  15
TORSDOF 6
ENDMDL
MODEL      261
REMARK 921   NORMALIZED FREE ENERGY PREDICTED BY IDOCK:   -4.47 KCAL/MOL
REMARK 922        TOTAL FREE ENERGY PREDICTED BY IDOCK:   -7.23 KCAL/MOL
REMARK 923 INTER-LIGAND FREE ENERGY PREDICTED BY IDOCK:   -6.57 KCAL/MOL
REMARK 924 INTRA-LIGAND FREE ENERGY PREDICTED BY IDOCK:   -0.66 KCAL/MOL
REMARK 927      BINDING AFFINITY PREDICTED BY RF-SCORE:    0.00 PKD
ROOT
HETATM    1  O   UNL     1     -12.049  16.468  63.935  1.00  0.00    -1.121 OA 
HETATM    2  C   UNL     1     -10.913  15.867  64.573  1.00  0.00    -0.179 C  
HETATM    3  H   UNL     1     -12.235  16.014  63.122  1.00  0.00     0.000 HD 
ENDROOT
BRANCH   2   4
HETATM    4  C   UNL     1     -11.169  14.357  64.780  1.00  0.00    -0.387 C  
HETATM    5  C   UNL     1      -9.815   9.645  65.692  1.00  0.00    -0.299 A  
HETATM    6  C   UNL     1      -8.782  10.215  64.958  1.00  0.00    -0.190 A  
HETATM    7  C   UNL     1     -11.832  14.052  66.128  1.00  0.00    -0.422 C  
HETATM    8  C   UNL     1     -12.167  12.573  66.187  1.00  0.00    -0.215 C  
HETATM    9  F   UNL     1      -9.750   8.348  66.026  1.00  0.00    -0.288 F  
HETATM   10  C   UNL     1      -8.851  11.568  64.615  1.00  0.00     0.365 A  
HETATM   11  O   UNL     1      -9.921  13.654  64.642  1.00  0.00    -0.277 OA 
HETATM   12  C   UNL     1     -10.983  11.758  65.756  1.00  0.00    -0.353 A  
HETATM   13  C   UNL     1      -9.951  12.333  65.003  1.00  0.00    -0.205 A  
HETATM   14  C   UNL     1     -10.913  10.399  66.090  1.00  0.00     0.125 A  
ENDBRANCH   2   4
BRANCH   2  15
HETATM   15  C   UNL     1     -10.611  16.604  65.894  1.00  0.00    -0.249 C  
BRANCH  15  16
HETATM   16  N   UNL     1      -9.217  17.078  65.960  1.00  0.00    -0.503 NA 
HETATM   17  H   UNL     1      -9.094  17.824  66.644  1.00  0.00     0.000 HD 
BRANCH  16  18
HETATM   18  C   UNL     1      -8.327  15.932  66.214  1.00  0.00    -0.200 C  
BRANCH  18  19
HETATM   19  C   UNL     1      -8.270  15.587  67.716  1.00  0.00    -0.147 C  
HETATM   20  H   UNL     1      -8.278  16.597  69.401  1.00  0.00     0.000 HD 
HETATM   21  O   UNL     1      -8.314  16.810  68.475  1.00  0.00    -0.222 OA 
BRANCH  19  22
HETATM   22  C   UNL     1      -9.432  14.669  68.161  1.00  0.00    -0.212 C  
HETATM   23  C   UNL     1     -11.211  14.222  69.831  1.00  0.00    -0.194 C  
HETATM   24  C   UNL     1     -10.010  15.094  69.511  1.00  0.00    -0.209 C  
HETATM   25  C   UNL     1     -10.865  12.779  69.613  1.00  0.00     0.279 A  
HETATM   26  C   UNL     1      -9.775  12.409  68.812  1.00  0.00     0.044 A  
HETATM   27  O   UNL     1      -8.940  13.313  68.207  1.00  0.00    -0.187 OA 
HETATM   28  C   UNL     1      -9.457  11.061  68.629  1.00  0.00    -0.197 A  
HETATM   29  C   UNL     1     -10.239  10.072  69.226  1.00  0.00    -0.229 A  
HETATM   30  C   UNL     1     -11.329  10.440  70.004  1.00  0.00    -0.313 A  
HETATM   31  F   UNL     1     -12.080   9.492  70.580  1.00  0.00    -0.303 F  
HETATM   32  C   UNL     1     -11.651  11.778  70.201  1.00  0.00    -0.281 A  
ENDBRANCH  19  22
ENDBRANCH  18  19
ENDBRANCH  16  18
ENDBRANCH  15  16
ENDBRANCH   2  15
TORSDOF 6
ENDMDL
MODEL      262
REMARK 921   NORMALIZED FREE ENERGY PREDICTED BY IDOCK:   -4.46 KCAL/MOL
REMARK 922        TOTAL FREE ENERGY PREDICTED BY IDOCK:   -7.22 KCAL/MOL
REMARK 923 INTER-LIGAND FREE ENERGY PREDICTED BY IDOCK:   -6.33 KCAL/MOL
REMARK 924 INTRA-LIGAND FREE ENERGY PREDICTED BY IDOCK:   -0.88 KCAL/MOL
REMARK 927      BINDING AFFINITY PREDICTED BY RF-SCORE:    0.00 PKD
ROOT
HETATM    1  O   UNL     1     -10.568  11.038  70.069  1.00  0.00    -0.449 OA 
HETATM    2  C   UNL     1      -9.999   9.814  69.585  1.00  0.00    -0.223 C  
HETATM    3  H   UNL     1     -11.515  10.992  70.016  1.00  0.00     0.000 HD 
ENDROOT
BRANCH   2   4
HETATM    4  C   UNL     1     -10.581   8.619  70.376  1.00  0.00    -0.220 C  
HETATM    5  C   UNL     1     -10.285   4.436  73.074  1.00  0.00    -0.168 A  
HETATM    6  C   UNL     1      -9.232   4.395  72.170  1.00  0.00    -0.164 A  
HETATM    7  C   UNL     1     -11.148   9.035  71.736  1.00  0.00    -0.444 C  
HETATM    8  C   UNL     1     -11.814   7.832  72.380  1.00  0.00    -0.371 C  
HETATM    9  F   UNL     1     -10.493   3.397  73.895  1.00  0.00    -0.173 F  
HETATM   10  C   UNL     1      -9.017   5.482  71.319  1.00  0.00    -0.153 A  
HETATM   11  O   UNL     1      -9.556   7.619  70.522  1.00  0.00    -0.168 OA 
HETATM   12  C   UNL     1     -10.909   6.638  72.301  1.00  0.00    -0.260 A  
HETATM   13  C   UNL     1      -9.857   6.593  71.376  1.00  0.00    -0.179 A  
HETATM   14  C   UNL     1     -11.126   5.542  73.147  1.00  0.00    -0.337 A  
ENDBRANCH   2   4
BRANCH   2  15
HETATM   15  C   UNL     1      -8.461   9.888  69.671  1.00  0.00    -0.187 C  
BRANCH  15  16
HETATM   16  N   UNL     1      -7.816   9.561  68.386  1.00  0.00    -0.086 NA 
HETATM   17  H   UNL     1      -8.495   9.420  67.638  1.00  0.00     0.000 HD 
BRANCH  16  18
HETATM   18  C   UNL     1      -6.830  10.606  68.059  1.00  0.00    -0.072 C  
BRANCH  18  19
HETATM   19  C   UNL     1      -7.287  11.452  66.853  1.00  0.00    -0.147 C  
HETATM   20  H   UNL     1      -8.501  11.204  65.329  1.00  0.00     0.000 HD 
HETATM   21  O   UNL     1      -8.220  10.683  66.072  1.00  0.00    -0.148 OA 
BRANCH  19  22
HETATM   22  C   UNL     1      -7.954  12.782  67.277  1.00  0.00    -0.156 C  
HETATM   23  C   UNL     1      -7.844  14.803  68.711  1.00  0.00    -0.146 C  
HETATM   24  C   UNL     1      -7.200  13.459  68.423  1.00  0.00    -0.110 C  
HETATM   25  C   UNL     1      -9.331  14.645  68.816  1.00  0.00    -0.191 A  
HETATM   26  C   UNL     1      -9.979  13.527  68.273  1.00  0.00    -0.237 A  
HETATM   27  O   UNL     1      -9.321  12.500  67.646  1.00  0.00    -0.178 OA 
HETATM   28  C   UNL     1     -11.364  13.386  68.390  1.00  0.00    -0.329 A  
HETATM   29  C   UNL     1     -12.115  14.371  69.032  1.00  0.00    -0.298 A  
HETATM   30  C   UNL     1     -11.472  15.487  69.555  1.00  0.00    -0.333 A  
HETATM   31  F   UNL     1     -12.189  16.434  70.174  1.00  0.00    -0.136 F  
HETATM   32  C   UNL     1     -10.093  15.634  69.451  1.00  0.00    -0.269 A  
ENDBRANCH  19  22
ENDBRANCH  18  19
ENDBRANCH  16  18
ENDBRANCH  15  16
ENDBRANCH   2  15
TORSDOF 6
ENDMDL
MODEL      263
REMARK 921   NORMALIZED FREE ENERGY PREDICTED BY IDOCK:   -4.41 KCAL/MOL
REMARK 922        TOTAL FREE ENERGY PREDICTED BY IDOCK:   -7.14 KCAL/MOL
REMARK 923 INTER-LIGAND FREE ENERGY PREDICTED BY IDOCK:   -6.59 KCAL/MOL
REMARK 924 INTRA-LIGAND FREE ENERGY PREDICTED BY IDOCK:   -0.56 KCAL/MOL
REMARK 927      BINDING AFFINITY PREDICTED BY RF-SCORE:    0.00 PKD
ROOT
HETATM    1  O   UNL     1      -9.802   6.867  66.225  1.00  0.00    -0.390 OA 
HETATM    2  C   UNL     1      -9.524   7.643  67.398  1.00  0.00    -0.143 C  
HETATM    3  H   UNL     1      -9.506   5.974  66.356  1.00  0.00     0.000 HD 
ENDROOT
BRANCH   2   4
HETATM    4  C   UNL     1     -10.176   6.977  68.632  1.00  0.00    -0.176 C  
HETATM    5  C   UNL     1     -10.365   3.756  72.434  1.00  0.00    -0.114 A  
HETATM    6  C   UNL     1      -9.687   3.112  71.407  1.00  0.00    -0.219 A  
HETATM    7  C   UNL     1     -10.167   7.885  69.865  1.00  0.00    -0.210 C  
HETATM    8  C   UNL     1     -10.942   7.206  70.981  1.00  0.00    -0.277 C  
HETATM    9  F   UNL     1     -10.623   3.096  73.572  1.00  0.00    -0.189 F  
HETATM   10  C   UNL     1      -9.417   3.804  70.224  1.00  0.00    -0.257 A  
HETATM   11  O   UNL     1      -9.502   5.733  68.894  1.00  0.00    -0.120 OA 
HETATM   12  C   UNL     1     -10.500   5.780  71.122  1.00  0.00    -0.301 A  
HETATM   13  C   UNL     1      -9.831   5.128  70.078  1.00  0.00    -0.225 A  
HETATM   14  C   UNL     1     -10.776   5.078  72.303  1.00  0.00    -0.246 A  
ENDBRANCH   2   4
BRANCH   2  15
HETATM   15  C   UNL     1     -10.005   9.094  67.185  1.00  0.00    -0.218 C  
BRANCH  15  16
HETATM   16  N   UNL     1      -9.078   9.867  66.340  1.00  0.00    -0.147 NA 
HETATM   17  H   UNL     1      -9.437  10.001  65.395  1.00  0.00     0.000 HD 
BRANCH  16  18
HETATM   18  C   UNL     1      -8.766  11.144  67.006  1.00  0.00    -0.148 C  
BRANCH  18  19
HETATM   19  C   UNL     1      -9.592  11.322  68.295  1.00  0.00    -0.193 C  
HETATM   20  H   UNL     1      -9.266  11.132  70.223  1.00  0.00     0.000 HD 
HETATM   21  O   UNL     1      -8.757  11.022  69.429  1.00  0.00     0.016 OA 
BRANCH  19  22
HETATM   22  C   UNL     1     -10.159  12.753  68.446  1.00  0.00    -0.226 C  
HETATM   23  C   UNL     1     -11.731  14.472  67.593  1.00  0.00    -0.410 C  
HETATM   24  C   UNL     1     -11.134  13.103  67.321  1.00  0.00    -0.305 C  
HETATM   25  C   UNL     1     -10.642  15.444  67.936  1.00  0.00    -0.267 A  
HETATM   26  C   UNL     1      -9.385  14.999  68.369  1.00  0.00    -0.193 A  
HETATM   27  O   UNL     1      -9.048  13.675  68.480  1.00  0.00    -0.183 OA 
HETATM   28  C   UNL     1      -8.376  15.917  68.672  1.00  0.00    -0.195 A  
HETATM   29  C   UNL     1      -8.622  17.286  68.566  1.00  0.00    -0.270 A  
HETATM   30  C   UNL     1      -9.873  17.725  68.154  1.00  0.00    -0.326 A  
HETATM   31  F   UNL     1     -10.112  19.039  68.049  1.00  0.00    -0.347 F  
HETATM   32  C   UNL     1     -10.883  16.821  67.842  1.00  0.00    -0.311 A  
ENDBRANCH  19  22
ENDBRANCH  18  19
ENDBRANCH  16  18
ENDBRANCH  15  16
ENDBRANCH   2  15
TORSDOF 6
ENDMDL
MODEL      264
REMARK 921   NORMALIZED FREE ENERGY PREDICTED BY IDOCK:   -4.41 KCAL/MOL
REMARK 922        TOTAL FREE ENERGY PREDICTED BY IDOCK:   -7.14 KCAL/MOL
REMARK 923 INTER-LIGAND FREE ENERGY PREDICTED BY IDOCK:   -6.32 KCAL/MOL
REMARK 924 INTRA-LIGAND FREE ENERGY PREDICTED BY IDOCK:   -0.82 KCAL/MOL
REMARK 927      BINDING AFFINITY PREDICTED BY RF-SCORE:    0.00 PKD
ROOT
HETATM    1  O   UNL     1     -10.755   9.391  71.594  1.00  0.00    -0.356 OA 
HETATM    2  C   UNL     1     -10.336   8.488  70.562  1.00  0.00    -0.200 C  
HETATM    3  H   UNL     1     -11.630   9.163  71.883  1.00  0.00     0.000 HD 
ENDROOT
BRANCH   2   4
HETATM    4  C   UNL     1     -10.431   7.031  71.073  1.00  0.00    -0.212 C  
HETATM    5  C   UNL     1      -8.800   3.006  73.522  1.00  0.00    -0.079 A  
HETATM    6  C   UNL     1      -7.676   3.623  72.990  1.00  0.00    -0.066 A  
HETATM    7  C   UNL     1     -11.448   6.872  72.208  1.00  0.00    -0.313 C  
HETATM    8  C   UNL     1     -11.572   5.398  72.552  1.00  0.00    -0.225 C  
HETATM    9  F   UNL     1      -8.667   1.848  74.186  1.00  0.00    -0.055 F  
HETATM   10  C   UNL     1      -7.819   4.831  72.302  1.00  0.00    -0.098 A  
HETATM   11  O   UNL     1      -9.121   6.600  71.482  1.00  0.00    -0.143 OA 
HETATM   12  C   UNL     1     -10.211   4.787  72.701  1.00  0.00    -0.242 A  
HETATM   13  C   UNL     1      -9.081   5.404  72.149  1.00  0.00    -0.136 A  
HETATM   14  C   UNL     1     -10.063   3.571  73.383  1.00  0.00    -0.201 A  
ENDBRANCH   2   4
BRANCH   2  15
HETATM   15  C   UNL     1      -8.914   8.859  70.094  1.00  0.00    -0.172 C  
BRANCH  15  16
HETATM   16  N   UNL     1      -8.569   8.224  68.809  1.00  0.00    -0.132 NA 
HETATM   17  H   UNL     1      -9.294   7.583  68.487  1.00  0.00     0.000 HD 
BRANCH  16  18
HETATM   18  C   UNL     1      -8.266   9.271  67.817  1.00  0.00    -0.115 C  
BRANCH  18  19
HETATM   19  C   UNL     1      -8.216  10.667  68.470  1.00  0.00    -0.128 C  
HETATM   20  H   UNL     1      -6.863  12.072  68.703  1.00  0.00     0.000 HD 
HETATM   21  O   UNL     1      -6.894  11.213  68.301  1.00  0.00    -0.064 OA 
BRANCH  19  22
HETATM   22  C   UNL     1      -9.251  11.645  67.867  1.00  0.00    -0.171 C  
HETATM   23  C   UNL     1     -11.022  12.018  66.171  1.00  0.00    -0.343 C  
HETATM   24  C   UNL     1      -9.948  11.054  66.641  1.00  0.00    -0.249 C  
HETATM   25  C   UNL     1     -10.459  13.406  66.086  1.00  0.00    -0.295 A  
HETATM   26  C   UNL     1      -9.291  13.756  66.776  1.00  0.00    -0.266 A  
HETATM   27  O   UNL     1      -8.569  12.874  67.538  1.00  0.00    -0.166 OA 
HETATM   28  C   UNL     1      -8.771  15.049  66.676  1.00  0.00    -0.289 A  
HETATM   29  C   UNL     1      -9.427  16.008  65.904  1.00  0.00    -0.351 A  
HETATM   30  C   UNL     1     -10.594  15.664  65.235  1.00  0.00    -0.426 A  
HETATM   31  F   UNL     1     -11.226  16.581  64.490  1.00  0.00    -0.485 F  
HETATM   32  C   UNL     1     -11.117  14.378  65.320  1.00  0.00    -0.344 A  
ENDBRANCH  19  22
ENDBRANCH  18  19
ENDBRANCH  16  18
ENDBRANCH  15  16
ENDBRANCH   2  15
TORSDOF 6
ENDMDL
MODEL      265
REMARK 921   NORMALIZED FREE ENERGY PREDICTED BY IDOCK:   -4.40 KCAL/MOL
REMARK 922        TOTAL FREE ENERGY PREDICTED BY IDOCK:   -7.13 KCAL/MOL
REMARK 923 INTER-LIGAND FREE ENERGY PREDICTED BY IDOCK:   -5.54 KCAL/MOL
REMARK 924 INTRA-LIGAND FREE ENERGY PREDICTED BY IDOCK:   -1.59 KCAL/MOL
REMARK 927      BINDING AFFINITY PREDICTED BY RF-SCORE:    0.00 PKD
ROOT
HETATM    1  O   UNL     1     -10.491   2.985  72.960  1.00  0.00    -0.150 OA 
HETATM    2  C   UNL     1     -10.010   4.110  72.212  1.00  0.00    -0.174 C  
HETATM    3  H   UNL     1     -11.367   2.760  72.670  1.00  0.00     0.000 HD 
ENDROOT
BRANCH   2   4
HETATM    4  C   UNL     1     -10.072   3.796  70.699  1.00  0.00     0.192 C  
HETATM    5  C   UNL     1      -9.622   4.884  65.854  1.00  0.00    -0.175 A  
HETATM    6  C   UNL     1     -10.070   6.042  66.476  1.00  0.00    -0.191 A  
HETATM    7  C   UNL     1      -8.922   2.893  70.239  1.00  0.00    -0.165 C  
HETATM    8  C   UNL     1      -9.137   2.529  68.781  1.00  0.00    -0.198 C  
HETATM    9  F   UNL     1      -9.472   4.865  64.521  1.00  0.00    -0.131 F  
HETATM   10  C   UNL     1     -10.221   6.059  67.865  1.00  0.00    -0.217 A  
HETATM   11  O   UNL     1     -10.085   5.036  69.970  1.00  0.00    -0.235 OA 
HETATM   12  C   UNL     1      -9.463   3.758  67.985  1.00  0.00    -0.221 A  
HETATM   13  C   UNL     1      -9.930   4.920  68.614  1.00  0.00    -0.125 A  
HETATM   14  C   UNL     1      -9.321   3.744  66.591  1.00  0.00    -0.207 A  
ENDBRANCH   2   4
BRANCH   2  15
HETATM   15  C   UNL     1      -8.588   4.476  72.684  1.00  0.00    -0.114 C  
BRANCH  15  16
HETATM   16  N   UNL     1      -8.290   5.907  72.492  1.00  0.00    -0.117 NA 
HETATM   17  H   UNL     1      -7.997   6.116  71.537  1.00  0.00     0.000 HD 
BRANCH  16  18
HETATM   18  C   UNL     1      -9.457   6.705  72.907  1.00  0.00    -0.138 C  
BRANCH  18  19
HETATM   19  C   UNL     1      -9.279   8.193  72.543  1.00  0.00    -0.251 C  
HETATM   20  H   UNL     1      -7.862   9.538  72.743  1.00  0.00     0.000 HD 
HETATM   21  O   UNL     1      -7.972   8.622  72.967  1.00  0.00    -0.387 OA 
BRANCH  19  22
HETATM   22  C   UNL     1      -9.435   8.458  71.027  1.00  0.00    -0.170 C  
HETATM   23  C   UNL     1      -8.308   8.924  68.867  1.00  0.00    -0.122 C  
HETATM   24  C   UNL     1      -8.097   8.784  70.364  1.00  0.00    -0.118 C  
HETATM   25  C   UNL     1      -9.486   9.814  68.599  1.00  0.00    -0.151 A  
HETATM   26  C   UNL     1     -10.450  10.054  69.588  1.00  0.00    -0.248 A  
HETATM   27  O   UNL     1     -10.380   9.536  70.856  1.00  0.00    -0.291 OA 
HETATM   28  C   UNL     1     -11.535  10.896  69.328  1.00  0.00    -0.372 A  
HETATM   29  C   UNL     1     -11.676  11.486  68.072  1.00  0.00    -0.343 A  
HETATM   30  C   UNL     1     -10.728  11.232  67.088  1.00  0.00    -0.253 A  
HETATM   31  F   UNL     1     -10.859  11.799  65.881  1.00  0.00    -0.291 F  
HETATM   32  C   UNL     1      -9.640  10.403  67.337  1.00  0.00    -0.178 A  
ENDBRANCH  19  22
ENDBRANCH  18  19
ENDBRANCH  16  18
ENDBRANCH  15  16
ENDBRANCH   2  15
TORSDOF 6
ENDMDL
MODEL      266
REMARK 921   NORMALIZED FREE ENERGY PREDICTED BY IDOCK:   -4.39 KCAL/MOL
REMARK 922        TOTAL FREE ENERGY PREDICTED BY IDOCK:   -7.12 KCAL/MOL
REMARK 923 INTER-LIGAND FREE ENERGY PREDICTED BY IDOCK:   -6.33 KCAL/MOL
REMARK 924 INTRA-LIGAND FREE ENERGY PREDICTED BY IDOCK:   -0.80 KCAL/MOL
REMARK 927      BINDING AFFINITY PREDICTED BY RF-SCORE:    0.00 PKD
ROOT
HETATM    1  O   UNL     1     -10.032   3.984  71.017  1.00  0.00    -0.179 OA 
HETATM    2  C   UNL     1      -9.993   5.408  70.852  1.00  0.00    -0.202 C  
HETATM    3  H   UNL     1     -10.089   3.566  70.166  1.00  0.00     0.000 HD 
ENDROOT
BRANCH   2   4
HETATM    4  C   UNL     1      -8.820   5.794  69.921  1.00  0.00    -0.127 C  
HETATM    5  C   UNL     1      -6.636   8.404  66.276  1.00  0.00    -0.058 A  
HETATM    6  C   UNL     1      -7.968   8.257  65.910  1.00  0.00    -0.097 A  
HETATM    7  C   UNL     1      -7.720   6.570  70.652  1.00  0.00    -0.105 C  
HETATM    8  C   UNL     1      -6.557   6.787  69.701  1.00  0.00    -0.048 C  
HETATM    9  F   UNL     1      -5.785   9.017  65.442  1.00  0.00    -0.044 F  
HETATM   10  C   UNL     1      -8.853   7.621  66.785  1.00  0.00    -0.150 A  
HETATM   11  O   UNL     1      -9.340   6.547  68.811  1.00  0.00    -0.131 OA 
HETATM   12  C   UNL     1      -7.057   7.297  68.382  1.00  0.00    -0.081 A  
HETATM   13  C   UNL     1      -8.397   7.134  68.010  1.00  0.00    -0.119 A  
HETATM   14  C   UNL     1      -6.171   7.929  67.498  1.00  0.00    -0.051 A  
ENDBRANCH   2   4
BRANCH   2  15
HETATM   15  C   UNL     1      -9.900   6.087  72.234  1.00  0.00    -0.160 C  
BRANCH  15  16
HETATM   16  N   UNL     1     -11.071   6.937  72.515  1.00  0.00    -0.256 NA 
HETATM   17  H   UNL     1     -11.054   7.320  73.460  1.00  0.00     0.000 HD 
BRANCH  16  18
HETATM   18  C   UNL     1     -11.165   7.988  71.486  1.00  0.00    -0.255 C  
BRANCH  18  19
HETATM   19  C   UNL     1     -12.482   8.780  71.611  1.00  0.00    -0.339 C  
HETATM   20  H   UNL     1     -13.933   8.915  72.928  1.00  0.00     0.000 HD 
HETATM   21  O   UNL     1     -13.122   8.427  72.851  1.00  0.00    -0.102 OA 
BRANCH  19  22
HETATM   22  C   UNL     1     -12.263  10.311  71.569  1.00  0.00    -0.353 C  
HETATM   23  C   UNL     1     -13.204  12.563  72.012  1.00  0.00    -0.524 C  
HETATM   24  C   UNL     1     -13.523  11.079  71.970  1.00  0.00    -0.286 C  
HETATM   25  C   UNL     1     -12.477  12.964  70.762  1.00  0.00    -0.370 A  
HETATM   26  C   UNL     1     -11.831  12.010  69.964  1.00  0.00    -0.314 A  
HETATM   27  O   UNL     1     -11.837  10.666  70.235  1.00  0.00    -0.283 OA 
HETATM   28  C   UNL     1     -11.170  12.397  68.795  1.00  0.00    -0.318 A  
HETATM   29  C   UNL     1     -11.131  13.742  68.427  1.00  0.00    -0.287 A  
HETATM   30  C   UNL     1     -11.758  14.687  69.229  1.00  0.00    -0.312 A  
HETATM   31  F   UNL     1     -11.724  15.980  68.877  1.00  0.00    -0.349 F  
HETATM   32  C   UNL     1     -12.426  14.314  70.390  1.00  0.00    -0.426 A  
ENDBRANCH  19  22
ENDBRANCH  18  19
ENDBRANCH  16  18
ENDBRANCH  15  16
ENDBRANCH   2  15
TORSDOF 6
ENDMDL
MODEL      267
REMARK 921   NORMALIZED FREE ENERGY PREDICTED BY IDOCK:   -4.39 KCAL/MOL
REMARK 922        TOTAL FREE ENERGY PREDICTED BY IDOCK:   -7.11 KCAL/MOL
REMARK 923 INTER-LIGAND FREE ENERGY PREDICTED BY IDOCK:   -6.44 KCAL/MOL
REMARK 924 INTRA-LIGAND FREE ENERGY PREDICTED BY IDOCK:   -0.67 KCAL/MOL
REMARK 927      BINDING AFFINITY PREDICTED BY RF-SCORE:    0.00 PKD
ROOT
HETATM    1  O   UNL     1     -11.224   6.666  70.252  1.00  0.00    -0.297 OA 
HETATM    2  C   UNL     1     -10.291   6.836  69.175  1.00  0.00    -0.194 C  
HETATM    3  H   UNL     1     -12.028   6.285  69.920  1.00  0.00     0.000 HD 
ENDROOT
BRANCH   2   4
HETATM    4  C   UNL     1     -10.058   5.481  68.468  1.00  0.00    -0.180 C  
HETATM    5  C   UNL     1      -9.597   2.495  64.500  1.00  0.00    -0.106 A  
HETATM    6  C   UNL     1     -10.548   3.450  64.164  1.00  0.00    -0.161 A  
HETATM    7  C   UNL     1      -8.597   5.026  68.535  1.00  0.00    -0.097 C  
HETATM    8  C   UNL     1      -8.487   3.634  67.938  1.00  0.00    -0.107 C  
HETATM    9  F   UNL     1      -9.315   1.511  63.636  1.00  0.00    -0.091 F  
HETATM   10  C   UNL     1     -10.836   4.477  65.067  1.00  0.00    -0.056 A  
HETATM   11  O   UNL     1     -10.509   5.588  67.105  1.00  0.00    -0.227 OA 
HETATM   12  C   UNL     1      -9.209   3.578  66.625  1.00  0.00    -0.192 A  
HETATM   13  C   UNL     1     -10.178   4.534  66.295  1.00  0.00    -0.239 A  
HETATM   14  C   UNL     1      -8.929   2.545  65.719  1.00  0.00    -0.129 A  
ENDBRANCH   2   4
BRANCH   2  15
HETATM   15  C   UNL     1      -8.985   7.455  69.714  1.00  0.00    -0.141 C  
BRANCH  15  16
HETATM   16  N   UNL     1      -8.527   8.589  68.892  1.00  0.00    -0.122 NA 
HETATM   17  H   UNL     1      -7.643   8.394  68.422  1.00  0.00     0.000 HD 
BRANCH  16  18
HETATM   18  C   UNL     1      -9.593   8.963  67.945  1.00  0.00    -0.148 C  
BRANCH  18  19
HETATM   19  C   UNL     1      -9.030   9.764  66.753  1.00  0.00    -0.138 C  
HETATM   20  H   UNL     1      -8.408   9.348  64.937  1.00  0.00     0.000 HD 
HETATM   21  O   UNL     1      -8.755   8.855  65.671  1.00  0.00    -0.160 OA 
BRANCH  19  22
HETATM   22  C   UNL     1     -10.002  10.861  66.262  1.00  0.00    -0.227 C  
HETATM   23  C   UNL     1     -11.356  11.757  64.386  1.00  0.00    -0.373 C  
HETATM   24  C   UNL     1     -10.318  10.719  64.772  1.00  0.00    -0.380 C  
HETATM   25  C   UNL     1     -10.956  13.102  64.917  1.00  0.00    -0.337 A  
HETATM   26  C   UNL     1     -10.031  13.219  65.964  1.00  0.00    -0.292 A  
HETATM   27  O   UNL     1      -9.410  12.147  66.550  1.00  0.00    -0.220 OA 
HETATM   28  C   UNL     1      -9.658  14.479  66.439  1.00  0.00    -0.324 A  
HETATM   29  C   UNL     1     -10.221  15.629  65.887  1.00  0.00    -0.372 A  
HETATM   30  C   UNL     1     -11.151  15.509  64.861  1.00  0.00    -0.416 A  
HETATM   31  F   UNL     1     -11.693  16.612  64.327  1.00  0.00    -0.396 F  
HETATM   32  C   UNL     1     -11.524  14.262  64.375  1.00  0.00    -0.321 A  
ENDBRANCH  19  22
ENDBRANCH  18  19
ENDBRANCH  16  18
ENDBRANCH  15  16
ENDBRANCH   2  15
TORSDOF 6
ENDMDL
MODEL      268
REMARK 921   NORMALIZED FREE ENERGY PREDICTED BY IDOCK:   -4.38 KCAL/MOL
REMARK 922        TOTAL FREE ENERGY PREDICTED BY IDOCK:   -7.11 KCAL/MOL
REMARK 923 INTER-LIGAND FREE ENERGY PREDICTED BY IDOCK:   -6.10 KCAL/MOL
REMARK 924 INTRA-LIGAND FREE ENERGY PREDICTED BY IDOCK:   -1.00 KCAL/MOL
REMARK 927      BINDING AFFINITY PREDICTED BY RF-SCORE:    0.00 PKD
ROOT
HETATM    1  O   UNL     1      -8.063   9.203  64.775  1.00  0.00    -0.125 OA 
HETATM    2  C   UNL     1      -9.202   9.200  65.647  1.00  0.00    -0.234 C  
HETATM    3  H   UNL     1      -8.162   9.886  64.123  1.00  0.00     0.000 HD 
ENDROOT
BRANCH   2   4
HETATM    4  C   UNL     1      -9.380  10.600  66.278  1.00  0.00    -0.171 C  
HETATM    5  C   UNL     1      -7.776  14.814  68.407  1.00  0.00    -0.122 A  
HETATM    6  C   UNL     1      -6.942  13.802  68.863  1.00  0.00    -0.111 A  
HETATM    7  C   UNL     1      -9.723  11.673  65.240  1.00  0.00    -0.255 C  
HETATM    8  C   UNL     1     -10.011  12.979  65.960  1.00  0.00    -0.277 C  
HETATM    9  F   UNL     1      -7.618  16.062  68.871  1.00  0.00    -0.144 F  
HETATM   10  C   UNL     1      -7.108  12.504  68.373  1.00  0.00    -0.107 A  
HETATM   11  O   UNL     1      -8.182  10.936  67.000  1.00  0.00    -0.126 OA 
HETATM   12  C   UNL     1      -8.938  13.257  66.971  1.00  0.00    -0.230 A  
HETATM   13  C   UNL     1      -8.109  12.231  67.440  1.00  0.00    -0.175 A  
HETATM   14  C   UNL     1      -8.772  14.556  67.471  1.00  0.00    -0.195 A  
ENDBRANCH   2   4
BRANCH   2  15
HETATM   15  C   UNL     1      -9.041   8.089  66.706  1.00  0.00    -0.155 C  
BRANCH  15  16
HETATM   16  N   UNL     1      -7.630   7.870  67.070  1.00  0.00    -0.098 NA 
HETATM   17  H   UNL     1      -7.033   8.649  66.792  1.00  0.00     0.000 HD 
BRANCH  16  18
HETATM   18  C   UNL     1      -7.540   7.583  68.513  1.00  0.00    -0.114 C  
BRANCH  18  19
HETATM   19  C   UNL     1      -8.320   6.304  68.880  1.00  0.00    -0.120 C  
HETATM   20  H   UNL     1      -7.863   4.500  69.510  1.00  0.00     0.000 HD 
HETATM   21  O   UNL     1      -7.383   5.288  69.284  1.00  0.00    -0.056 OA 
BRANCH  19  22
HETATM   22  C   UNL     1      -9.342   6.536  70.018  1.00  0.00    -0.157 C  
HETATM   23  C   UNL     1     -11.296   5.664  71.272  1.00  0.00    -0.059 C  
HETATM   24  C   UNL     1     -10.397   5.431  70.071  1.00  0.00    -0.366 C  
HETATM   25  C   UNL     1     -11.742   7.095  71.306  1.00  0.00    -0.342 A  
HETATM   26  C   UNL     1     -11.046   8.086  70.601  1.00  0.00    -0.262 A  
HETATM   27  O   UNL     1      -9.949   7.830  69.818  1.00  0.00    -0.184 OA 
HETATM   28  C   UNL     1     -11.482   9.413  70.630  1.00  0.00    -0.344 A  
HETATM   29  C   UNL     1     -12.603   9.764  71.382  1.00  0.00    -0.482 A  
HETATM   30  C   UNL     1     -13.282   8.783  72.094  1.00  0.00    -0.414 A  
HETATM   31  F   UNL     1     -14.360   9.115  72.816  1.00  0.00    -0.464 F  
HETATM   32  C   UNL     1     -12.862   7.457  72.066  1.00  0.00    -0.217 A  
ENDBRANCH  19  22
ENDBRANCH  18  19
ENDBRANCH  16  18
ENDBRANCH  15  16
ENDBRANCH   2  15
TORSDOF 6
ENDMDL
MODEL      269
REMARK 921   NORMALIZED FREE ENERGY PREDICTED BY IDOCK:   -4.38 KCAL/MOL
REMARK 922        TOTAL FREE ENERGY PREDICTED BY IDOCK:   -7.11 KCAL/MOL
REMARK 923 INTER-LIGAND FREE ENERGY PREDICTED BY IDOCK:   -6.05 KCAL/MOL
REMARK 924 INTRA-LIGAND FREE ENERGY PREDICTED BY IDOCK:   -1.06 KCAL/MOL
REMARK 927      BINDING AFFINITY PREDICTED BY RF-SCORE:    0.00 PKD
ROOT
HETATM    1  O   UNL     1      -8.847   7.742  65.067  1.00  0.00    -0.382 OA 
HETATM    2  C   UNL     1      -8.184   8.203  66.253  1.00  0.00    -0.114 C  
HETATM    3  H   UNL     1      -8.892   6.793  65.076  1.00  0.00     0.000 HD 
ENDROOT
BRANCH   2   4
HETATM    4  C   UNL     1      -8.910   7.654  67.504  1.00  0.00    -0.124 C  
HETATM    5  C   UNL     1     -11.527   8.061  71.729  1.00  0.00    -0.277 A  
HETATM    6  C   UNL     1     -10.689   9.167  71.678  1.00  0.00    -0.441 A  
HETATM    7  C   UNL     1     -10.241   6.978  67.161  1.00  0.00    -0.318 C  
HETATM    8  C   UNL     1     -10.814   6.355  68.422  1.00  0.00    -0.383 C  
HETATM    9  F   UNL     1     -12.309   7.872  72.801  1.00  0.00    -0.275 F  
HETATM   10  C   UNL     1      -9.878   9.362  70.557  1.00  0.00    -0.331 A  
HETATM   11  O   UNL     1      -9.097   8.732  68.438  1.00  0.00    -0.140 OA 
HETATM   12  C   UNL     1     -10.765   7.341  69.552  1.00  0.00    -0.244 A  
HETATM   13  C   UNL     1      -9.908   8.448  69.504  1.00  0.00    -0.181 A  
HETATM   14  C   UNL     1     -11.571   7.146  70.682  1.00  0.00    -0.354 A  
ENDBRANCH   2   4
BRANCH   2  15
HETATM   15  C   UNL     1      -8.110   9.743  66.239  1.00  0.00    -0.113 C  
BRANCH  15  16
HETATM   16  N   UNL     1      -6.860  10.234  65.632  1.00  0.00    -0.127 NA 
HETATM   17  H   UNL     1      -6.961  10.417  64.634  1.00  0.00     0.000 HD 
BRANCH  16  18
HETATM   18  C   UNL     1      -6.392  11.418  66.374  1.00  0.00    -0.047 C  
BRANCH  18  19
HETATM   19  C   UNL     1      -7.057  11.509  67.763  1.00  0.00    -0.079 C  
HETATM   20  H   UNL     1      -6.441  11.723  69.615  1.00  0.00     0.000 HD 
HETATM   21  O   UNL     1      -6.031  11.667  68.760  1.00  0.00    -0.047 OA 
BRANCH  19  22
HETATM   22  C   UNL     1      -8.056  12.686  67.869  1.00  0.00    -0.165 C  
HETATM   23  C   UNL     1      -8.487  14.983  68.698  1.00  0.00    -0.168 C  
HETATM   24  C   UNL     1      -7.506  13.825  68.729  1.00  0.00    -0.098 C  
HETATM   25  C   UNL     1      -9.876  14.483  68.960  1.00  0.00    -0.142 A  
HETATM   26  C   UNL     1     -10.202  13.130  68.788  1.00  0.00    -0.097 A  
HETATM   27  O   UNL     1      -9.295  12.175  68.407  1.00  0.00    -0.203 OA 
HETATM   28  C   UNL     1     -11.497  12.676  69.049  1.00  0.00    -0.354 A  
HETATM   29  C   UNL     1     -12.482  13.573  69.463  1.00  0.00    -0.054 A  
HETATM   30  C   UNL     1     -12.161  14.916  69.617  1.00  0.00    -0.261 A  
HETATM   31  F   UNL     1     -13.104  15.780  70.016  1.00  0.00    -0.264 F  
HETATM   32  C   UNL     1     -10.874  15.379  69.368  1.00  0.00    -0.263 A  
ENDBRANCH  19  22
ENDBRANCH  18  19
ENDBRANCH  16  18
ENDBRANCH  15  16
ENDBRANCH   2  15
TORSDOF 6
ENDMDL
MODEL      270
REMARK 921   NORMALIZED FREE ENERGY PREDICTED BY IDOCK:   -4.34 KCAL/MOL
REMARK 922        TOTAL FREE ENERGY PREDICTED BY IDOCK:   -7.05 KCAL/MOL
REMARK 923 INTER-LIGAND FREE ENERGY PREDICTED BY IDOCK:   -6.34 KCAL/MOL
REMARK 924 INTRA-LIGAND FREE ENERGY PREDICTED BY IDOCK:   -0.71 KCAL/MOL
REMARK 927      BINDING AFFINITY PREDICTED BY RF-SCORE:    0.00 PKD
ROOT
HETATM    1  O   UNL     1      -8.853   7.755  65.095  1.00  0.00    -0.376 OA 
HETATM    2  C   UNL     1      -8.264   8.100  66.357  1.00  0.00    -0.108 C  
HETATM    3  H   UNL     1      -8.923   6.811  65.023  1.00  0.00     0.000 HD 
ENDROOT
BRANCH   2   4
HETATM    4  C   UNL     1      -9.090   7.476  67.506  1.00  0.00    -0.125 C  
HETATM    5  C   UNL     1     -11.981   7.625  71.567  1.00  0.00    -0.303 A  
HETATM    6  C   UNL     1     -11.111   8.703  71.665  1.00  0.00    -0.375 A  
HETATM    7  C   UNL     1     -10.413   6.876  67.021  1.00  0.00    -0.374 C  
HETATM    8  C   UNL     1     -11.089   6.172  68.184  1.00  0.00    -0.328 C  
HETATM    9  F   UNL     1     -12.841   7.377  72.565  1.00  0.00    -0.108 F  
HETATM   10  C   UNL     1     -10.219   8.961  70.621  1.00  0.00    -0.267 A  
HETATM   11  O   UNL     1      -9.311   8.480  68.513  1.00  0.00    -0.139 OA 
HETATM   12  C   UNL     1     -11.091   7.060  69.393  1.00  0.00    -0.194 A  
HETATM   13  C   UNL     1     -10.202   8.137  69.495  1.00  0.00    -0.213 A  
HETATM   14  C   UNL     1     -11.978   6.801  70.447  1.00  0.00    -0.343 A  
ENDBRANCH   2   4
BRANCH   2  15
HETATM   15  C   UNL     1      -8.151   9.634  66.474  1.00  0.00    -0.119 C  
BRANCH  15  16
HETATM   16  N   UNL     1      -6.843  10.131  66.013  1.00  0.00    -0.104 NA 
HETATM   17  H   UNL     1      -6.865  10.434  65.039  1.00  0.00     0.000 HD 
BRANCH  16  18
HETATM   18  C   UNL     1      -6.382  11.197  66.921  1.00  0.00    -0.114 C  
BRANCH  18  19
HETATM   19  C   UNL     1      -7.570  11.943  67.561  1.00  0.00    -0.140 C  
HETATM   20  H   UNL     1      -8.159  12.363  69.387  1.00  0.00     0.000 HD 
HETATM   21  O   UNL     1      -7.427  11.904  68.993  1.00  0.00    -0.093 OA 
BRANCH  19  22
HETATM   22  C   UNL     1      -7.668  13.415  67.099  1.00  0.00     0.019 C  
HETATM   23  C   UNL     1      -7.260  15.801  67.643  1.00  0.00    -0.189 C  
HETATM   24  C   UNL     1      -7.244  14.388  68.200  1.00  0.00    -0.129 C  
HETATM   25  C   UNL     1      -8.547  16.047  66.913  1.00  0.00    -0.263 A  
HETATM   26  C   UNL     1      -9.339  14.981  66.463  1.00  0.00    -0.281 A  
HETATM   27  O   UNL     1      -9.026  13.663  66.676  1.00  0.00    -0.211 OA 
HETATM   28  C   UNL     1     -10.542  15.227  65.797  1.00  0.00    -0.359 A  
HETATM   29  C   UNL     1     -10.953  16.538  65.556  1.00  0.00    -0.096 A  
HETATM   30  C   UNL     1     -10.158  17.592  65.988  1.00  0.00    -0.254 A  
HETATM   31  F   UNL     1     -10.550  18.853  65.760  1.00  0.00    -0.477 F  
HETATM   32  C   UNL     1      -8.962  17.361  66.659  1.00  0.00    -0.274 A  
ENDBRANCH  19  22
ENDBRANCH  18  19
ENDBRANCH  16  18
ENDBRANCH  15  16
ENDBRANCH   2  15
TORSDOF 6
ENDMDL
MODEL      271
REMARK 921   NORMALIZED FREE ENERGY PREDICTED BY IDOCK:   -4.34 KCAL/MOL
REMARK 922        TOTAL FREE ENERGY PREDICTED BY IDOCK:   -7.04 KCAL/MOL
REMARK 923 INTER-LIGAND FREE ENERGY PREDICTED BY IDOCK:   -5.49 KCAL/MOL
REMARK 924 INTRA-LIGAND FREE ENERGY PREDICTED BY IDOCK:   -1.55 KCAL/MOL
REMARK 927      BINDING AFFINITY PREDICTED BY RF-SCORE:    0.00 PKD
ROOT
HETATM    1  O   UNL     1      -7.810  12.104  66.695  1.00  0.00    -0.367 OA 
HETATM    2  C   UNL     1      -9.119  12.024  66.112  1.00  0.00    -0.129 C  
HETATM    3  H   UNL     1      -7.851  12.601  67.503  1.00  0.00     0.000 HD 
ENDROOT
BRANCH   2   4
HETATM    4  C   UNL     1     -10.109  11.418  67.133  1.00  0.00    -0.198 C  
HETATM    5  C   UNL     1     -11.360   9.219  71.430  1.00  0.00    -0.364 A  
HETATM    6  C   UNL     1     -10.123   8.700  71.069  1.00  0.00    -0.273 A  
HETATM    7  C   UNL     1     -10.946  12.485  67.845  1.00  0.00    -0.262 C  
HETATM    8  C   UNL     1     -11.976  11.796  68.722  1.00  0.00    -0.317 C  
HETATM    9  F   UNL     1     -11.978   8.755  72.525  1.00  0.00    -0.429 F  
HETATM   10  C   UNL     1      -9.481   9.190  69.929  1.00  0.00    -0.199 A  
HETATM   11  O   UNL     1      -9.370  10.620  68.075  1.00  0.00    -0.143 OA 
HETATM   12  C   UNL     1     -11.323  10.717  69.535  1.00  0.00    -0.355 A  
HETATM   13  C   UNL     1     -10.083  10.185  69.160  1.00  0.00    -0.213 A  
HETATM   14  C   UNL     1     -11.967  10.217  70.675  1.00  0.00    -0.436 A  
ENDBRANCH   2   4
BRANCH   2  15
HETATM   15  C   UNL     1      -9.052  11.217  64.799  1.00  0.00    -0.080 C  
BRANCH  15  16
HETATM   16  N   UNL     1      -7.679  10.785  64.481  1.00  0.00    -0.347 NA 
HETATM   17  H   UNL     1      -6.977  11.319  64.994  1.00  0.00     0.000 HD 
BRANCH  16  18
HETATM   18  C   UNL     1      -7.560   9.335  64.716  1.00  0.00    -0.109 C  
BRANCH  18  19
HETATM   19  C   UNL     1      -6.313   9.003  65.559  1.00  0.00    -0.067 C  
HETATM   20  H   UNL     1      -5.159   9.970  66.820  1.00  0.00     0.000 HD 
HETATM   21  O   UNL     1      -5.927  10.175  66.300  1.00  0.00    -0.062 OA 
BRANCH  19  22
HETATM   22  C   UNL     1      -6.554   7.834  66.544  1.00  0.00    -0.054 C  
HETATM   23  C   UNL     1      -5.945   5.531  67.232  1.00  0.00    -0.022 C  
HETATM   24  C   UNL     1      -5.744   6.594  66.167  1.00  0.00    -0.025 C  
HETATM   25  C   UNL     1      -7.407   5.379  67.533  1.00  0.00    -0.076 A  
HETATM   26  C   UNL     1      -8.321   6.388  67.201  1.00  0.00    -0.112 A  
HETATM   27  O   UNL     1      -7.970   7.549  66.563  1.00  0.00    -0.102 OA 
HETATM   28  C   UNL     1      -9.682   6.226  67.475  1.00  0.00    -0.129 A  
HETATM   29  C   UNL     1     -10.135   5.065  68.102  1.00  0.00    -0.167 A  
HETATM   30  C   UNL     1      -9.224   4.074  68.445  1.00  0.00    -0.150 A  
HETATM   31  F   UNL     1      -9.657   2.957  69.046  1.00  0.00    -0.226 F  
HETATM   32  C   UNL     1      -7.869   4.220  68.171  1.00  0.00    -0.079 A  
ENDBRANCH  19  22
ENDBRANCH  18  19
ENDBRANCH  16  18
ENDBRANCH  15  16
ENDBRANCH   2  15
TORSDOF 6
ENDMDL
MODEL      272
REMARK 921   NORMALIZED FREE ENERGY PREDICTED BY IDOCK:   -4.32 KCAL/MOL
REMARK 922        TOTAL FREE ENERGY PREDICTED BY IDOCK:   -7.02 KCAL/MOL
REMARK 923 INTER-LIGAND FREE ENERGY PREDICTED BY IDOCK:   -6.26 KCAL/MOL
REMARK 924 INTRA-LIGAND FREE ENERGY PREDICTED BY IDOCK:   -0.76 KCAL/MOL
REMARK 927      BINDING AFFINITY PREDICTED BY RF-SCORE:    0.00 PKD
ROOT
HETATM    1  O   UNL     1      -6.945  12.893  68.343  1.00  0.00    -0.080 OA 
HETATM    2  C   UNL     1      -7.602  13.438  67.190  1.00  0.00     0.048 C  
HETATM    3  H   UNL     1      -6.052  13.212  68.381  1.00  0.00     0.000 HD 
ENDROOT
BRANCH   2   4
HETATM    4  C   UNL     1      -7.524  14.982  67.226  1.00  0.00    -0.181 C  
HETATM    5  C   UNL     1      -9.438  19.582  67.431  1.00  0.00    -0.321 A  
HETATM    6  C   UNL     1     -10.335  18.816  66.696  1.00  0.00    -0.472 A  
HETATM    7  C   UNL     1      -7.022  15.514  68.572  1.00  0.00    -0.114 C  
HETATM    8  C   UNL     1      -6.850  17.019  68.471  1.00  0.00    -0.179 C  
HETATM    9  F   UNL     1      -9.667  20.892  67.594  1.00  0.00    -0.550 F  
HETATM   10  C   UNL     1     -10.095  17.450  66.532  1.00  0.00    -0.320 A  
HETATM   11  O   UNL     1      -8.821  15.517  66.904  1.00  0.00    -0.216 OA 
HETATM   12  C   UNL     1      -8.067  17.637  67.850  1.00  0.00    -0.233 A  
HETATM   13  C   UNL     1      -8.961  16.865  67.097  1.00  0.00    -0.206 A  
HETATM   14  C   UNL     1      -8.309  19.010  68.005  1.00  0.00    -0.335 A  
ENDBRANCH   2   4
BRANCH   2  15
HETATM   15  C   UNL     1      -9.054  12.919  67.128  1.00  0.00    -0.220 C  
BRANCH  15  16
HETATM   16  N   UNL     1      -9.449  12.536  65.761  1.00  0.00    -0.437 NA 
HETATM   17  H   UNL     1      -8.744  11.959  65.302  1.00  0.00     0.000 HD 
BRANCH  16  18
HETATM   18  C   UNL     1     -10.768  11.881  65.803  1.00  0.00    -0.284 C  
BRANCH  18  19
HETATM   19  C   UNL     1     -10.719  10.477  65.166  1.00  0.00     0.073 C  
HETATM   20  H   UNL     1     -10.245   9.736  63.410  1.00  0.00     0.000 HD 
HETATM   21  O   UNL     1     -10.275  10.601  63.802  1.00  0.00    -0.320 OA 
BRANCH  19  22
HETATM   22  C   UNL     1      -9.776   9.512  65.923  1.00  0.00    -0.282 C  
HETATM   23  C   UNL     1      -7.735   8.105  65.844  1.00  0.00    -0.091 C  
HETATM   24  C   UNL     1      -8.682   8.953  65.013  1.00  0.00    -0.200 C  
HETATM   25  C   UNL     1      -8.519   7.157  66.702  1.00  0.00    -0.121 A  
HETATM   26  C   UNL     1      -9.872   7.389  66.985  1.00  0.00    -0.209 A  
HETATM   27  O   UNL     1     -10.579   8.453  66.488  1.00  0.00    -0.204 OA 
HETATM   28  C   UNL     1     -10.593   6.489  67.776  1.00  0.00    -0.321 A  
HETATM   29  C   UNL     1      -9.961   5.365  68.307  1.00  0.00    -0.212 A  
HETATM   30  C   UNL     1      -8.616   5.147  68.040  1.00  0.00    -0.103 A  
HETATM   31  F   UNL     1      -8.006   4.067  68.546  1.00  0.00    -0.070 F  
HETATM   32  C   UNL     1      -7.890   6.030  67.248  1.00  0.00    -0.102 A  
ENDBRANCH  19  22
ENDBRANCH  18  19
ENDBRANCH  16  18
ENDBRANCH  15  16
ENDBRANCH   2  15
TORSDOF 6
ENDMDL
MODEL      273
REMARK 921   NORMALIZED FREE ENERGY PREDICTED BY IDOCK:   -4.27 KCAL/MOL
REMARK 922        TOTAL FREE ENERGY PREDICTED BY IDOCK:   -6.95 KCAL/MOL
REMARK 923 INTER-LIGAND FREE ENERGY PREDICTED BY IDOCK:   -5.90 KCAL/MOL
REMARK 924 INTRA-LIGAND FREE ENERGY PREDICTED BY IDOCK:   -1.05 KCAL/MOL
REMARK 927      BINDING AFFINITY PREDICTED BY RF-SCORE:    0.00 PKD
ROOT
HETATM    1  O   UNL     1     -11.664  15.847  71.171  1.00  0.00    -0.376 OA 
HETATM    2  C   UNL     1     -12.364  15.691  69.928  1.00  0.00    -0.234 C  
HETATM    3  H   UNL     1     -12.064  15.298  71.834  1.00  0.00     0.000 HD 
ENDROOT
BRANCH   2   4
HETATM    4  C   UNL     1     -12.387  14.197  69.527  1.00  0.00    -0.231 C  
HETATM    5  C   UNL     1     -11.141  10.272  66.716  1.00  0.00     0.099 A  
HETATM    6  C   UNL     1     -11.221  11.360  65.857  1.00  0.00    -0.172 A  
HETATM    7  C   UNL     1     -11.578  13.318  70.486  1.00  0.00     0.104 C  
HETATM    8  C   UNL     1     -11.767  11.863  70.096  1.00  0.00    -0.337 C  
HETATM    9  F   UNL     1     -10.882   9.055  66.218  1.00  0.00    -0.141 F  
HETATM   10  C   UNL     1     -11.487  12.628  66.380  1.00  0.00    -0.409 A  
HETATM   11  O   UNL     1     -11.907  14.075  68.176  1.00  0.00    -0.338 OA 
HETATM   12  C   UNL     1     -11.577  11.697  68.618  1.00  0.00    -0.373 A  
HETATM   13  C   UNL     1     -11.675  12.794  67.752  1.00  0.00    -0.359 A  
HETATM   14  C   UNL     1     -11.319  10.426  68.087  1.00  0.00    -0.284 A  
ENDBRANCH   2   4
BRANCH   2  15
HETATM   15  C   UNL     1     -11.714  16.583  68.852  1.00  0.00     0.079 C  
BRANCH  15  16
HETATM   16  N   UNL     1     -10.573  17.351  69.381  1.00  0.00    -0.361 NA 
HETATM   17  H   UNL     1      -9.745  16.771  69.515  1.00  0.00     0.000 HD 
BRANCH  16  18
HETATM   18  C   UNL     1     -10.314  18.504  68.500  1.00  0.00    -0.277 C  
BRANCH  18  19
HETATM   19  C   UNL     1      -8.863  18.498  67.980  1.00  0.00    -0.298 C  
HETATM   20  H   UNL     1      -7.099  18.972  68.702  1.00  0.00     0.000 HD 
HETATM   21  O   UNL     1      -7.993  18.976  69.023  1.00  0.00    -0.306 OA 
BRANCH  19  22
HETATM   22  C   UNL     1      -8.396  17.093  67.531  1.00  0.00    -0.190 C  
HETATM   23  C   UNL     1      -8.959  14.996  66.331  1.00  0.00    -0.286 C  
HETATM   24  C   UNL     1      -9.516  16.314  66.839  1.00  0.00    -0.245 C  
HETATM   25  C   UNL     1      -8.171  14.324  67.416  1.00  0.00    -0.217 A  
HETATM   26  C   UNL     1      -7.685  15.049  68.512  1.00  0.00    -0.121 A  
HETATM   27  O   UNL     1      -7.911  16.389  68.694  1.00  0.00    -0.195 OA 
HETATM   28  C   UNL     1      -6.964  14.406  69.522  1.00  0.00    -0.119 A  
HETATM   29  C   UNL     1      -6.704  13.039  69.432  1.00  0.00    -0.018 A  
HETATM   30  C   UNL     1      -7.172  12.325  68.336  1.00  0.00    -0.102 A  
HETATM   31  F   UNL     1      -6.926  11.011  68.247  1.00  0.00    -0.064 F  
HETATM   32  C   UNL     1      -7.897  12.952  67.329  1.00  0.00    -0.134 A  
ENDBRANCH  19  22
ENDBRANCH  18  19
ENDBRANCH  16  18
ENDBRANCH  15  16
ENDBRANCH   2  15
TORSDOF 6
ENDMDL
MODEL      274
REMARK 921   NORMALIZED FREE ENERGY PREDICTED BY IDOCK:   -4.25 KCAL/MOL
REMARK 922        TOTAL FREE ENERGY PREDICTED BY IDOCK:   -6.93 KCAL/MOL
REMARK 923 INTER-LIGAND FREE ENERGY PREDICTED BY IDOCK:   -6.55 KCAL/MOL
REMARK 924 INTRA-LIGAND FREE ENERGY PREDICTED BY IDOCK:   -0.38 KCAL/MOL
REMARK 927      BINDING AFFINITY PREDICTED BY RF-SCORE:    0.00 PKD
ROOT
HETATM    1  O   UNL     1      -8.175  10.806  65.529  1.00  0.00    -0.202 OA 
HETATM    2  C   UNL     1      -7.440  11.074  66.732  1.00  0.00    -0.139 C  
HETATM    3  H   UNL     1      -7.855  10.005  65.132  1.00  0.00     0.000 HD 
ENDROOT
BRANCH   2   4
HETATM    4  C   UNL     1      -7.535   9.859  67.683  1.00  0.00    -0.090 C  
HETATM    5  C   UNL     1      -7.233   5.020  68.849  1.00  0.00    -0.057 A  
HETATM    6  C   UNL     1      -7.686   5.080  67.538  1.00  0.00    -0.091 A  
HETATM    7  C   UNL     1      -6.381   9.809  68.690  1.00  0.00    -0.046 C  
HETATM    8  C   UNL     1      -6.627   8.670  69.663  1.00  0.00    -0.039 C  
HETATM    9  F   UNL     1      -7.118   3.830  69.455  1.00  0.00    -0.043 F  
HETATM   10  C   UNL     1      -7.801   6.322  66.909  1.00  0.00    -0.104 A  
HETATM   11  O   UNL     1      -7.590   8.657  66.894  1.00  0.00    -0.083 OA 
HETATM   12  C   UNL     1      -6.997   7.424  68.915  1.00  0.00    -0.078 A  
HETATM   13  C   UNL     1      -7.469   7.489  67.597  1.00  0.00    -0.104 A  
HETATM   14  C   UNL     1      -6.892   6.175  69.544  1.00  0.00    -0.065 A  
ENDBRANCH   2   4
BRANCH   2  15
HETATM   15  C   UNL     1      -7.960  12.375  67.377  1.00  0.00    -0.178 C  
BRANCH  15  16
HETATM   16  N   UNL     1      -9.336  12.230  67.886  1.00  0.00    -0.184 NA 
HETATM   17  H   UNL     1      -9.461  12.673  68.796  1.00  0.00     0.000 HD 
BRANCH  16  18
HETATM   18  C   UNL     1     -10.282  12.744  66.879  1.00  0.00    -0.236 C  
BRANCH  18  19
HETATM   19  C   UNL     1     -11.744  12.520  67.315  1.00  0.00    -0.362 C  
HETATM   20  H   UNL     1     -12.768  11.058  68.134  1.00  0.00     0.000 HD 
HETATM   21  O   UNL     1     -11.867  11.195  67.865  1.00  0.00    -0.601 OA 
BRANCH  19  22
HETATM   22  C   UNL     1     -12.217  13.554  68.363  1.00  0.00    -0.115 C  
HETATM   23  C   UNL     1     -11.878  15.787  69.388  1.00  0.00    -0.361 C  
HETATM   24  C   UNL     1     -11.294  14.771  68.422  1.00  0.00    -0.317 C  
HETATM   25  C   UNL     1     -12.266  15.109  70.669  1.00  0.00    -0.401 A  
HETATM   26  C   UNL     1     -12.463  13.722  70.721  1.00  0.00    -0.370 A  
HETATM   27  O   UNL     1     -12.291  12.891  69.644  1.00  0.00    -0.173 OA 
HETATM   28  C   UNL     1     -12.811  13.103  71.924  1.00  0.00    -0.328 A  
HETATM   29  C   UNL     1     -12.986  13.866  73.078  1.00  0.00    -0.214 A  
HETATM   30  C   UNL     1     -12.807  15.243  73.020  1.00  0.00    -0.469 A  
HETATM   31  F   UNL     1     -12.972  15.979  74.127  1.00  0.00    -0.572 F  
HETATM   32  C   UNL     1     -12.452  15.870  71.830  1.00  0.00    -0.524 A  
ENDBRANCH  19  22
ENDBRANCH  18  19
ENDBRANCH  16  18
ENDBRANCH  15  16
ENDBRANCH   2  15
TORSDOF 6
ENDMDL
MODEL      275
REMARK 921   NORMALIZED FREE ENERGY PREDICTED BY IDOCK:   -4.25 KCAL/MOL
REMARK 922        TOTAL FREE ENERGY PREDICTED BY IDOCK:   -6.92 KCAL/MOL
REMARK 923 INTER-LIGAND FREE ENERGY PREDICTED BY IDOCK:   -5.94 KCAL/MOL
REMARK 924 INTRA-LIGAND FREE ENERGY PREDICTED BY IDOCK:   -0.98 KCAL/MOL
REMARK 927      BINDING AFFINITY PREDICTED BY RF-SCORE:    0.00 PKD
ROOT
HETATM    1  O   UNL     1      -6.162   8.587  65.873  1.00  0.00    -0.051 OA 
HETATM    2  C   UNL     1      -7.512   8.972  65.575  1.00  0.00    -0.086 C  
HETATM    3  H   UNL     1      -5.559   9.168  65.425  1.00  0.00     0.000 HD 
ENDROOT
BRANCH   2   4
HETATM    4  C   UNL     1      -7.726  10.456  65.953  1.00  0.00    -0.145 C  
HETATM    5  C   UNL     1     -10.431  14.385  67.405  1.00  0.00    -0.261 A  
HETATM    6  C   UNL     1     -11.266  13.604  66.618  1.00  0.00    -0.324 A  
HETATM    7  C   UNL     1      -7.135  10.806  67.322  1.00  0.00    -0.091 C  
HETATM    8  C   UNL     1      -7.271  12.301  67.549  1.00  0.00    -0.139 C  
HETATM    9  F   UNL     1     -10.878  15.554  67.886  1.00  0.00    -0.270 F  
HETATM   10  C   UNL     1     -10.797  12.385  66.122  1.00  0.00    -0.308 A  
HETATM   11  O   UNL     1      -9.135  10.746  65.903  1.00  0.00    -0.175 OA 
HETATM   12  C   UNL     1      -8.665  12.747  67.220  1.00  0.00    -0.200 A  
HETATM   13  C   UNL     1      -9.499  11.964  66.412  1.00  0.00    -0.228 A  
HETATM   14  C   UNL     1      -9.138  13.973  67.709  1.00  0.00    -0.192 A  
ENDBRANCH   2   4
BRANCH   2  15
HETATM   15  C   UNL     1      -8.492   8.028  66.302  1.00  0.00    -0.133 C  
BRANCH  15  16
HETATM   16  N   UNL     1      -8.054   6.622  66.245  1.00  0.00    -0.111 NA 
HETATM   17  H   UNL     1      -7.502   6.422  65.411  1.00  0.00     0.000 HD 
BRANCH  16  18
HETATM   18  C   UNL     1      -7.332   6.289  67.487  1.00  0.00    -0.080 C  
BRANCH  18  19
HETATM   19  C   UNL     1      -8.137   5.304  68.357  1.00  0.00    -0.091 C  
HETATM   20  H   UNL     1      -7.714   3.848  69.607  1.00  0.00     0.000 HD 
HETATM   21  O   UNL     1      -7.218   4.456  69.071  1.00  0.00    -0.051 OA 
BRANCH  19  22
HETATM   22  C   UNL     1      -9.060   6.021  69.371  1.00  0.00    -0.133 C  
HETATM   23  C   UNL     1     -11.310   6.158  70.404  1.00  0.00    -0.399 C  
HETATM   24  C   UNL     1     -10.492   5.489  69.314  1.00  0.00    -0.336 C  
HETATM   25  C   UNL     1     -11.086   7.640  70.374  1.00  0.00    -0.270 A  
HETATM   26  C   UNL     1      -9.960   8.188  69.744  1.00  0.00    -0.191 A  
HETATM   27  O   UNL     1      -9.016   7.437  69.092  1.00  0.00    -0.136 OA 
HETATM   28  C   UNL     1      -9.771   9.572  69.713  1.00  0.00    -0.234 A  
HETATM   29  C   UNL     1     -10.693  10.417  70.330  1.00  0.00    -0.249 A  
HETATM   30  C   UNL     1     -11.799   9.871  70.969  1.00  0.00    -0.376 A  
HETATM   31  F   UNL     1     -12.688  10.680  71.562  1.00  0.00    -0.421 F  
HETATM   32  C   UNL     1     -12.002   8.496  71.001  1.00  0.00    -0.260 A  
ENDBRANCH  19  22
ENDBRANCH  18  19
ENDBRANCH  16  18
ENDBRANCH  15  16
ENDBRANCH   2  15
TORSDOF 6
ENDMDL
MODEL      276
REMARK 921   NORMALIZED FREE ENERGY PREDICTED BY IDOCK:   -4.25 KCAL/MOL
REMARK 922        TOTAL FREE ENERGY PREDICTED BY IDOCK:   -6.92 KCAL/MOL
REMARK 923 INTER-LIGAND FREE ENERGY PREDICTED BY IDOCK:   -6.46 KCAL/MOL
REMARK 924 INTRA-LIGAND FREE ENERGY PREDICTED BY IDOCK:   -0.46 KCAL/MOL
REMARK 927      BINDING AFFINITY PREDICTED BY RF-SCORE:    0.00 PKD
ROOT
HETATM    1  O   UNL     1     -11.182   6.974  68.106  1.00  0.00    -0.500 OA 
HETATM    2  C   UNL     1      -9.757   7.128  68.175  1.00  0.00    -0.139 C  
HETATM    3  H   UNL     1     -11.421   6.098  68.383  1.00  0.00     0.000 HD 
ENDROOT
BRANCH   2   4
HETATM    4  C   UNL     1      -9.265   6.801  69.604  1.00  0.00    -0.145 C  
HETATM    5  C   UNL     1      -7.967   3.750  73.329  1.00  0.00    -0.083 A  
HETATM    6  C   UNL     1      -8.995   3.117  72.643  1.00  0.00    -0.112 A  
HETATM    7  C   UNL     1      -7.772   7.088  69.792  1.00  0.00    -0.109 C  
HETATM    8  C   UNL     1      -7.410   6.868  71.250  1.00  0.00    -0.081 C  
HETATM    9  F   UNL     1      -7.459   3.182  74.432  1.00  0.00    -0.047 F  
HETATM   10  C   UNL     1      -9.518   3.710  71.492  1.00  0.00    -0.220 A  
HETATM   11  O   UNL     1      -9.573   5.425  69.894  1.00  0.00    -0.149 OA 
HETATM   12  C   UNL     1      -7.967   5.560  71.728  1.00  0.00    -0.114 A  
HETATM   13  C   UNL     1      -9.015   4.931  71.043  1.00  0.00    -0.134 A  
HETATM   14  C   UNL     1      -7.451   4.964  72.887  1.00  0.00    -0.091 A  
ENDBRANCH   2   4
BRANCH   2  15
HETATM   15  C   UNL     1      -9.368   8.552  67.726  1.00  0.00    -0.137 C  
BRANCH  15  16
HETATM   16  N   UNL     1     -10.456   9.521  67.949  1.00  0.00    -0.228 NA 
HETATM   17  H   UNL     1     -10.471   9.872  68.907  1.00  0.00     0.000 HD 
BRANCH  16  18
HETATM   18  C   UNL     1     -10.350  10.605  66.956  1.00  0.00    -0.231 C  
BRANCH  18  19
HETATM   19  C   UNL     1     -11.622  11.476  66.938  1.00  0.00    -0.085 C  
HETATM   20  H   UNL     1     -12.995  12.003  68.240  1.00  0.00     0.000 HD 
HETATM   21  O   UNL     1     -12.212  11.466  68.252  1.00  0.00    -0.588 OA 
BRANCH  19  22
HETATM   22  C   UNL     1     -11.337  12.938  66.519  1.00  0.00    -0.318 C  
HETATM   23  C   UNL     1      -9.834  14.506  65.323  1.00  0.00    -0.221 C  
HETATM   24  C   UNL     1      -9.995  13.074  65.799  1.00  0.00    -0.260 C  
HETATM   25  C   UNL     1     -10.156  15.454  66.439  1.00  0.00    -0.292 A  
HETATM   26  C   UNL     1     -10.913  15.039  67.544  1.00  0.00    -0.307 A  
HETATM   27  O   UNL     1     -11.380  13.760  67.705  1.00  0.00    -0.279 OA 
HETATM   28  C   UNL     1     -11.194  15.930  68.583  1.00  0.00    -0.360 A  
HETATM   29  C   UNL     1     -10.741  17.248  68.516  1.00  0.00    -0.305 A  
HETATM   30  C   UNL     1     -10.006  17.661  67.412  1.00  0.00    -0.321 A  
HETATM   31  F   UNL     1      -9.566  18.925  67.345  1.00  0.00    -0.299 F  
HETATM   32  C   UNL     1      -9.712  16.782  66.375  1.00  0.00    -0.309 A  
ENDBRANCH  19  22
ENDBRANCH  18  19
ENDBRANCH  16  18
ENDBRANCH  15  16
ENDBRANCH   2  15
TORSDOF 6
ENDMDL
MODEL      277
REMARK 921   NORMALIZED FREE ENERGY PREDICTED BY IDOCK:   -4.23 KCAL/MOL
REMARK 922        TOTAL FREE ENERGY PREDICTED BY IDOCK:   -6.90 KCAL/MOL
REMARK 923 INTER-LIGAND FREE ENERGY PREDICTED BY IDOCK:   -5.93 KCAL/MOL
REMARK 924 INTRA-LIGAND FREE ENERGY PREDICTED BY IDOCK:   -0.97 KCAL/MOL
REMARK 927      BINDING AFFINITY PREDICTED BY RF-SCORE:    0.00 PKD
ROOT
HETATM    1  O   UNL     1     -12.326  10.618  68.659  1.00  0.00    -0.820 OA 
HETATM    2  C   UNL     1     -11.110   9.858  68.649  1.00  0.00    -0.134 C  
HETATM    3  H   UNL     1     -13.071  10.030  68.636  1.00  0.00     0.000 HD 
ENDROOT
BRANCH   2   4
HETATM    4  C   UNL     1     -11.112   8.856  69.827  1.00  0.00    -0.089 C  
HETATM    5  C   UNL     1      -9.319   5.045  72.496  1.00  0.00    -0.132 A  
HETATM    6  C   UNL     1      -9.042   4.757  71.166  1.00  0.00    -0.180 A  
HETATM    7  C   UNL     1     -10.717   9.509  71.155  1.00  0.00    -0.408 C  
HETATM    8  C   UNL     1     -10.876   8.491  72.270  1.00  0.00    -0.418 C  
HETATM    9  F   UNL     1      -9.003   4.152  73.446  1.00  0.00    -0.102 F  
HETATM   10  C   UNL     1      -9.369   5.691  70.180  1.00  0.00    -0.188 A  
HETATM   11  O   UNL     1     -10.235   7.761  69.503  1.00  0.00    -0.197 OA 
HETATM   12  C   UNL     1     -10.236   7.192  71.877  1.00  0.00    -0.208 A  
HETATM   13  C   UNL     1      -9.973   6.898  70.533  1.00  0.00    -0.183 A  
HETATM   14  C   UNL     1      -9.914   6.248  72.861  1.00  0.00    -0.181 A  
ENDBRANCH   2   4
BRANCH   2  15
HETATM   15  C   UNL     1      -9.901  10.814  68.686  1.00  0.00    -0.184 C  
BRANCH  15  16
HETATM   16  N   UNL     1      -8.667  10.168  68.205  1.00  0.00    -0.121 NA 
HETATM   17  H   UNL     1      -8.690   9.988  67.201  1.00  0.00     0.000 HD 
BRANCH  16  18
HETATM   18  C   UNL     1      -7.506  10.985  68.601  1.00  0.00    -0.112 C  
BRANCH  18  19
HETATM   19  C   UNL     1      -6.765  11.543  67.368  1.00  0.00    -0.101 C  
HETATM   20  H   UNL     1      -6.872  11.297  65.422  1.00  0.00     0.000 HD 
HETATM   21  O   UNL     1      -7.328  10.953  66.181  1.00  0.00    -0.140 OA 
BRANCH  19  22
HETATM   22  C   UNL     1      -6.858  13.084  67.265  1.00  0.00    -0.026 C  
HETATM   23  C   UNL     1      -5.846  15.275  67.835  1.00  0.00    -0.161 C  
HETATM   24  C   UNL     1      -5.760  13.777  68.071  1.00  0.00    -0.132 C  
HETATM   25  C   UNL     1      -7.264  15.736  67.996  1.00  0.00    -0.141 A  
HETATM   26  C   UNL     1      -8.332  14.832  67.913  1.00  0.00    -0.149 A  
HETATM   27  O   UNL     1      -8.170  13.485  67.715  1.00  0.00    -0.147 OA 
HETATM   28  C   UNL     1      -9.647  15.274  68.077  1.00  0.00    -0.203 A  
HETATM   29  C   UNL     1      -9.906  16.626  68.305  1.00  0.00    -0.253 A  
HETATM   30  C   UNL     1      -8.847  17.523  68.370  1.00  0.00    -0.276 A  
HETATM   31  F   UNL     1      -9.092  18.821  68.591  1.00  0.00    -0.332 F  
HETATM   32  C   UNL     1      -7.533  17.093  68.215  1.00  0.00    -0.217 A  
ENDBRANCH  19  22
ENDBRANCH  18  19
ENDBRANCH  16  18
ENDBRANCH  15  16
ENDBRANCH   2  15
TORSDOF 6
ENDMDL
MODEL      278
REMARK 921   NORMALIZED FREE ENERGY PREDICTED BY IDOCK:   -4.23 KCAL/MOL
REMARK 922        TOTAL FREE ENERGY PREDICTED BY IDOCK:   -6.89 KCAL/MOL
REMARK 923 INTER-LIGAND FREE ENERGY PREDICTED BY IDOCK:   -3.75 KCAL/MOL
REMARK 924 INTRA-LIGAND FREE ENERGY PREDICTED BY IDOCK:   -3.15 KCAL/MOL
REMARK 927      BINDING AFFINITY PREDICTED BY RF-SCORE:    0.00 PKD
ROOT
HETATM    1  O   UNL     1     -10.947   6.542  71.458  1.00  0.00    -0.238 OA 
HETATM    2  C   UNL     1     -10.974   7.963  71.265  1.00  0.00    -0.238 C  
HETATM    3  H   UNL     1     -11.645   6.138  70.956  1.00  0.00     0.000 HD 
ENDROOT
BRANCH   2   4
HETATM    4  C   UNL     1     -10.886   8.287  69.756  1.00  0.00    -0.185 C  
HETATM    5  C   UNL     1      -8.636   9.982  65.641  1.00  0.00    -0.155 A  
HETATM    6  C   UNL     1      -8.199  10.785  66.686  1.00  0.00    -0.140 A  
HETATM    7  C   UNL     1     -10.735   7.031  68.893  1.00  0.00    -0.227 C  
HETATM    8  C   UNL     1     -10.792   7.431  67.429  1.00  0.00    -0.299 C  
HETATM    9  F   UNL     1      -8.239  10.251  64.389  1.00  0.00    -0.153 F  
HETATM   10  C   UNL     1      -8.612  10.498  67.990  1.00  0.00    -0.121 A  
HETATM   11  O   UNL     1      -9.794   9.200  69.544  1.00  0.00    -0.168 OA 
HETATM   12  C   UNL     1      -9.887   8.601  67.179  1.00  0.00    -0.269 A  
HETATM   13  C   UNL     1      -9.461   9.419  68.234  1.00  0.00    -0.137 A  
HETATM   14  C   UNL     1      -9.476   8.898  65.872  1.00  0.00    -0.303 A  
ENDBRANCH   2   4
BRANCH   2  15
HETATM   15  C   UNL     1      -9.839   8.617  72.079  1.00  0.00    -0.325 C  
BRANCH  15  16
HETATM   16  N   UNL     1      -8.653   7.749  72.176  1.00  0.00    -0.121 NA 
HETATM   17  H   UNL     1      -8.681   6.979  71.507  1.00  0.00     0.000 HD 
BRANCH  16  18
HETATM   18  C   UNL     1      -7.438   8.570  72.033  1.00  0.00    -0.084 C  
BRANCH  18  19
HETATM   19  C   UNL     1      -6.354   7.835  71.219  1.00  0.00    -0.034 C  
HETATM   20  H   UNL     1      -5.400   6.123  71.355  1.00  0.00     0.000 HD 
HETATM   21  O   UNL     1      -6.067   6.576  71.857  1.00  0.00    -0.037 OA 
BRANCH  19  22
HETATM   22  C   UNL     1      -6.782   7.578  69.755  1.00  0.00    -0.043 C  
HETATM   23  C   UNL     1      -7.403   5.908  68.029  1.00  0.00    -0.080 C  
HETATM   24  C   UNL     1      -6.875   6.084  69.442  1.00  0.00    -0.062 C  
HETATM   25  C   UNL     1      -6.649   6.800  67.088  1.00  0.00    -0.047 A  
HETATM   26  C   UNL     1      -5.929   7.906  67.561  1.00  0.00    -0.046 A  
HETATM   27  O   UNL     1      -5.832   8.235  68.889  1.00  0.00    -0.040 OA 
HETATM   28  C   UNL     1      -5.220   8.720  66.674  1.00  0.00    -0.035 A  
HETATM   29  C   UNL     1      -5.243   8.449  65.306  1.00  0.00    -0.035 A  
HETATM   30  C   UNL     1      -5.971   7.362  64.838  1.00  0.00    -0.038 A  
HETATM   31  F   UNL     1      -5.993   7.097  63.524  1.00  0.00    -0.040 F  
HETATM   32  C   UNL     1      -6.674   6.540  65.711  1.00  0.00    -0.048 A  
ENDBRANCH  19  22
ENDBRANCH  18  19
ENDBRANCH  16  18
ENDBRANCH  15  16
ENDBRANCH   2  15
TORSDOF 6
ENDMDL
MODEL      279
REMARK 921   NORMALIZED FREE ENERGY PREDICTED BY IDOCK:   -4.22 KCAL/MOL
REMARK 922        TOTAL FREE ENERGY PREDICTED BY IDOCK:   -6.89 KCAL/MOL
REMARK 923 INTER-LIGAND FREE ENERGY PREDICTED BY IDOCK:   -6.16 KCAL/MOL
REMARK 924 INTRA-LIGAND FREE ENERGY PREDICTED BY IDOCK:   -0.73 KCAL/MOL
REMARK 927      BINDING AFFINITY PREDICTED BY RF-SCORE:    0.00 PKD
ROOT
HETATM    1  O   UNL     1      -6.301  12.658  68.597  1.00  0.00    -0.065 OA 
HETATM    2  C   UNL     1      -7.003  11.627  67.889  1.00  0.00    -0.080 C  
HETATM    3  H   UNL     1      -6.017  13.328  67.986  1.00  0.00     0.000 HD 
ENDROOT
BRANCH   2   4
HETATM    4  C   UNL     1      -8.179  12.246  67.097  1.00  0.00    -0.179 C  
HETATM    5  C   UNL     1     -12.017  12.132  63.916  1.00  0.00    -0.486 A  
HETATM    6  C   UNL     1     -11.080  11.228  63.433  1.00  0.00    -0.187 A  
HETATM    7  C   UNL     1      -9.385  12.561  67.987  1.00  0.00    -0.205 C  
HETATM    8  C   UNL     1     -10.432  13.284  67.158  1.00  0.00    -0.248 C  
HETATM    9  F   UNL     1     -13.138  12.359  63.217  1.00  0.00    -0.404 F  
HETATM   10  C   UNL     1      -9.915  10.991  64.166  1.00  0.00    -0.385 A  
HETATM   11  O   UNL     1      -8.538  11.350  66.030  1.00  0.00    -0.169 OA 
HETATM   12  C   UNL     1     -10.650  12.563  65.861  1.00  0.00    -0.292 A  
HETATM   13  C   UNL     1      -9.696  11.663  65.369  1.00  0.00    -0.229 A  
HETATM   14  C   UNL     1     -11.814  12.803  65.117  1.00  0.00    -0.428 A  
ENDBRANCH   2   4
BRANCH   2  15
HETATM   15  C   UNL     1      -7.464  10.540  68.881  1.00  0.00    -0.104 C  
BRANCH  15  16
HETATM   16  N   UNL     1      -7.755   9.261  68.208  1.00  0.00    -0.087 NA 
HETATM   17  H   UNL     1      -7.003   8.975  67.581  1.00  0.00     0.000 HD 
BRANCH  16  18
HETATM   18  C   UNL     1      -8.057   8.237  69.224  1.00  0.00    -0.116 C  
BRANCH  18  19
HETATM   19  C   UNL     1      -8.346   6.869  68.574  1.00  0.00    -0.121 C  
HETATM   20  H   UNL     1      -7.437   5.693  67.289  1.00  0.00     0.000 HD 
HETATM   21  O   UNL     1      -7.259   6.536  67.689  1.00  0.00    -0.085 OA 
BRANCH  19  22
HETATM   22  C   UNL     1      -8.518   5.739  69.615  1.00  0.00    -0.112 C  
HETATM   23  C   UNL     1      -9.078   3.359  70.034  1.00  0.00    -0.199 C  
HETATM   24  C   UNL     1      -9.037   4.449  68.978  1.00  0.00    -0.180 C  
HETATM   25  C   UNL     1      -9.745   3.874  71.275  1.00  0.00    -0.247 A  
HETATM   26  C   UNL     1      -9.860   5.250  71.515  1.00  0.00    -0.172 A  
HETATM   27  O   UNL     1      -9.414   6.211  70.645  1.00  0.00    -0.166 OA 
HETATM   28  C   UNL     1     -10.496   5.715  72.669  1.00  0.00    -0.249 A  
HETATM   29  C   UNL     1     -11.001   4.809  73.602  1.00  0.00    -0.391 A  
HETATM   30  C   UNL     1     -10.871   3.446  73.369  1.00  0.00    -0.214 A  
HETATM   31  F   UNL     1     -11.357   2.573  74.262  1.00  0.00    -0.189 F  
HETATM   32  C   UNL     1     -10.247   2.971  72.221  1.00  0.00    -0.176 A  
ENDBRANCH  19  22
ENDBRANCH  18  19
ENDBRANCH  16  18
ENDBRANCH  15  16
ENDBRANCH   2  15
TORSDOF 6
ENDMDL
MODEL      280
REMARK 921   NORMALIZED FREE ENERGY PREDICTED BY IDOCK:   -4.22 KCAL/MOL
REMARK 922        TOTAL FREE ENERGY PREDICTED BY IDOCK:   -6.88 KCAL/MOL
REMARK 923 INTER-LIGAND FREE ENERGY PREDICTED BY IDOCK:   -6.42 KCAL/MOL
REMARK 924 INTRA-LIGAND FREE ENERGY PREDICTED BY IDOCK:   -0.46 KCAL/MOL
REMARK 927      BINDING AFFINITY PREDICTED BY RF-SCORE:    0.00 PKD
ROOT
HETATM    1  O   UNL     1      -7.731  13.376  68.373  1.00  0.00    -0.127 OA 
HETATM    2  C   UNL     1      -8.826  13.129  67.480  1.00  0.00    -0.199 C  
HETATM    3  H   UNL     1      -7.172  14.053  68.013  1.00  0.00     0.000 HD 
ENDROOT
BRANCH   2   4
HETATM    4  C   UNL     1      -9.587  14.448  67.211  1.00  0.00    -0.227 C  
HETATM    5  C   UNL     1     -10.054  19.407  66.969  1.00  0.00    -0.387 A  
HETATM    6  C   UNL     1      -9.208  19.144  68.038  1.00  0.00    -0.364 A  
HETATM    7  C   UNL     1      -9.798  14.711  65.716  1.00  0.00    -0.359 C  
HETATM    8  C   UNL     1     -10.665  15.947  65.552  1.00  0.00    -0.386 C  
HETATM    9  F   UNL     1     -10.413  20.671  66.705  1.00  0.00    -0.440 F  
HETATM   10  C   UNL     1      -8.833  17.825  68.307  1.00  0.00    -0.277 A  
HETATM   11  O   UNL     1      -8.872  15.529  67.835  1.00  0.00    -0.169 OA 
HETATM   12  C   UNL     1     -10.151  17.055  66.423  1.00  0.00    -0.325 A  
HETATM   13  C   UNL     1      -9.311  16.785  67.511  1.00  0.00    -0.231 A  
HETATM   14  C   UNL     1     -10.531  18.379  66.163  1.00  0.00    -0.422 A  
ENDBRANCH   2   4
BRANCH   2  15
HETATM   15  C   UNL     1      -9.735  12.029  68.066  1.00  0.00    -0.198 C  
BRANCH  15  16
HETATM   16  N   UNL     1     -10.038  10.976  67.081  1.00  0.00    -0.188 NA 
HETATM   17  H   UNL     1      -9.202  10.646  66.598  1.00  0.00     0.000 HD 
BRANCH  16  18
HETATM   18  C   UNL     1     -10.767   9.883  67.749  1.00  0.00    -0.277 C  
BRANCH  18  19
HETATM   19  C   UNL     1     -10.511   8.530  67.054  1.00  0.00    -0.292 C  
HETATM   20  H   UNL     1      -9.365   7.882  65.596  1.00  0.00     0.000 HD 
HETATM   21  O   UNL     1      -9.522   8.715  66.024  1.00  0.00    -0.225 OA 
BRANCH  19  22
HETATM   22  C   UNL     1     -10.026   7.438  68.036  1.00  0.00    -0.164 C  
HETATM   23  C   UNL     1      -8.288   6.711  69.650  1.00  0.00    -0.132 C  
HETATM   24  C   UNL     1      -8.650   7.765  68.618  1.00  0.00    -0.129 C  
HETATM   25  C   UNL     1      -8.531   5.342  69.088  1.00  0.00    -0.098 A  
HETATM   26  C   UNL     1      -9.378   5.152  67.987  1.00  0.00    -0.121 A  
HETATM   27  O   UNL     1     -10.010   6.177  67.332  1.00  0.00    -0.123 OA 
HETATM   28  C   UNL     1      -9.584   3.872  67.466  1.00  0.00    -0.212 A  
HETATM   29  C   UNL     1      -8.963   2.770  68.055  1.00  0.00    -0.198 A  
HETATM   30  C   UNL     1      -8.138   2.959  69.156  1.00  0.00    -0.054 A  
HETATM   31  F   UNL     1      -7.539   1.903  69.723  1.00  0.00    -0.042 F  
HETATM   32  C   UNL     1      -7.919   4.229  69.679  1.00  0.00    -0.056 A  
ENDBRANCH  19  22
ENDBRANCH  18  19
ENDBRANCH  16  18
ENDBRANCH  15  16
ENDBRANCH   2  15
TORSDOF 6
ENDMDL
MODEL      281
REMARK 921   NORMALIZED FREE ENERGY PREDICTED BY IDOCK:   -4.20 KCAL/MOL
REMARK 922        TOTAL FREE ENERGY PREDICTED BY IDOCK:   -6.86 KCAL/MOL
REMARK 923 INTER-LIGAND FREE ENERGY PREDICTED BY IDOCK:   -6.52 KCAL/MOL
REMARK 924 INTRA-LIGAND FREE ENERGY PREDICTED BY IDOCK:   -0.34 KCAL/MOL
REMARK 927      BINDING AFFINITY PREDICTED BY RF-SCORE:    0.00 PKD
ROOT
HETATM    1  O   UNL     1      -7.399  10.385  67.789  1.00  0.00    -0.086 OA 
HETATM    2  C   UNL     1      -7.347  11.518  66.910  1.00  0.00    -0.140 C  
HETATM    3  H   UNL     1      -6.518  10.130  68.033  1.00  0.00     0.000 HD 
ENDROOT
BRANCH   2   4
HETATM    4  C   UNL     1      -6.563  12.667  67.586  1.00  0.00    -0.143 C  
HETATM    5  C   UNL     1      -6.086  17.161  69.693  1.00  0.00    -0.241 A  
HETATM    6  C   UNL     1      -7.057  17.290  68.709  1.00  0.00    -0.238 A  
HETATM    7  C   UNL     1      -6.169  12.340  69.030  1.00  0.00    -0.082 C  
HETATM    8  C   UNL     1      -5.293  13.459  69.565  1.00  0.00    -0.086 C  
HETATM    9  F   UNL     1      -5.700  18.241  70.387  1.00  0.00    -0.232 F  
HETATM   10  C   UNL     1      -7.458  16.162  67.990  1.00  0.00    -0.141 A  
HETATM   11  O   UNL     1      -7.354  13.867  67.519  1.00  0.00    -0.167 OA 
HETATM   12  C   UNL     1      -5.914  14.790  69.261  1.00  0.00    -0.103 A  
HETATM   13  C   UNL     1      -6.882  14.920  68.257  1.00  0.00    -0.119 A  
HETATM   14  C   UNL     1      -5.508  15.927  69.974  1.00  0.00    -0.149 A  
ENDBRANCH   2   4
BRANCH   2  15
HETATM   15  C   UNL     1      -8.780  11.932  66.514  1.00  0.00    -0.158 C  
BRANCH  15  16
HETATM   16  N   UNL     1      -9.498  10.850  65.818  1.00  0.00    -0.201 NA 
HETATM   17  H   UNL     1      -8.890  10.322  65.192  1.00  0.00     0.000 HD 
BRANCH  16  18
HETATM   18  C   UNL     1     -10.159   9.987  66.814  1.00  0.00    -0.226 C  
BRANCH  18  19
HETATM   19  C   UNL     1     -10.871  10.823  67.897  1.00  0.00    -0.264 C  
HETATM   20  H   UNL     1     -12.415  12.036  67.960  1.00  0.00     0.000 HD 
HETATM   21  O   UNL     1     -11.976  11.521  67.293  1.00  0.00    -0.605 OA 
BRANCH  19  22
HETATM   22  C   UNL     1     -11.393   9.960  69.069  1.00  0.00    -0.023 C  
HETATM   23  C   UNL     1     -11.925   9.834  71.488  1.00  0.00    -0.488 C  
HETATM   24  C   UNL     1     -11.297  10.695  70.406  1.00  0.00    -0.389 C  
HETATM   25  C   UNL     1     -11.401   8.432  71.392  1.00  0.00    -0.317 A  
HETATM   26  C   UNL     1     -10.809   7.960  70.213  1.00  0.00    -0.241 A  
HETATM   27  O   UNL     1     -10.636   8.731  69.092  1.00  0.00    -0.224 OA 
HETATM   28  C   UNL     1     -10.314   6.656  70.143  1.00  0.00    -0.236 A  
HETATM   29  C   UNL     1     -10.426   5.806  71.243  1.00  0.00    -0.295 A  
HETATM   30  C   UNL     1     -11.029   6.270  72.406  1.00  0.00    -0.254 A  
HETATM   31  F   UNL     1     -11.137   5.457  73.466  1.00  0.00    -0.298 F  
HETATM   32  C   UNL     1     -11.519   7.569  72.490  1.00  0.00    -0.376 A  
ENDBRANCH  19  22
ENDBRANCH  18  19
ENDBRANCH  16  18
ENDBRANCH  15  16
ENDBRANCH   2  15
TORSDOF 6
ENDMDL
MODEL      282
REMARK 921   NORMALIZED FREE ENERGY PREDICTED BY IDOCK:   -4.14 KCAL/MOL
REMARK 922        TOTAL FREE ENERGY PREDICTED BY IDOCK:   -6.78 KCAL/MOL
REMARK 923 INTER-LIGAND FREE ENERGY PREDICTED BY IDOCK:   -5.76 KCAL/MOL
REMARK 924 INTRA-LIGAND FREE ENERGY PREDICTED BY IDOCK:   -1.02 KCAL/MOL
REMARK 927      BINDING AFFINITY PREDICTED BY RF-SCORE:    0.00 PKD
ROOT
HETATM    1  O   UNL     1      -6.368   8.277  65.572  1.00  0.00    -0.048 OA 
HETATM    2  C   UNL     1      -7.417   8.511  64.623  1.00  0.00    -0.096 C  
HETATM    3  H   UNL     1      -5.752   9.000  65.551  1.00  0.00     0.000 HD 
ENDROOT
BRANCH   2   4
HETATM    4  C   UNL     1      -8.090   9.873  64.912  1.00  0.00    -0.145 C  
HETATM    5  C   UNL     1     -11.847  13.150  64.807  1.00  0.00    -0.369 A  
HETATM    6  C   UNL     1     -11.929  12.421  63.628  1.00  0.00    -0.626 A  
HETATM    7  C   UNL     1      -8.445  10.051  66.391  1.00  0.00    -0.132 C  
HETATM    8  C   UNL     1      -8.972  11.458  66.604  1.00  0.00    -0.183 C  
HETATM    9  F   UNL     1     -12.703  14.158  65.022  1.00  0.00    -0.432 F  
HETATM   10  C   UNL     1     -11.036  11.369  63.409  1.00  0.00    -0.308 A  
HETATM   11  O   UNL     1      -9.255   9.998  64.077  1.00  0.00    -0.242 OA 
HETATM   12  C   UNL     1     -10.000  11.787  65.562  1.00  0.00    -0.273 A  
HETATM   13  C   UNL     1     -10.070  11.060  64.366  1.00  0.00    -0.334 A  
HETATM   14  C   UNL     1     -10.893  12.847  65.773  1.00  0.00    -0.292 A  
ENDBRANCH   2   4
BRANCH   2  15
HETATM   15  C   UNL     1      -8.417   7.337  64.658  1.00  0.00     0.155 C  
BRANCH  15  16
HETATM   16  N   UNL     1      -7.778   6.052  64.322  1.00  0.00    -0.098 NA 
HETATM   17  H   UNL     1      -6.781   6.154  64.131  1.00  0.00     0.000 HD 
BRANCH  16  18
HETATM   18  C   UNL     1      -8.045   5.081  65.398  1.00  0.00    -0.116 C  
BRANCH  18  19
HETATM   19  C   UNL     1      -9.391   5.370  66.094  1.00  0.00    -0.157 C  
HETATM   20  H   UNL     1     -11.122   4.457  66.262  1.00  0.00     0.000 HD 
HETATM   21  O   UNL     1     -10.293   4.279  65.833  1.00  0.00    -0.219 OA 
BRANCH  19  22
HETATM   22  C   UNL     1      -9.243   5.555  67.623  1.00  0.00    -0.110 C  
HETATM   23  C   UNL     1     -10.350   5.518  69.842  1.00  0.00    -0.368 C  
HETATM   24  C   UNL     1     -10.586   5.436  68.344  1.00  0.00    -0.148 C  
HETATM   25  C   UNL     1      -9.460   6.683  70.155  1.00  0.00    -0.162 A  
HETATM   26  C   UNL     1      -8.651   7.262  69.167  1.00  0.00    -0.133 A  
HETATM   27  O   UNL     1      -8.633   6.842  67.862  1.00  0.00    -0.122 OA 
HETATM   28  C   UNL     1      -7.837   8.356  69.471  1.00  0.00    -0.102 A  
HETATM   29  C   UNL     1      -7.808   8.865  70.769  1.00  0.00    -0.135 A  
HETATM   30  C   UNL     1      -8.597   8.280  71.751  1.00  0.00    -0.161 A  
HETATM   31  F   UNL     1      -8.573   8.768  72.998  1.00  0.00    -0.243 F  
HETATM   32  C   UNL     1      -9.417   7.195  71.459  1.00  0.00    -0.161 A  
ENDBRANCH  19  22
ENDBRANCH  18  19
ENDBRANCH  16  18
ENDBRANCH  15  16
ENDBRANCH   2  15
TORSDOF 6
ENDMDL
MODEL      283
REMARK 921   NORMALIZED FREE ENERGY PREDICTED BY IDOCK:   -4.13 KCAL/MOL
REMARK 922        TOTAL FREE ENERGY PREDICTED BY IDOCK:   -6.77 KCAL/MOL
REMARK 923 INTER-LIGAND FREE ENERGY PREDICTED BY IDOCK:   -6.87 KCAL/MOL
REMARK 924 INTRA-LIGAND FREE ENERGY PREDICTED BY IDOCK:    0.10 KCAL/MOL
REMARK 927      BINDING AFFINITY PREDICTED BY RF-SCORE:    0.00 PKD
ROOT
HETATM    1  O   UNL     1      -9.748   4.638  73.592  1.00  0.00    -0.132 OA 
HETATM    2  C   UNL     1     -10.564   5.444  72.731  1.00  0.00    -0.229 C  
HETATM    3  H   UNL     1      -9.535   3.821  73.157  1.00  0.00     0.000 HD 
ENDROOT
BRANCH   2   4
HETATM    4  C   UNL     1      -9.842   5.661  71.381  1.00  0.00    -0.173 C  
HETATM    5  C   UNL     1      -8.421   4.372  66.779  1.00  0.00    -0.105 A  
HETATM    6  C   UNL     1      -8.445   3.201  67.524  1.00  0.00    -0.103 A  
HETATM    7  C   UNL     1     -10.553   6.685  70.492  1.00  0.00    -0.270 C  
HETATM    8  C   UNL     1      -9.708   6.933  69.255  1.00  0.00    -0.156 C  
HETATM    9  F   UNL     1      -8.006   4.336  65.504  1.00  0.00    -0.090 F  
HETATM   10  C   UNL     1      -8.881   3.242  68.851  1.00  0.00    -0.166 A  
HETATM   11  O   UNL     1      -9.715   4.391  70.716  1.00  0.00    -0.173 OA 
HETATM   12  C   UNL     1      -9.270   5.628  68.659  1.00  0.00    -0.134 A  
HETATM   13  C   UNL     1      -9.281   4.451  69.419  1.00  0.00    -0.135 A  
HETATM   14  C   UNL     1      -8.824   5.583  67.331  1.00  0.00    -0.105 A  
ENDBRANCH   2   4
BRANCH   2  15
HETATM   15  C   UNL     1     -10.910   6.771  73.438  1.00  0.00    -0.253 C  
BRANCH  15  16
HETATM   16  N   UNL     1     -12.062   7.448  72.817  1.00  0.00    -0.541 NA 
HETATM   17  H   UNL     1     -12.941   7.221  73.281  1.00  0.00     0.000 HD 
BRANCH  16  18
HETATM   18  C   UNL     1     -11.808   8.899  72.778  1.00  0.00     0.295 C  
BRANCH  18  19
HETATM   19  C   UNL     1     -12.801   9.618  71.843  1.00  0.00    -0.425 C  
HETATM   20  H   UNL     1     -14.644  10.286  71.980  1.00  0.00     0.000 HD 
HETATM   21  O   UNL     1     -14.032   9.842  72.556  1.00  0.00    -0.164 OA 
BRANCH  19  22
HETATM   22  C   UNL     1     -12.259  10.971  71.325  1.00  0.00    -0.259 C  
HETATM   23  C   UNL     1     -12.435  13.445  71.382  1.00  0.00    -0.317 C  
HETATM   24  C   UNL     1     -13.086  12.151  71.837  1.00  0.00    -0.475 C  
HETATM   25  C   UNL     1     -12.113  13.366  69.919  1.00  0.00    -0.389 A  
HETATM   26  C   UNL     1     -12.024  12.130  69.264  1.00  0.00    -0.262 A  
HETATM   27  O   UNL     1     -12.249  10.927  69.882  1.00  0.00    -0.325 OA 
HETATM   28  C   UNL     1     -11.736  12.074  67.898  1.00  0.00    -0.393 A  
HETATM   29  C   UNL     1     -11.514  13.250  67.181  1.00  0.00    -0.380 A  
HETATM   30  C   UNL     1     -11.585  14.472  67.836  1.00  0.00    -0.344 A  
HETATM   31  F   UNL     1     -11.375  15.604  67.151  1.00  0.00    -0.310 F  
HETATM   32  C   UNL     1     -11.879  14.542  69.194  1.00  0.00    -0.354 A  
ENDBRANCH  19  22
ENDBRANCH  18  19
ENDBRANCH  16  18
ENDBRANCH  15  16
ENDBRANCH   2  15
TORSDOF 6
ENDMDL
MODEL      284
REMARK 921   NORMALIZED FREE ENERGY PREDICTED BY IDOCK:   -4.13 KCAL/MOL
REMARK 922        TOTAL FREE ENERGY PREDICTED BY IDOCK:   -6.77 KCAL/MOL
REMARK 923 INTER-LIGAND FREE ENERGY PREDICTED BY IDOCK:   -5.96 KCAL/MOL
REMARK 924 INTRA-LIGAND FREE ENERGY PREDICTED BY IDOCK:   -0.80 KCAL/MOL
REMARK 927      BINDING AFFINITY PREDICTED BY RF-SCORE:    0.00 PKD
ROOT
HETATM    1  O   UNL     1     -11.663  11.500  67.794  1.00  0.00    -0.514 OA 
HETATM    2  C   UNL     1     -10.368  12.116  67.742  1.00  0.00    -0.206 C  
HETATM    3  H   UNL     1     -12.016  11.573  68.672  1.00  0.00     0.000 HD 
ENDROOT
BRANCH   2   4
HETATM    4  C   UNL     1     -10.468  13.583  68.223  1.00  0.00    -0.253 C  
HETATM    5  C   UNL     1      -9.073  18.367  68.399  1.00  0.00    -0.320 A  
HETATM    6  C   UNL     1      -7.910  17.624  68.249  1.00  0.00    -0.256 A  
HETATM    7  C   UNL     1     -11.662  14.322  67.610  1.00  0.00    -0.421 C  
HETATM    8  C   UNL     1     -11.760  15.701  68.237  1.00  0.00    -0.253 C  
HETATM    9  F   UNL     1      -8.995  19.697  68.542  1.00  0.00    -0.372 F  
HETATM   10  C   UNL     1      -7.996  16.238  68.096  1.00  0.00    -0.157 A  
HETATM   11  O   UNL     1      -9.230  14.252  67.923  1.00  0.00    -0.182 OA 
HETATM   12  C   UNL     1     -10.414  16.364  68.239  1.00  0.00    -0.302 A  
HETATM   13  C   UNL     1      -9.241  15.610  68.102  1.00  0.00    -0.185 A  
HETATM   14  C   UNL     1     -10.321  17.753  68.400  1.00  0.00    -0.378 A  
ENDBRANCH   2   4
BRANCH   2  15
HETATM   15  C   UNL     1      -9.795  11.999  66.315  1.00  0.00    -0.231 C  
BRANCH  15  16
HETATM   16  N   UNL     1      -9.631  10.595  65.897  1.00  0.00    -0.195 NA 
HETATM   17  H   UNL     1      -9.301  10.514  64.935  1.00  0.00     0.000 HD 
BRANCH  16  18
HETATM   18  C   UNL     1      -8.746   9.905  66.852  1.00  0.00    -0.128 C  
BRANCH  18  19
HETATM   19  C   UNL     1      -9.455   8.702  67.507  1.00  0.00    -0.149 C  
HETATM   20  H   UNL     1     -11.249   7.907  67.434  1.00  0.00     0.000 HD 
HETATM   21  O   UNL     1     -10.813   8.648  67.031  1.00  0.00    -0.197 OA 
BRANCH  19  22
HETATM   22  C   UNL     1      -8.753   7.358  67.201  1.00  0.00    -0.121 C  
HETATM   23  C   UNL     1      -6.807   6.210  66.179  1.00  0.00    -0.061 C  
HETATM   24  C   UNL     1      -7.500   7.550  66.347  1.00  0.00    -0.084 C  
HETATM   25  C   UNL     1      -7.806   5.166  65.776  1.00  0.00    -0.095 A  
HETATM   26  C   UNL     1      -9.178   5.357  65.992  1.00  0.00    -0.158 A  
HETATM   27  O   UNL     1      -9.706   6.495  66.544  1.00  0.00    -0.167 OA 
HETATM   28  C   UNL     1     -10.097   4.381  65.599  1.00  0.00    -0.256 A  
HETATM   29  C   UNL     1      -9.652   3.199  65.007  1.00  0.00    -0.099 A  
HETATM   30  C   UNL     1      -8.290   3.005  64.810  1.00  0.00    -0.091 A  
HETATM   31  F   UNL     1      -7.859   1.871  64.241  1.00  0.00    -0.060 F  
HETATM   32  C   UNL     1      -7.366   3.971  65.190  1.00  0.00    -0.072 A  
ENDBRANCH  19  22
ENDBRANCH  18  19
ENDBRANCH  16  18
ENDBRANCH  15  16
ENDBRANCH   2  15
TORSDOF 6
ENDMDL
MODEL      285
REMARK 921   NORMALIZED FREE ENERGY PREDICTED BY IDOCK:   -4.12 KCAL/MOL
REMARK 922        TOTAL FREE ENERGY PREDICTED BY IDOCK:   -6.76 KCAL/MOL
REMARK 923 INTER-LIGAND FREE ENERGY PREDICTED BY IDOCK:   -6.34 KCAL/MOL
REMARK 924 INTRA-LIGAND FREE ENERGY PREDICTED BY IDOCK:   -0.41 KCAL/MOL
REMARK 927      BINDING AFFINITY PREDICTED BY RF-SCORE:    0.00 PKD
ROOT
HETATM    1  O   UNL     1     -11.108  15.504  64.388  1.00  0.00    -0.700 OA 
HETATM    2  C   UNL     1     -10.791  14.766  65.577  1.00  0.00    -0.351 C  
HETATM    3  H   UNL     1     -11.406  16.374  64.622  1.00  0.00     0.000 HD 
ENDROOT
BRANCH   2   4
HETATM    4  C   UNL     1      -9.750  15.546  66.413  1.00  0.00    -0.283 C  
HETATM    5  C   UNL     1      -7.639  19.667  68.265  1.00  0.00    -0.316 A  
HETATM    6  C   UNL     1      -8.094  19.996  66.995  1.00  0.00    -0.357 A  
HETATM    7  C   UNL     1      -9.993  15.421  67.920  1.00  0.00    -0.221 C  
HETATM    8  C   UNL     1      -8.854  16.101  68.660  1.00  0.00    -0.218 C  
HETATM    9  F   UNL     1      -6.964  20.576  68.982  1.00  0.00    -0.239 F  
HETATM   10  C   UNL     1      -8.801  19.046  66.252  1.00  0.00    -0.285 A  
HETATM   11  O   UNL     1      -9.761  16.923  65.995  1.00  0.00    -0.393 OA 
HETATM   12  C   UNL     1      -8.594  17.456  68.072  1.00  0.00    -0.240 A  
HETATM   13  C   UNL     1      -9.040  17.779  66.784  1.00  0.00    -0.262 A  
HETATM   14  C   UNL     1      -7.878  18.410  68.809  1.00  0.00    -0.286 A  
ENDBRANCH   2   4
BRANCH   2  15
HETATM   15  C   UNL     1     -10.306  13.353  65.196  1.00  0.00    -0.336 C  
BRANCH  15  16
HETATM   16  N   UNL     1     -10.429  12.402  66.316  1.00  0.00    -0.241 NA 
HETATM   17  H   UNL     1     -11.401  12.215  66.559  1.00  0.00     0.000 HD 
BRANCH  16  18
HETATM   18  C   UNL     1      -9.686  11.171  65.990  1.00  0.00    -0.226 C  
BRANCH  18  19
HETATM   19  C   UNL     1      -9.779  10.141  67.134  1.00  0.00    -0.173 C  
HETATM   20  H   UNL     1     -11.193   9.464  68.317  1.00  0.00     0.000 HD 
HETATM   21  O   UNL     1     -11.136  10.099  67.613  1.00  0.00    -0.301 OA 
BRANCH  19  22
HETATM   22  C   UNL     1      -9.351   8.721  66.692  1.00  0.00    -0.189 C  
HETATM   23  C   UNL     1      -7.930   6.739  67.143  1.00  0.00    -0.116 C  
HETATM   24  C   UNL     1      -8.222   8.169  67.562  1.00  0.00    -0.123 C  
HETATM   25  C   UNL     1      -7.800   6.661  65.651  1.00  0.00    -0.105 A  
HETATM   26  C   UNL     1      -8.327   7.664  64.826  1.00  0.00    -0.027 A  
HETATM   27  O   UNL     1      -8.959   8.783  65.304  1.00  0.00    -0.194 OA 
HETATM   28  C   UNL     1      -8.187   7.584  63.438  1.00  0.00     0.054 A  
HETATM   29  C   UNL     1      -7.538   6.491  62.864  1.00  0.00    -0.085 A  
HETATM   30  C   UNL     1      -7.031   5.489  63.683  1.00  0.00    -0.046 A  
HETATM   31  F   UNL     1      -6.406   4.439  63.134  1.00  0.00    -0.023 F  
HETATM   32  C   UNL     1      -7.158   5.561  65.065  1.00  0.00    -0.061 A  
ENDBRANCH  19  22
ENDBRANCH  18  19
ENDBRANCH  16  18
ENDBRANCH  15  16
ENDBRANCH   2  15
TORSDOF 6
ENDMDL
MODEL      286
REMARK 921   NORMALIZED FREE ENERGY PREDICTED BY IDOCK:   -4.09 KCAL/MOL
REMARK 922        TOTAL FREE ENERGY PREDICTED BY IDOCK:   -6.71 KCAL/MOL
REMARK 923 INTER-LIGAND FREE ENERGY PREDICTED BY IDOCK:   -5.39 KCAL/MOL
REMARK 924 INTRA-LIGAND FREE ENERGY PREDICTED BY IDOCK:   -1.32 KCAL/MOL
REMARK 927      BINDING AFFINITY PREDICTED BY RF-SCORE:    0.00 PKD
ROOT
HETATM    1  O   UNL     1     -11.588   7.595  71.336  1.00  0.00    -0.262 OA 
HETATM    2  C   UNL     1     -10.868   8.763  70.917  1.00  0.00    -0.238 C  
HETATM    3  H   UNL     1     -12.491   7.658  71.051  1.00  0.00     0.000 HD 
ENDROOT
BRANCH   2   4
HETATM    4  C   UNL     1     -10.997   8.934  69.386  1.00  0.00    -0.048 C  
HETATM    5  C   UNL     1     -10.949  11.529  65.128  1.00  0.00    -0.234 A  
HETATM    6  C   UNL     1     -11.455  12.381  66.101  1.00  0.00    -0.430 A  
HETATM    7  C   UNL     1      -9.805   8.344  68.625  1.00  0.00    -0.180 C  
HETATM    8  C   UNL     1     -10.079   8.436  67.135  1.00  0.00    -0.335 C  
HETATM    9  F   UNL     1     -10.882  11.944  63.855  1.00  0.00    -0.309 F  
HETATM   10  C   UNL     1     -11.519  11.946  67.427  1.00  0.00    -0.393 A  
HETATM   11  O   UNL     1     -11.163  10.333  69.091  1.00  0.00    -0.228 OA 
HETATM   12  C   UNL     1     -10.560   9.813  66.783  1.00  0.00    -0.208 A  
HETATM   13  C   UNL     1     -11.084  10.664  67.764  1.00  0.00    -0.321 A  
HETATM   14  C   UNL     1     -10.505  10.252  65.453  1.00  0.00    -0.125 A  
ENDBRANCH   2   4
BRANCH   2  15
HETATM   15  C   UNL     1      -9.400   8.660  71.380  1.00  0.00    -0.236 C  
BRANCH  15  16
HETATM   16  N   UNL     1      -9.140   7.418  72.131  1.00  0.00    -0.131 NA 
HETATM   17  H   UNL     1      -9.595   6.609  71.709  1.00  0.00     0.000 HD 
BRANCH  16  18
HETATM   18  C   UNL     1      -7.685   7.233  72.272  1.00  0.00    -0.092 C  
BRANCH  18  19
HETATM   19  C   UNL     1      -7.218   5.924  71.604  1.00  0.00    -0.087 C  
HETATM   20  H   UNL     1      -6.845   4.088  72.195  1.00  0.00     0.000 HD 
HETATM   21  O   UNL     1      -7.133   4.894  72.607  1.00  0.00    -0.073 OA 
BRANCH  19  22
HETATM   22  C   UNL     1      -8.169   5.458  70.476  1.00  0.00    -0.110 C  
HETATM   23  C   UNL     1      -9.539   3.618  69.534  1.00  0.00    -0.207 C  
HETATM   24  C   UNL     1      -8.523   3.977  70.603  1.00  0.00    -0.097 C  
HETATM   25  C   UNL     1      -9.087   4.144  68.204  1.00  0.00    -0.175 A  
HETATM   26  C   UNL     1      -8.135   5.169  68.117  1.00  0.00    -0.094 A  
HETATM   27  O   UNL     1      -7.532   5.737  69.210  1.00  0.00    -0.079 OA 
HETATM   28  C   UNL     1      -7.713   5.639  66.871  1.00  0.00    -0.100 A  
HETATM   29  C   UNL     1      -8.256   5.104  65.702  1.00  0.00    -0.119 A  
HETATM   30  C   UNL     1      -9.212   4.100  65.791  1.00  0.00    -0.148 A  
HETATM   31  F   UNL     1      -9.733   3.582  64.671  1.00  0.00    -0.143 F  
HETATM   32  C   UNL     1      -9.634   3.618  67.025  1.00  0.00    -0.187 A  
ENDBRANCH  19  22
ENDBRANCH  18  19
ENDBRANCH  16  18
ENDBRANCH  15  16
ENDBRANCH   2  15
TORSDOF 6
ENDMDL
MODEL      287
REMARK 921   NORMALIZED FREE ENERGY PREDICTED BY IDOCK:   -4.09 KCAL/MOL
REMARK 922        TOTAL FREE ENERGY PREDICTED BY IDOCK:   -6.71 KCAL/MOL
REMARK 923 INTER-LIGAND FREE ENERGY PREDICTED BY IDOCK:   -5.13 KCAL/MOL
REMARK 924 INTRA-LIGAND FREE ENERGY PREDICTED BY IDOCK:   -1.58 KCAL/MOL
REMARK 927      BINDING AFFINITY PREDICTED BY RF-SCORE:    0.00 PKD
ROOT
HETATM    1  O   UNL     1      -5.496   5.746  67.498  1.00  0.00    -0.004 OA 
HETATM    2  C   UNL     1      -6.907   5.509  67.397  1.00  0.00    -0.060 C  
HETATM    3  H   UNL     1      -5.197   6.227  66.736  1.00  0.00     0.000 HD 
ENDROOT
BRANCH   2   4
HETATM    4  C   UNL     1      -7.650   6.853  67.214  1.00  0.00    -0.108 C  
HETATM    5  C   UNL     1      -7.979  11.825  67.035  1.00  0.00    -0.164 A  
HETATM    6  C   UNL     1      -7.032  11.530  68.006  1.00  0.00    -0.077 A  
HETATM    7  C   UNL     1      -8.011   7.131  65.751  1.00  0.00    -0.123 C  
HETATM    8  C   UNL     1      -8.850   8.395  65.684  1.00  0.00    -0.196 C  
HETATM    9  F   UNL     1      -8.323  13.102  66.814  1.00  0.00    -0.168 F  
HETATM   10  C   UNL     1      -6.673  10.198  68.231  1.00  0.00    -0.054 A  
HETATM   11  O   UNL     1      -6.836   7.907  67.760  1.00  0.00    -0.066 OA 
HETATM   12  C   UNL     1      -8.210   9.481  66.498  1.00  0.00    -0.119 A  
HETATM   13  C   UNL     1      -7.267   9.178  67.488  1.00  0.00    -0.080 A  
HETATM   14  C   UNL     1      -8.573  10.818  66.282  1.00  0.00    -0.163 A  
ENDBRANCH   2   4
BRANCH   2  15
HETATM   15  C   UNL     1      -7.391   4.728  68.635  1.00  0.00    -0.065 C  
BRANCH  15  16
HETATM   16  N   UNL     1      -7.064   5.423  69.893  1.00  0.00    -0.061 NA 
HETATM   17  H   UNL     1      -6.681   6.355  69.732  1.00  0.00     0.000 HD 
BRANCH  16  18
HETATM   18  C   UNL     1      -8.259   5.451  70.756  1.00  0.00    -0.115 C  
BRANCH  18  19
HETATM   19  C   UNL     1      -9.553   5.313  69.930  1.00  0.00    -0.177 C  
HETATM   20  H   UNL     1     -11.177   4.211  70.016  1.00  0.00     0.000 HD 
HETATM   21  O   UNL     1     -10.379   4.296  70.526  1.00  0.00    -0.042 OA 
BRANCH  19  22
HETATM   22  C   UNL     1     -10.352   6.635  69.849  1.00  0.00    -0.200 C  
HETATM   23  C   UNL     1     -10.275   9.112  69.743  1.00  0.00    -0.219 C  
HETATM   24  C   UNL     1      -9.440   7.859  69.938  1.00  0.00    -0.160 C  
HETATM   25  C   UNL     1     -11.496   9.052  70.612  1.00  0.00    -0.291 A  
HETATM   26  C   UNL     1     -11.958   7.833  71.127  1.00  0.00    -0.291 A  
HETATM   27  O   UNL     1     -11.330   6.633  70.910  1.00  0.00    -0.285 OA 
HETATM   28  C   UNL     1     -13.089   7.795  71.946  1.00  0.00    -0.300 A  
HETATM   29  C   UNL     1     -13.779   8.971  72.239  1.00  0.00    -0.550 A  
HETATM   30  C   UNL     1     -13.329  10.176  71.714  1.00  0.00    -0.385 A  
HETATM   31  F   UNL     1     -13.989  11.308  71.995  1.00  0.00    -0.145 F  
HETATM   32  C   UNL     1     -12.201  10.228  70.903  1.00  0.00    -0.465 A  
ENDBRANCH  19  22
ENDBRANCH  18  19
ENDBRANCH  16  18
ENDBRANCH  15  16
ENDBRANCH   2  15
TORSDOF 6
ENDMDL
MODEL      288
REMARK 921   NORMALIZED FREE ENERGY PREDICTED BY IDOCK:   -4.08 KCAL/MOL
REMARK 922        TOTAL FREE ENERGY PREDICTED BY IDOCK:   -6.69 KCAL/MOL
REMARK 923 INTER-LIGAND FREE ENERGY PREDICTED BY IDOCK:   -4.68 KCAL/MOL
REMARK 924 INTRA-LIGAND FREE ENERGY PREDICTED BY IDOCK:   -2.01 KCAL/MOL
REMARK 927      BINDING AFFINITY PREDICTED BY RF-SCORE:    0.00 PKD
ROOT
HETATM    1  O   UNL     1     -10.745   1.809  72.834  1.00  0.00    -0.137 OA 
HETATM    2  C   UNL     1     -10.144   3.084  72.570  1.00  0.00    -0.162 C  
HETATM    3  H   UNL     1     -11.560   1.734  72.353  1.00  0.00     0.000 HD 
ENDROOT
BRANCH   2   4
HETATM    4  C   UNL     1      -9.952   3.265  71.046  1.00  0.00     0.085 C  
HETATM    5  C   UNL     1      -7.818   5.203  66.978  1.00  0.00    -0.096 A  
HETATM    6  C   UNL     1      -7.822   6.208  67.935  1.00  0.00    -0.106 A  
HETATM    7  C   UNL     1      -9.276   2.056  70.392  1.00  0.00    -0.177 C  
HETATM    8  C   UNL     1      -9.251   2.262  68.888  1.00  0.00    -0.216 C  
HETATM    9  F   UNL     1      -7.356   5.464  65.747  1.00  0.00    -0.068 F  
HETATM   10  C   UNL     1      -8.300   5.931  69.218  1.00  0.00    -0.113 A  
HETATM   11  O   UNL     1      -9.201   4.471  70.816  1.00  0.00    -0.122 OA 
HETATM   12  C   UNL     1      -8.754   3.640  68.564  1.00  0.00    -0.137 A  
HETATM   13  C   UNL     1      -8.774   4.656  69.528  1.00  0.00    -0.082 A  
HETATM   14  C   UNL     1      -8.280   3.926  67.276  1.00  0.00    -0.098 A  
ENDBRANCH   2   4
BRANCH   2  15
HETATM   15  C   UNL     1      -8.821   3.205  73.353  1.00  0.00    -0.080 C  
BRANCH  15  16
HETATM   16  N   UNL     1      -8.596   4.572  73.857  1.00  0.00    -0.103 NA 
HETATM   17  H   UNL     1      -8.111   5.159  73.179  1.00  0.00     0.000 HD 
BRANCH  16  18
HETATM   18  C   UNL     1      -9.884   5.151  74.279  1.00  0.00    -0.183 C  
BRANCH  18  19
HETATM   19  C   UNL     1      -9.792   6.683  74.422  1.00  0.00    -0.322 C  
HETATM   20  H   UNL     1      -8.349   8.001  74.626  1.00  0.00     0.000 HD 
HETATM   21  O   UNL     1      -8.406   7.056  74.538  1.00  0.00    -0.154 OA 
BRANCH  19  22
HETATM   22  C   UNL     1     -10.423   7.433  73.225  1.00  0.00    -0.374 C  
HETATM   23  C   UNL     1     -11.988   7.345  71.303  1.00  0.00    -0.343 C  
HETATM   24  C   UNL     1     -11.321   6.520  72.389  1.00  0.00    -0.314 C  
HETATM   25  C   UNL     1     -10.966   8.193  70.606  1.00  0.00    -0.255 A  
HETATM   26  C   UNL     1      -9.731   8.475  71.205  1.00  0.00    -0.201 A  
HETATM   27  O   UNL     1      -9.353   7.986  72.429  1.00  0.00    -0.166 OA 
HETATM   28  C   UNL     1      -8.783   9.255  70.537  1.00  0.00    -0.276 A  
HETATM   29  C   UNL     1      -9.072   9.778  69.276  1.00  0.00    -0.189 A  
HETATM   30  C   UNL     1     -10.304   9.511  68.692  1.00  0.00    -0.205 A  
HETATM   31  F   UNL     1     -10.583  10.009  67.480  1.00  0.00    -0.249 F  
HETATM   32  C   UNL     1     -11.251   8.729  69.343  1.00  0.00     0.163 A  
ENDBRANCH  19  22
ENDBRANCH  18  19
ENDBRANCH  16  18
ENDBRANCH  15  16
ENDBRANCH   2  15
TORSDOF 6
ENDMDL
MODEL      289
REMARK 921   NORMALIZED FREE ENERGY PREDICTED BY IDOCK:   -4.07 KCAL/MOL
REMARK 922        TOTAL FREE ENERGY PREDICTED BY IDOCK:   -6.68 KCAL/MOL
REMARK 923 INTER-LIGAND FREE ENERGY PREDICTED BY IDOCK:   -5.61 KCAL/MOL
REMARK 924 INTRA-LIGAND FREE ENERGY PREDICTED BY IDOCK:   -1.07 KCAL/MOL
REMARK 927      BINDING AFFINITY PREDICTED BY RF-SCORE:    0.00 PKD
ROOT
HETATM    1  O   UNL     1      -7.475  13.352  69.326  1.00  0.00    -0.312 OA 
HETATM    2  C   UNL     1      -6.719  13.891  68.233  1.00  0.00    -0.109 C  
HETATM    3  H   UNL     1      -8.135  13.979  69.598  1.00  0.00     0.000 HD 
ENDROOT
BRANCH   2   4
HETATM    4  C   UNL     1      -7.674  14.283  67.082  1.00  0.00    -0.017 C  
HETATM    5  C   UNL     1     -12.083  14.479  64.760  1.00  0.00    -0.445 A  
HETATM    6  C   UNL     1     -12.040  13.257  65.419  1.00  0.00    -0.464 A  
HETATM    7  C   UNL     1      -8.004  15.779  67.075  1.00  0.00    -0.272 C  
HETATM    8  C   UNL     1      -8.832  16.094  65.842  1.00  0.00    -0.196 C  
HETATM    9  F   UNL     1     -13.139  14.778  63.991  1.00  0.00     0.068 F  
HETATM   10  C   UNL     1     -10.939  12.950  66.223  1.00  0.00    -0.305 A  
HETATM   11  O   UNL     1      -8.868  13.486  67.180  1.00  0.00    -0.212 OA 
HETATM   12  C   UNL     1      -9.946  15.100  65.701  1.00  0.00    -0.387 A  
HETATM   13  C   UNL     1      -9.893  13.862  66.354  1.00  0.00    -0.295 A  
HETATM   14  C   UNL     1     -11.049  15.400  64.889  1.00  0.00    -0.435 A  
ENDBRANCH   2   4
BRANCH   2  15
HETATM   15  C   UNL     1      -5.647  12.873  67.792  1.00  0.00    -0.130 C  
BRANCH  15  16
HETATM   16  N   UNL     1      -6.115  12.018  66.686  1.00  0.00    -0.476 NA 
HETATM   17  H   UNL     1      -5.428  11.947  65.936  1.00  0.00     0.000 HD 
BRANCH  16  18
HETATM   18  C   UNL     1      -6.498  10.700  67.222  1.00  0.00    -0.072 C  
BRANCH  18  19
HETATM   19  C   UNL     1      -7.845  10.226  66.638  1.00  0.00    -0.116 C  
HETATM   20  H   UNL     1      -8.546   9.817  64.849  1.00  0.00     0.000 HD 
HETATM   21  O   UNL     1      -7.716  10.109  65.209  1.00  0.00    -0.135 OA 
BRANCH  19  22
HETATM   22  C   UNL     1      -8.303   8.869  67.221  1.00  0.00    -0.104 C  
HETATM   23  C   UNL     1      -7.865   7.044  68.842  1.00  0.00    -0.115 C  
HETATM   24  C   UNL     1      -7.300   8.315  68.234  1.00  0.00    -0.095 C  
HETATM   25  C   UNL     1      -8.373   6.141  67.758  1.00  0.00    -0.116 A  
HETATM   26  C   UNL     1      -8.672   6.641  66.483  1.00  0.00    -0.135 A  
HETATM   27  O   UNL     1      -8.498   7.952  66.123  1.00  0.00    -0.118 OA 
HETATM   28  C   UNL     1      -9.133   5.785  65.479  1.00  0.00    -0.040 A  
HETATM   29  C   UNL     1      -9.319   4.429  65.747  1.00  0.00    -0.162 A  
HETATM   30  C   UNL     1      -9.038   3.940  67.017  1.00  0.00    -0.152 A  
HETATM   31  F   UNL     1      -9.214   2.637  67.278  1.00  0.00    -0.161 F  
HETATM   32  C   UNL     1      -8.572   4.780  68.022  1.00  0.00    -0.105 A  
ENDBRANCH  19  22
ENDBRANCH  18  19
ENDBRANCH  16  18
ENDBRANCH  15  16
ENDBRANCH   2  15
TORSDOF 6
ENDMDL
MODEL      290
REMARK 921   NORMALIZED FREE ENERGY PREDICTED BY IDOCK:   -4.06 KCAL/MOL
REMARK 922        TOTAL FREE ENERGY PREDICTED BY IDOCK:   -6.67 KCAL/MOL
REMARK 923 INTER-LIGAND FREE ENERGY PREDICTED BY IDOCK:   -5.56 KCAL/MOL
REMARK 924 INTRA-LIGAND FREE ENERGY PREDICTED BY IDOCK:   -1.11 KCAL/MOL
REMARK 927      BINDING AFFINITY PREDICTED BY RF-SCORE:    0.00 PKD
ROOT
HETATM    1  O   UNL     1     -11.733   7.738  73.168  1.00  0.00    -0.631 OA 
HETATM    2  C   UNL     1     -10.377   7.758  72.700  1.00  0.00    -0.292 C  
HETATM    3  H   UNL     1     -12.063   8.626  73.226  1.00  0.00     0.000 HD 
ENDROOT
BRANCH   2   4
HETATM    4  C   UNL     1     -10.303   8.509  71.350  1.00  0.00    -0.239 C  
HETATM    5  C   UNL     1     -10.875  12.457  68.358  1.00  0.00    -0.238 A  
HETATM    6  C   UNL     1     -11.917  12.505  69.274  1.00  0.00    -0.304 A  
HETATM    7  C   UNL     1      -8.866   8.862  70.951  1.00  0.00    -0.268 C  
HETATM    8  C   UNL     1      -8.878   9.471  69.561  1.00  0.00    -0.185 C  
HETATM    9  F   UNL     1     -10.812  13.371  67.379  1.00  0.00    -0.256 F  
HETATM   10  C   UNL     1     -11.976  11.553  70.295  1.00  0.00    -0.455 A  
HETATM   11  O   UNL     1     -11.126   9.687  71.431  1.00  0.00    -0.365 OA 
HETATM   12  C   UNL     1      -9.941  10.526  69.469  1.00  0.00    -0.187 A  
HETATM   13  C   UNL     1     -10.999  10.562  70.385  1.00  0.00    -0.178 A  
HETATM   14  C   UNL     1      -9.890  11.479  68.442  1.00  0.00    -0.204 A  
ENDBRANCH   2   4
BRANCH   2  15
HETATM   15  C   UNL     1      -9.840   6.316  72.605  1.00  0.00    -0.166 C  
BRANCH  15  16
HETATM   16  N   UNL     1     -10.876   5.365  72.163  1.00  0.00    -0.228 NA 
HETATM   17  H   UNL     1     -11.790   5.575  72.564  1.00  0.00     0.000 HD 
BRANCH  16  18
HETATM   18  C   UNL     1     -10.905   5.330  70.690  1.00  0.00    -0.048 C  
BRANCH  18  19
HETATM   19  C   UNL     1      -9.500   5.079  70.106  1.00  0.00    -0.169 C  
HETATM   20  H   UNL     1      -8.560   3.564  69.281  1.00  0.00     0.000 HD 
HETATM   21  O   UNL     1      -9.426   3.719  69.641  1.00  0.00    -0.166 OA 
BRANCH  19  22
HETATM   22  C   UNL     1      -9.160   6.036  68.939  1.00  0.00    -0.121 C  
HETATM   23  C   UNL     1      -9.308   6.487  66.505  1.00  0.00    -0.188 C  
HETATM   24  C   UNL     1      -9.570   5.454  67.586  1.00  0.00    -0.142 C  
HETATM   25  C   UNL     1      -7.928   7.052  66.663  1.00  0.00    -0.108 A  
HETATM   26  C   UNL     1      -7.239   6.948  67.879  1.00  0.00    -0.095 A  
HETATM   27  O   UNL     1      -7.743   6.310  68.983  1.00  0.00    -0.097 OA 
HETATM   28  C   UNL     1      -5.948   7.467  68.006  1.00  0.00    -0.035 A  
HETATM   29  C   UNL     1      -5.345   8.114  66.928  1.00  0.00    -0.032 A  
HETATM   30  C   UNL     1      -6.037   8.231  65.728  1.00  0.00    -0.045 A  
HETATM   31  F   UNL     1      -5.460   8.849  64.689  1.00  0.00    -0.048 F  
HETATM   32  C   UNL     1      -7.319   7.711  65.586  1.00  0.00    -0.073 A  
ENDBRANCH  19  22
ENDBRANCH  18  19
ENDBRANCH  16  18
ENDBRANCH  15  16
ENDBRANCH   2  15
TORSDOF 6
ENDMDL
MODEL      291
REMARK 921   NORMALIZED FREE ENERGY PREDICTED BY IDOCK:   -4.05 KCAL/MOL
REMARK 922        TOTAL FREE ENERGY PREDICTED BY IDOCK:   -6.66 KCAL/MOL
REMARK 923 INTER-LIGAND FREE ENERGY PREDICTED BY IDOCK:   -6.03 KCAL/MOL
REMARK 924 INTRA-LIGAND FREE ENERGY PREDICTED BY IDOCK:   -0.63 KCAL/MOL
REMARK 927      BINDING AFFINITY PREDICTED BY RF-SCORE:    0.00 PKD
ROOT
HETATM    1  O   UNL     1      -5.441  16.257  70.535  1.00  0.00    -0.178 OA 
HETATM    2  C   UNL     1      -6.202  15.777  69.417  1.00  0.00    -0.144 C  
HETATM    3  H   UNL     1      -5.178  17.156  70.379  1.00  0.00     0.000 HD 
ENDROOT
BRANCH   2   4
HETATM    4  C   UNL     1      -7.406  16.713  69.166  1.00  0.00    -0.217 C  
HETATM    5  C   UNL     1     -10.172  19.863  66.464  1.00  0.00    -0.491 A  
HETATM    6  C   UNL     1      -8.849  20.107  66.119  1.00  0.00    -0.257 A  
HETATM    7  C   UNL     1      -8.715  15.944  68.956  1.00  0.00    -0.236 C  
HETATM    8  C   UNL     1      -9.858  16.939  68.852  1.00  0.00    -0.267 C  
HETATM    9  F   UNL     1     -11.144  20.618  65.934  1.00  0.00     0.044 F  
HETATM   10  C   UNL     1      -7.839  19.314  66.671  1.00  0.00    -0.284 A  
HETATM   11  O   UNL     1      -7.109  17.554  68.037  1.00  0.00    -0.191 OA 
HETATM   12  C   UNL     1      -9.497  18.040  67.899  1.00  0.00    -0.273 A  
HETATM   13  C   UNL     1      -8.161  18.293  67.565  1.00  0.00    -0.239 A  
HETATM   14  C   UNL     1     -10.506  18.843  67.349  1.00  0.00    -0.520 A  
ENDBRANCH   2   4
BRANCH   2  15
HETATM   15  C   UNL     1      -6.629  14.317  69.671  1.00  0.00    -0.137 C  
BRANCH  15  16
HETATM   16  N   UNL     1      -5.905  13.368  68.806  1.00  0.00    -0.075 NA 
HETATM   17  H   UNL     1      -5.499  12.595  69.334  1.00  0.00     0.000 HD 
BRANCH  16  18
HETATM   18  C   UNL     1      -6.805  12.903  67.736  1.00  0.00    -0.138 C  
BRANCH  18  19
HETATM   19  C   UNL     1      -6.757  11.369  67.588  1.00  0.00    -0.075 C  
HETATM   20  H   UNL     1      -5.435   9.956  67.927  1.00  0.00     0.000 HD 
HETATM   21  O   UNL     1      -5.465  10.901  68.018  1.00  0.00    -0.040 OA 
BRANCH  19  22
HETATM   22  C   UNL     1      -7.856  10.655  68.409  1.00  0.00    -0.113 C  
HETATM   23  C   UNL     1      -8.482   9.564  70.547  1.00  0.00    -0.213 C  
HETATM   24  C   UNL     1      -7.329  10.152  69.753  1.00  0.00    -0.159 C  
HETATM   25  C   UNL     1      -9.271   8.628  69.682  1.00  0.00    -0.157 A  
HETATM   26  C   UNL     1      -9.189   8.692  68.284  1.00  0.00    -0.137 A  
HETATM   27  O   UNL     1      -8.377   9.570  67.613  1.00  0.00    -0.123 OA 
HETATM   28  C   UNL     1      -9.920   7.804  67.491  1.00  0.00    -0.242 A  
HETATM   29  C   UNL     1     -10.756   6.860  68.088  1.00  0.00    -0.260 A  
HETATM   30  C   UNL     1     -10.849   6.809  69.473  1.00  0.00    -0.273 A  
HETATM   31  F   UNL     1     -11.650   5.903  70.050  1.00  0.00    -0.432 F  
HETATM   32  C   UNL     1     -10.121   7.683  70.273  1.00  0.00    -0.198 A  
ENDBRANCH  19  22
ENDBRANCH  18  19
ENDBRANCH  16  18
ENDBRANCH  15  16
ENDBRANCH   2  15
TORSDOF 6
ENDMDL
MODEL      292
REMARK 921   NORMALIZED FREE ENERGY PREDICTED BY IDOCK:   -4.04 KCAL/MOL
REMARK 922        TOTAL FREE ENERGY PREDICTED BY IDOCK:   -6.64 KCAL/MOL
REMARK 923 INTER-LIGAND FREE ENERGY PREDICTED BY IDOCK:   -6.08 KCAL/MOL
REMARK 924 INTRA-LIGAND FREE ENERGY PREDICTED BY IDOCK:   -0.56 KCAL/MOL
REMARK 927      BINDING AFFINITY PREDICTED BY RF-SCORE:    0.00 PKD
ROOT
HETATM    1  O   UNL     1      -8.082  10.208  67.560  1.00  0.00    -0.112 OA 
HETATM    2  C   UNL     1      -8.901  10.525  68.695  1.00  0.00    -0.147 C  
HETATM    3  H   UNL     1      -7.392   9.611  67.822  1.00  0.00     0.000 HD 
ENDROOT
BRANCH   2   4
HETATM    4  C   UNL     1      -9.448   9.223  69.324  1.00  0.00    -0.160 C  
HETATM    5  C   UNL     1     -12.628   6.546  72.078  1.00  0.00    -0.163 A  
HETATM    6  C   UNL     1     -12.510   7.780  72.703  1.00  0.00     0.027 A  
HETATM    7  C   UNL     1     -10.128   8.314  68.295  1.00  0.00    -0.231 C  
HETATM    8  C   UNL     1     -10.512   7.009  68.970  1.00  0.00    -0.219 C  
HETATM    9  F   UNL     1     -13.379   5.588  72.640  1.00  0.00    -0.074 F  
HETATM   10  C   UNL     1     -11.730   8.776  72.112  1.00  0.00    -0.433 A  
HETATM   11  O   UNL     1     -10.350   9.569  70.390  1.00  0.00    -0.237 OA 
HETATM   12  C   UNL     1     -11.206   7.286  70.271  1.00  0.00    -0.287 A  
HETATM   13  C   UNL     1     -11.072   8.527  70.907  1.00  0.00    -0.255 A  
HETATM   14  C   UNL     1     -11.983   6.287  70.873  1.00  0.00    -0.122 A  
ENDBRANCH   2   4
BRANCH   2  15
HETATM   15  C   UNL     1     -10.022  11.495  68.269  1.00  0.00    -0.202 C  
BRANCH  15  16
HETATM   16  N   UNL     1      -9.705  12.894  68.606  1.00  0.00    -0.404 NA 
HETATM   17  H   UNL     1      -9.234  12.978  69.507  1.00  0.00     0.000 HD 
BRANCH  16  18
HETATM   18  C   UNL     1      -8.923  13.491  67.509  1.00  0.00    -0.210 C  
BRANCH  18  19
HETATM   19  C   UNL     1      -7.580  14.054  68.017  1.00  0.00    -0.143 C  
HETATM   20  H   UNL     1      -5.684  13.822  67.559  1.00  0.00     0.000 HD 
HETATM   21  O   UNL     1      -6.511  13.475  67.246  1.00  0.00    -0.276 OA 
BRANCH  19  22
HETATM   22  C   UNL     1      -7.504  15.596  67.916  1.00  0.00    -0.133 C  
HETATM   23  C   UNL     1      -8.744  17.733  67.701  1.00  0.00    -0.244 C  
HETATM   24  C   UNL     1      -8.879  16.221  67.679  1.00  0.00    -0.195 C  
HETATM   25  C   UNL     1      -7.596  18.155  66.832  1.00  0.00    -0.239 A  
HETATM   26  C   UNL     1      -6.589  17.248  66.474  1.00  0.00    -0.248 A  
HETATM   27  O   UNL     1      -6.587  15.930  66.852  1.00  0.00    -0.282 OA 
HETATM   28  C   UNL     1      -5.533  17.652  65.653  1.00  0.00    -0.050 A  
HETATM   29  C   UNL     1      -5.465  18.970  65.201  1.00  0.00    -0.226 A  
HETATM   30  C   UNL     1      -6.455  19.871  65.571  1.00  0.00    -0.254 A  
HETATM   31  F   UNL     1      -6.394  21.137  65.137  1.00  0.00    -0.288 F  
HETATM   32  C   UNL     1      -7.515  19.479  66.381  1.00  0.00    -0.277 A  
ENDBRANCH  19  22
ENDBRANCH  18  19
ENDBRANCH  16  18
ENDBRANCH  15  16
ENDBRANCH   2  15
TORSDOF 6
ENDMDL
MODEL      293
REMARK 921   NORMALIZED FREE ENERGY PREDICTED BY IDOCK:   -4.04 KCAL/MOL
REMARK 922        TOTAL FREE ENERGY PREDICTED BY IDOCK:   -6.64 KCAL/MOL
REMARK 923 INTER-LIGAND FREE ENERGY PREDICTED BY IDOCK:   -5.44 KCAL/MOL
REMARK 924 INTRA-LIGAND FREE ENERGY PREDICTED BY IDOCK:   -1.20 KCAL/MOL
REMARK 927      BINDING AFFINITY PREDICTED BY RF-SCORE:    0.00 PKD
ROOT
HETATM    1  O   UNL     1      -8.968   8.855  66.685  1.00  0.00    -0.127 OA 
HETATM    2  C   UNL     1     -10.280   8.484  67.130  1.00  0.00    -0.284 C  
HETATM    3  H   UNL     1      -9.030   9.590  66.086  1.00  0.00     0.000 HD 
ENDROOT
BRANCH   2   4
HETATM    4  C   UNL     1     -10.983   9.707  67.762  1.00  0.00    -0.139 C  
HETATM    5  C   UNL     1     -12.910  12.338  71.534  1.00  0.00    -0.280 A  
HETATM    6  C   UNL     1     -13.161  11.002  71.819  1.00  0.00    -0.554 A  
HETATM    7  C   UNL     1     -10.069  10.934  67.841  1.00  0.00    -0.199 C  
HETATM    8  C   UNL     1     -10.876  12.117  68.346  1.00  0.00    -0.255 C  
HETATM    9  F   UNL     1     -13.379  13.289  72.355  1.00  0.00    -0.522 F  
HETATM   10  C   UNL     1     -12.667  10.015  70.963  1.00  0.00    -0.455 A  
HETATM   11  O   UNL     1     -11.472   9.337  69.064  1.00  0.00     0.187 OA 
HETATM   12  C   UNL     1     -11.671  11.720  69.555  1.00  0.00    -0.408 A  
HETATM   13  C   UNL     1     -11.935  10.372  69.831  1.00  0.00    -0.215 A  
HETATM   14  C   UNL     1     -12.176  12.707  70.413  1.00  0.00    -0.368 A  
ENDBRANCH   2   4
BRANCH   2  15
HETATM   15  C   UNL     1     -10.179   7.291  68.102  1.00  0.00    -0.187 C  
BRANCH  15  16
HETATM   16  N   UNL     1      -9.116   6.346  67.713  1.00  0.00    -0.113 NA 
HETATM   17  H   UNL     1      -8.269   6.823  67.403  1.00  0.00     0.000 HD 
BRANCH  16  18
HETATM   18  C   UNL     1      -8.859   5.419  68.830  1.00  0.00    -0.100 C  
BRANCH  18  19
HETATM   19  C   UNL     1      -9.786   5.712  70.028  1.00  0.00    -0.173 C  
HETATM   20  H   UNL     1     -11.078   4.692  71.099  1.00  0.00     0.000 HD 
HETATM   21  O   UNL     1     -10.507   4.512  70.362  1.00  0.00    -0.071 OA 
BRANCH  19  22
HETATM   22  C   UNL     1      -9.011   6.204  71.273  1.00  0.00    -0.139 C  
HETATM   23  C   UNL     1      -9.113   7.347  73.472  1.00  0.00    -0.259 C  
HETATM   24  C   UNL     1      -9.908   6.993  72.228  1.00  0.00    -0.170 C  
HETATM   25  C   UNL     1      -7.785   7.924  73.081  1.00  0.00    -0.174 A  
HETATM   26  C   UNL     1      -7.251   7.710  71.803  1.00  0.00    -0.064 A  
HETATM   27  O   UNL     1      -7.897   7.003  70.821  1.00  0.00    -0.094 OA 
HETATM   28  C   UNL     1      -6.019   8.265  71.449  1.00  0.00    -0.037 A  
HETATM   29  C   UNL     1      -5.300   9.020  72.376  1.00  0.00    -0.070 A  
HETATM   30  C   UNL     1      -5.823   9.216  73.648  1.00  0.00     0.019 A  
HETATM   31  F   UNL     1      -5.136   9.942  74.541  1.00  0.00    -0.137 F  
HETATM   32  C   UNL     1      -7.052   8.675  74.010  1.00  0.00    -0.058 A  
ENDBRANCH  19  22
ENDBRANCH  18  19
ENDBRANCH  16  18
ENDBRANCH  15  16
ENDBRANCH   2  15
TORSDOF 6
ENDMDL
MODEL      294
REMARK 921   NORMALIZED FREE ENERGY PREDICTED BY IDOCK:   -4.03 KCAL/MOL
REMARK 922        TOTAL FREE ENERGY PREDICTED BY IDOCK:   -6.63 KCAL/MOL
REMARK 923 INTER-LIGAND FREE ENERGY PREDICTED BY IDOCK:   -6.07 KCAL/MOL
REMARK 924 INTRA-LIGAND FREE ENERGY PREDICTED BY IDOCK:   -0.56 KCAL/MOL
REMARK 927      BINDING AFFINITY PREDICTED BY RF-SCORE:    0.00 PKD
ROOT
HETATM    1  O   UNL     1      -8.087  10.242  67.611  1.00  0.00    -0.106 OA 
HETATM    2  C   UNL     1      -8.895  10.633  68.730  1.00  0.00    -0.161 C  
HETATM    3  H   UNL     1      -7.383   9.678  67.908  1.00  0.00     0.000 HD 
ENDROOT
BRANCH   2   4
HETATM    4  C   UNL     1      -9.412   9.375  69.466  1.00  0.00    -0.180 C  
HETATM    5  C   UNL     1      -9.794   4.468  70.265  1.00  0.00    -0.229 A  
HETATM    6  C   UNL     1      -9.680   4.634  68.891  1.00  0.00    -0.236 A  
HETATM    7  C   UNL     1      -8.763   9.190  70.840  1.00  0.00    -0.277 C  
HETATM    8  C   UNL     1      -9.423   8.016  71.541  1.00  0.00    -0.204 C  
HETATM    9  F   UNL     1      -9.979   3.240  70.770  1.00  0.00    -0.244 F  
HETATM   10  C   UNL     1      -9.484   5.915  68.370  1.00  0.00    -0.130 A  
HETATM   11  O   UNL     1      -9.193   8.228  68.626  1.00  0.00    -0.143 OA 
HETATM   12  C   UNL     1      -9.510   6.842  70.611  1.00  0.00    -0.165 A  
HETATM   13  C   UNL     1      -9.410   7.015  69.224  1.00  0.00    -0.145 A  
HETATM   14  C   UNL     1      -9.715   5.556  71.128  1.00  0.00    -0.226 A  
ENDBRANCH   2   4
BRANCH   2  15
HETATM   15  C   UNL     1     -10.039  11.549  68.248  1.00  0.00    -0.199 C  
BRANCH  15  16
HETATM   16  N   UNL     1      -9.807  12.961  68.603  1.00  0.00    -0.401 NA 
HETATM   17  H   UNL     1      -9.377  13.063  69.522  1.00  0.00     0.000 HD 
BRANCH  16  18
HETATM   18  C   UNL     1      -9.016  13.605  67.539  1.00  0.00    -0.209 C  
BRANCH  18  19
HETATM   19  C   UNL     1      -7.646  14.077  68.066  1.00  0.00    -0.143 C  
HETATM   20  H   UNL     1      -5.768  13.825  67.548  1.00  0.00     0.000 HD 
HETATM   21  O   UNL     1      -6.612  13.534  67.223  1.00  0.00    -0.247 OA 
BRANCH  19  22
HETATM   22  C   UNL     1      -7.519  15.618  68.098  1.00  0.00    -0.124 C  
HETATM   23  C   UNL     1      -8.689  17.805  68.097  1.00  0.00    -0.266 C  
HETATM   24  C   UNL     1      -8.876  16.306  67.947  1.00  0.00    -0.183 C  
HETATM   25  C   UNL     1      -7.545  18.265  67.244  1.00  0.00    -0.226 A  
HETATM   26  C   UNL     1      -6.576  17.361  66.786  1.00  0.00    -0.210 A  
HETATM   27  O   UNL     1      -6.612  16.015  67.047  1.00  0.00    -0.238 OA 
HETATM   28  C   UNL     1      -5.523  17.802  65.980  1.00  0.00    -0.242 A  
HETATM   29  C   UNL     1      -5.418  19.151  65.644  1.00  0.00    -0.187 A  
HETATM   30  C   UNL     1      -6.370  20.048  66.113  1.00  0.00    -0.196 A  
HETATM   31  F   UNL     1      -6.273  21.345  65.790  1.00  0.00    -0.295 F  
HETATM   32  C   UNL     1      -7.427  19.620  66.909  1.00  0.00    -0.258 A  
ENDBRANCH  19  22
ENDBRANCH  18  19
ENDBRANCH  16  18
ENDBRANCH  15  16
ENDBRANCH   2  15
TORSDOF 6
ENDMDL
MODEL      295
REMARK 921   NORMALIZED FREE ENERGY PREDICTED BY IDOCK:   -4.02 KCAL/MOL
REMARK 922        TOTAL FREE ENERGY PREDICTED BY IDOCK:   -6.62 KCAL/MOL
REMARK 923 INTER-LIGAND FREE ENERGY PREDICTED BY IDOCK:   -5.15 KCAL/MOL
REMARK 924 INTRA-LIGAND FREE ENERGY PREDICTED BY IDOCK:   -1.47 KCAL/MOL
REMARK 927      BINDING AFFINITY PREDICTED BY RF-SCORE:    0.00 PKD
ROOT
HETATM    1  O   UNL     1      -8.376   5.029  68.352  1.00  0.00    -0.089 OA 
HETATM    2  C   UNL     1      -7.790   6.338  68.346  1.00  0.00    -0.105 C  
HETATM    3  H   UNL     1      -9.322   5.103  68.341  1.00  0.00     0.000 HD 
ENDROOT
BRANCH   2   4
HETATM    4  C   UNL     1      -8.309   7.137  67.128  1.00  0.00    -0.118 C  
HETATM    5  C   UNL     1     -10.214  11.144  64.853  1.00  0.00    -0.303 A  
HETATM    6  C   UNL     1     -10.785  11.103  66.118  1.00  0.00    -0.285 A  
HETATM    7  C   UNL     1      -7.180   7.582  66.193  1.00  0.00    -0.074 C  
HETATM    8  C   UNL     1      -7.789   8.236  64.965  1.00  0.00    -0.126 C  
HETATM    9  F   UNL     1     -10.596  12.093  63.986  1.00  0.00    -0.300 F  
HETATM   10  C   UNL     1     -10.381  10.116  67.020  1.00  0.00    -0.303 A  
HETATM   11  O   UNL     1      -9.068   8.263  67.603  1.00  0.00    -0.131 OA 
HETATM   12  C   UNL     1      -8.833   9.232  65.375  1.00  0.00    -0.230 A  
HETATM   13  C   UNL     1      -9.418   9.178  66.647  1.00  0.00    -0.185 A  
HETATM   14  C   UNL     1      -9.247  10.220  64.471  1.00  0.00    -0.295 A  
ENDBRANCH   2   4
BRANCH   2  15
HETATM   15  C   UNL     1      -6.252   6.218  68.364  1.00  0.00    -0.032 C  
BRANCH  15  16
HETATM   16  N   UNL     1      -5.648   6.978  69.473  1.00  0.00    -0.015 NA 
HETATM   17  H   UNL     1      -6.106   7.877  69.620  1.00  0.00     0.000 HD 
BRANCH  16  18
HETATM   18  C   UNL     1      -5.649   6.144  70.688  1.00  0.00    -0.018 C  
BRANCH  18  19
HETATM   19  C   UNL     1      -5.773   7.006  71.961  1.00  0.00    -0.037 C  
HETATM   20  H   UNL     1      -5.282   8.835  72.485  1.00  0.00     0.000 HD 
HETATM   21  O   UNL     1      -5.205   8.304  71.701  1.00  0.00    -0.033 OA 
BRANCH  19  22
HETATM   22  C   UNL     1      -7.239   7.176  72.424  1.00  0.00    -0.068 C  
HETATM   23  C   UNL     1      -9.354   6.066  73.093  1.00  0.00    -0.139 C  
HETATM   24  C   UNL     1      -7.963   5.834  72.531  1.00  0.00    -0.103 C  
HETATM   25  C   UNL     1     -10.019   7.192  72.358  1.00  0.00    -0.190 A  
HETATM   26  C   UNL     1      -9.268   8.120  71.623  1.00  0.00    -0.167 A  
HETATM   27  O   UNL     1      -7.905   8.057  71.493  1.00  0.00    -0.087 OA 
HETATM   28  C   UNL     1      -9.903   9.156  70.933  1.00  0.00    -0.359 A  
HETATM   29  C   UNL     1     -11.291   9.285  70.990  1.00  0.00    -0.390 A  
HETATM   30  C   UNL     1     -12.032   8.375  71.733  1.00  0.00    -0.325 A  
HETATM   31  F   UNL     1     -13.365   8.495  71.788  1.00  0.00    -0.317 F  
HETATM   32  C   UNL     1     -11.412   7.335  72.418  1.00  0.00    -0.327 A  
ENDBRANCH  19  22
ENDBRANCH  18  19
ENDBRANCH  16  18
ENDBRANCH  15  16
ENDBRANCH   2  15
TORSDOF 6
ENDMDL
MODEL      296
REMARK 921   NORMALIZED FREE ENERGY PREDICTED BY IDOCK:   -4.00 KCAL/MOL
REMARK 922        TOTAL FREE ENERGY PREDICTED BY IDOCK:   -6.59 KCAL/MOL
REMARK 923 INTER-LIGAND FREE ENERGY PREDICTED BY IDOCK:   -5.70 KCAL/MOL
REMARK 924 INTRA-LIGAND FREE ENERGY PREDICTED BY IDOCK:   -0.89 KCAL/MOL
REMARK 927      BINDING AFFINITY PREDICTED BY RF-SCORE:    0.00 PKD
ROOT
HETATM    1  O   UNL     1     -10.865   5.521  70.069  1.00  0.00    -0.317 OA 
HETATM    2  C   UNL     1      -9.748   6.307  69.631  1.00  0.00    -0.152 C  
HETATM    3  H   UNL     1     -11.485   5.422  69.356  1.00  0.00     0.000 HD 
ENDROOT
BRANCH   2   4
HETATM    4  C   UNL     1      -9.113   5.658  68.379  1.00  0.00    -0.117 C  
HETATM    5  C   UNL     1      -9.065   4.143  63.629  1.00  0.00    -0.136 A  
HETATM    6  C   UNL     1     -10.364   3.961  64.086  1.00  0.00    -0.238 A  
HETATM    7  C   UNL     1      -8.043   6.545  67.736  1.00  0.00    -0.115 C  
HETATM    8  C   UNL     1      -7.384   5.778  66.604  1.00  0.00    -0.082 C  
HETATM    9  F   UNL     1      -8.740   3.755  62.387  1.00  0.00    -0.078 F  
HETATM   10  C   UNL     1     -10.699   4.370  65.379  1.00  0.00    -0.145 A  
HETATM   11  O   UNL     1     -10.159   5.340  67.443  1.00  0.00    -0.164 OA 
HETATM   12  C   UNL     1      -8.429   5.146  65.732  1.00  0.00    -0.124 A  
HETATM   13  C   UNL     1      -9.734   4.950  66.202  1.00  0.00    -0.190 A  
HETATM   14  C   UNL     1      -8.095   4.726  64.437  1.00  0.00    -0.110 A  
ENDBRANCH   2   4
BRANCH   2  15
HETATM   15  C   UNL     1      -8.742   6.469  70.789  1.00  0.00    -0.143 C  
BRANCH  15  16
HETATM   16  N   UNL     1      -8.406   7.881  71.040  1.00  0.00    -0.108 NA 
HETATM   17  H   UNL     1      -7.516   8.148  70.620  1.00  0.00     0.000 HD 
BRANCH  16  18
HETATM   18  C   UNL     1      -9.518   8.733  70.582  1.00  0.00    -0.197 C  
BRANCH  18  19
HETATM   19  C   UNL     1      -9.003   9.963  69.809  1.00  0.00    -0.221 C  
HETATM   20  H   UNL     1      -7.548  10.330  68.540  1.00  0.00     0.000 HD 
HETATM   21  O   UNL     1      -7.866   9.572  69.016  1.00  0.00    -0.074 OA 
BRANCH  19  22
HETATM   22  C   UNL     1     -10.079  10.581  68.886  1.00  0.00    -0.202 C  
HETATM   23  C   UNL     1     -11.262  10.481  66.708  1.00  0.00     0.071 C  
HETATM   24  C   UNL     1     -10.116   9.900  67.517  1.00  0.00    -0.244 C  
HETATM   25  C   UNL     1     -11.224  11.979  66.771  1.00  0.00    -0.376 A  
HETATM   26  C   UNL     1     -10.521  12.642  67.787  1.00  0.00    -0.221 A  
HETATM   27  O   UNL     1      -9.805  11.993  68.760  1.00  0.00    -0.158 OA 
HETATM   28  C   UNL     1     -10.484  14.038  67.826  1.00  0.00    -0.236 A  
HETATM   29  C   UNL     1     -11.166  14.782  66.863  1.00  0.00    -0.347 A  
HETATM   30  C   UNL     1     -11.875  14.123  65.867  1.00  0.00    -0.384 A  
HETATM   31  F   UNL     1     -12.530  14.834  64.939  1.00  0.00    -0.392 F  
HETATM   32  C   UNL     1     -11.914  12.734  65.813  1.00  0.00    -0.502 A  
ENDBRANCH  19  22
ENDBRANCH  18  19
ENDBRANCH  16  18
ENDBRANCH  15  16
ENDBRANCH   2  15
TORSDOF 6
ENDMDL
MODEL      297
REMARK 921   NORMALIZED FREE ENERGY PREDICTED BY IDOCK:   -3.99 KCAL/MOL
REMARK 922        TOTAL FREE ENERGY PREDICTED BY IDOCK:   -6.57 KCAL/MOL
REMARK 923 INTER-LIGAND FREE ENERGY PREDICTED BY IDOCK:   -5.97 KCAL/MOL
REMARK 924 INTRA-LIGAND FREE ENERGY PREDICTED BY IDOCK:   -0.61 KCAL/MOL
REMARK 927      BINDING AFFINITY PREDICTED BY RF-SCORE:    0.00 PKD
ROOT
HETATM    1  O   UNL     1     -11.907  16.574  63.910  1.00  0.00    -1.389 OA 
HETATM    2  C   UNL     1     -10.745  15.865  64.361  1.00  0.00     0.377 C  
HETATM    3  H   UNL     1     -12.311  16.101  63.193  1.00  0.00     0.000 HD 
ENDROOT
BRANCH   2   4
HETATM    4  C   UNL     1     -11.133  14.419  64.749  1.00  0.00    -0.394 C  
HETATM    5  C   UNL     1     -10.274   9.871  66.603  1.00  0.00    -0.226 A  
HETATM    6  C   UNL     1      -9.095  10.274  65.989  1.00  0.00    -0.189 A  
HETATM    7  C   UNL     1     -12.037  14.365  65.984  1.00  0.00    -0.370 C  
HETATM    8  C   UNL     1     -12.475  12.928  66.209  1.00  0.00    -0.007 C  
HETATM    9  F   UNL     1     -10.355   8.645  67.138  1.00  0.00    -0.272 F  
HETATM   10  C   UNL     1      -9.013  11.554  65.436  1.00  0.00     0.012 A  
HETATM   11  O   UNL     1      -9.930  13.656  64.948  1.00  0.00    -0.281 OA 
HETATM   12  C   UNL     1     -11.292  12.010  66.129  1.00  0.00    -0.407 A  
HETATM   13  C   UNL     1     -10.110  12.414  65.496  1.00  0.00    -0.267 A  
HETATM   14  C   UNL     1     -11.372  10.721  66.675  1.00  0.00     0.166 A  
ENDBRANCH   2   4
BRANCH   2  15
HETATM   15  C   UNL     1     -10.089  16.634  65.526  1.00  0.00    -0.134 C  
BRANCH  15  16
HETATM   16  N   UNL     1      -8.619  16.521  65.509  1.00  0.00     0.016 NA 
HETATM   17  H   UNL     1      -8.162  17.353  65.883  1.00  0.00     0.000 HD 
BRANCH  16  18
HETATM   18  C   UNL     1      -8.219  15.294  66.222  1.00  0.00     0.351 C  
BRANCH  18  19
HETATM   19  C   UNL     1      -8.206  15.511  67.748  1.00  0.00    -0.147 C  
HETATM   20  H   UNL     1      -7.479  16.858  68.980  1.00  0.00     0.000 HD 
HETATM   21  O   UNL     1      -7.488  16.725  68.039  1.00  0.00    -0.159 OA 
BRANCH  19  22
HETATM   22  C   UNL     1      -9.628  15.603  68.350  1.00  0.00    -0.199 C  
HETATM   23  C   UNL     1     -11.185  16.836  69.835  1.00  0.00     0.124 C  
HETATM   24  C   UNL     1      -9.743  16.736  69.371  1.00  0.00    -0.046 C  
HETATM   25  C   UNL     1     -11.699  15.476  70.201  1.00  0.00    -0.367 A  
HETATM   26  C   UNL     1     -11.070  14.315  69.730  1.00  0.00    -0.128 A  
HETATM   27  O   UNL     1      -9.946  14.327  68.946  1.00  0.00    -0.221 OA 
HETATM   28  C   UNL     1     -11.553  13.054  70.090  1.00  0.00    -0.139 A  
HETATM   29  C   UNL     1     -12.680  12.944  70.904  1.00  0.00    -0.291 A  
HETATM   30  C   UNL     1     -13.312  14.096  71.355  1.00  0.00    -0.331 A  
HETATM   31  F   UNL     1     -14.394  13.994  72.139  1.00  0.00    -0.524 F  
HETATM   32  C   UNL     1     -12.837  15.356  71.010  1.00  0.00    -0.525 A  
ENDBRANCH  19  22
ENDBRANCH  18  19
ENDBRANCH  16  18
ENDBRANCH  15  16
ENDBRANCH   2  15
TORSDOF 6
ENDMDL
MODEL      298
REMARK 921   NORMALIZED FREE ENERGY PREDICTED BY IDOCK:   -3.98 KCAL/MOL
REMARK 922        TOTAL FREE ENERGY PREDICTED BY IDOCK:   -6.56 KCAL/MOL
REMARK 923 INTER-LIGAND FREE ENERGY PREDICTED BY IDOCK:   -5.82 KCAL/MOL
REMARK 924 INTRA-LIGAND FREE ENERGY PREDICTED BY IDOCK:   -0.74 KCAL/MOL
REMARK 927      BINDING AFFINITY PREDICTED BY RF-SCORE:    0.00 PKD
ROOT
HETATM    1  O   UNL     1      -9.757   5.417  70.953  1.00  0.00    -0.165 OA 
HETATM    2  C   UNL     1     -10.020   6.549  70.111  1.00  0.00    -0.167 C  
HETATM    3  H   UNL     1      -9.601   4.650  70.416  1.00  0.00     0.000 HD 
ENDROOT
BRANCH   2   4
HETATM    4  C   UNL     1      -8.849   6.745  69.121  1.00  0.00    -0.134 C  
HETATM    5  C   UNL     1      -6.779   8.237  64.836  1.00  0.00    -0.067 A  
HETATM    6  C   UNL     1      -8.063   7.810  64.524  1.00  0.00    -0.108 A  
HETATM    7  C   UNL     1      -7.887   7.854  69.560  1.00  0.00    -0.110 C  
HETATM    8  C   UNL     1      -6.705   7.885  68.607  1.00  0.00    -0.058 C  
HETATM    9  F   UNL     1      -5.958   8.638  63.855  1.00  0.00    -0.068 F  
HETATM   10  C   UNL     1      -8.916   7.397  65.550  1.00  0.00     0.075 A  
HETATM   11  O   UNL     1      -9.389   7.010  67.814  1.00  0.00    -0.127 OA 
HETATM   12  C   UNL     1      -7.187   7.856  67.187  1.00  0.00    -0.090 A  
HETATM   13  C   UNL     1      -8.477   7.410  66.874  1.00  0.00    -0.123 A  
HETATM   14  C   UNL     1      -6.331   8.262  66.153  1.00  0.00    -0.049 A  
ENDBRANCH   2   4
BRANCH   2  15
HETATM   15  C   UNL     1     -10.274   7.795  70.983  1.00  0.00    -0.197 C  
BRANCH  15  16
HETATM   16  N   UNL     1     -11.515   8.494  70.604  1.00  0.00    -0.353 NA 
HETATM   17  H   UNL     1     -12.108   8.693  71.410  1.00  0.00     0.000 HD 
BRANCH  16  18
HETATM   18  C   UNL     1     -11.174   9.711  69.846  1.00  0.00    -0.207 C  
BRANCH  18  19
HETATM   19  C   UNL     1     -12.326  10.736  69.880  1.00  0.00    -0.271 C  
HETATM   20  H   UNL     1     -13.825  11.140  71.083  1.00  0.00     0.000 HD 
HETATM   21  O   UNL     1     -13.116  10.508  71.062  1.00  0.00    -0.377 OA 
BRANCH  19  22
HETATM   22  C   UNL     1     -11.822  12.198  69.877  1.00  0.00    -0.319 C  
HETATM   23  C   UNL     1     -12.221  14.540  70.592  1.00  0.00    -0.401 C  
HETATM   24  C   UNL     1     -12.825  13.148  70.532  1.00  0.00    -0.027 C  
HETATM   25  C   UNL     1     -11.644  14.903  69.256  1.00  0.00    -0.330 A  
HETATM   26  C   UNL     1     -11.335  13.917  68.310  1.00  0.00    -0.294 A  
HETATM   27  O   UNL     1     -11.558  12.579  68.510  1.00  0.00    -0.276 OA 
HETATM   28  C   UNL     1     -10.811  14.272  67.064  1.00  0.00    -0.297 A  
HETATM   29  C   UNL     1     -10.571  15.613  66.764  1.00  0.00    -0.307 A  
HETATM   30  C   UNL     1     -10.862  16.587  67.710  1.00  0.00    -0.304 A  
HETATM   31  F   UNL     1     -10.635  17.876  67.424  1.00  0.00    -0.356 F  
HETATM   32  C   UNL     1     -11.392  16.247  68.950  1.00  0.00    -0.317 A  
ENDBRANCH  19  22
ENDBRANCH  18  19
ENDBRANCH  16  18
ENDBRANCH  15  16
ENDBRANCH   2  15
TORSDOF 6
ENDMDL
MODEL      299
REMARK 921   NORMALIZED FREE ENERGY PREDICTED BY IDOCK:   -3.96 KCAL/MOL
REMARK 922        TOTAL FREE ENERGY PREDICTED BY IDOCK:   -6.53 KCAL/MOL
REMARK 923 INTER-LIGAND FREE ENERGY PREDICTED BY IDOCK:   -5.83 KCAL/MOL
REMARK 924 INTRA-LIGAND FREE ENERGY PREDICTED BY IDOCK:   -0.70 KCAL/MOL
REMARK 927      BINDING AFFINITY PREDICTED BY RF-SCORE:    0.00 PKD
ROOT
HETATM    1  O   UNL     1     -12.277  11.555  68.454  1.00  0.00    -0.540 OA 
HETATM    2  C   UNL     1     -10.910  11.764  68.072  1.00  0.00    -0.213 C  
HETATM    3  H   UNL     1     -12.433  11.945  69.306  1.00  0.00     0.000 HD 
ENDROOT
BRANCH   2   4
HETATM    4  C   UNL     1     -10.586  13.276  68.102  1.00  0.00    -0.249 C  
HETATM    5  C   UNL     1      -7.547  17.229  68.035  1.00  0.00    -0.197 A  
HETATM    6  C   UNL     1      -6.869  16.224  68.713  1.00  0.00    -0.151 A  
HETATM    7  C   UNL     1     -10.953  13.982  66.793  1.00  0.00    -0.298 C  
HETATM    8  C   UNL     1     -10.727  15.474  66.959  1.00  0.00    -0.321 C  
HETATM    9  F   UNL     1      -6.988  18.442  67.920  1.00  0.00    -0.202 F  
HETATM   10  C   UNL     1      -7.453  14.960  68.828  1.00  0.00    -0.132 A  
HETATM   11  O   UNL     1      -9.190  13.442  68.411  1.00  0.00    -0.195 OA 
HETATM   12  C   UNL     1      -9.381  15.727  67.573  1.00  0.00    -0.210 A  
HETATM   13  C   UNL     1      -8.707  14.716  68.270  1.00  0.00    -0.173 A  
HETATM   14  C   UNL     1      -8.795  16.996  67.468  1.00  0.00    -0.214 A  
ENDBRANCH   2   4
BRANCH   2  15
HETATM   15  C   UNL     1     -10.657  11.131  66.688  1.00  0.00    -0.264 C  
BRANCH  15  16
HETATM   16  N   UNL     1     -10.359   9.691  66.783  1.00  0.00    -0.236 NA 
HETATM   17  H   UNL     1     -11.174   9.113  66.582  1.00  0.00     0.000 HD 
BRANCH  16  18
HETATM   18  C   UNL     1      -9.218   9.374  65.905  1.00  0.00    -0.213 C  
BRANCH  18  19
HETATM   19  C   UNL     1      -7.964   9.007  66.724  1.00  0.00    -0.107 C  
HETATM   20  H   UNL     1      -7.028   9.744  68.286  1.00  0.00     0.000 HD 
HETATM   21  O   UNL     1      -7.800   9.971  67.782  1.00  0.00    -0.094 OA 
BRANCH  19  22
HETATM   22  C   UNL     1      -8.046   7.589  67.336  1.00  0.00    -0.116 C  
HETATM   23  C   UNL     1      -8.825   5.249  67.073  1.00  0.00    -0.109 C  
HETATM   24  C   UNL     1      -8.879   6.642  66.472  1.00  0.00    -0.144 C  
HETATM   25  C   UNL     1      -9.102   5.318  68.546  1.00  0.00    -0.127 A  
HETATM   26  C   UNL     1      -8.960   6.520  69.252  1.00  0.00    -0.131 A  
HETATM   27  O   UNL     1      -8.599   7.705  68.665  1.00  0.00    -0.128 OA 
HETATM   28  C   UNL     1      -9.235   6.572  70.621  1.00  0.00    -0.163 A  
HETATM   29  C   UNL     1      -9.631   5.419  71.299  1.00  0.00    -0.205 A  
HETATM   30  C   UNL     1      -9.754   4.225  70.600  1.00  0.00    -0.204 A  
HETATM   31  F   UNL     1     -10.136   3.116  71.247  1.00  0.00    -0.237 F  
HETATM   32  C   UNL     1      -9.491   4.162  69.236  1.00  0.00    -0.258 A  
ENDBRANCH  19  22
ENDBRANCH  18  19
ENDBRANCH  16  18
ENDBRANCH  15  16
ENDBRANCH   2  15
TORSDOF 6
ENDMDL
MODEL      300
REMARK 921   NORMALIZED FREE ENERGY PREDICTED BY IDOCK:   -3.90 KCAL/MOL
REMARK 922        TOTAL FREE ENERGY PREDICTED BY IDOCK:   -6.45 KCAL/MOL
REMARK 923 INTER-LIGAND FREE ENERGY PREDICTED BY IDOCK:   -7.73 KCAL/MOL
REMARK 924 INTRA-LIGAND FREE ENERGY PREDICTED BY IDOCK:    1.28 KCAL/MOL
REMARK 927      BINDING AFFINITY PREDICTED BY RF-SCORE:    0.00 PKD
ROOT
HETATM    1  O   UNL     1     -11.035  11.742  63.023  1.00  0.00    -0.662 OA 
HETATM    2  C   UNL     1     -11.156  12.331  64.326  1.00  0.00    -0.348 C  
HETATM    3  H   UNL     1     -10.118  11.678  62.786  1.00  0.00     0.000 HD 
ENDROOT
BRANCH   2   4
HETATM    4  C   UNL     1     -10.333  11.513  65.347  1.00  0.00    -0.273 C  
HETATM    5  C   UNL     1      -6.156   9.499  67.183  1.00  0.00    -0.063 A  
HETATM    6  C   UNL     1      -6.040   9.451  65.800  1.00  0.00    -0.056 A  
HETATM    7  C   UNL     1     -10.135  12.255  66.673  1.00  0.00    -0.231 C  
HETATM    8  C   UNL     1      -9.439  11.330  67.655  1.00  0.00    -0.173 C  
HETATM    9  F   UNL     1      -5.195   8.961  67.946  1.00  0.00    -0.033 F  
HETATM   10  C   UNL     1      -7.043  10.017  65.008  1.00  0.00    -0.136 A  
HETATM   11  O   UNL     1      -9.071  11.165  64.751  1.00  0.00    -0.174 OA 
HETATM   12  C   UNL     1      -8.257  10.678  67.000  1.00  0.00    -0.124 A  
HETATM   13  C   UNL     1      -8.151  10.618  65.605  1.00  0.00    -0.146 A  
HETATM   14  C   UNL     1      -7.253  10.102  67.790  1.00  0.00    -0.087 A  
ENDBRANCH   2   4
BRANCH   2  15
HETATM   15  C   UNL     1     -12.646  12.434  64.711  1.00  0.00    -0.335 C  
BRANCH  15  16
HETATM   16  N   UNL     1     -13.028  13.806  65.090  1.00  0.00    -0.762 NA 
HETATM   17  H   UNL     1     -13.720  13.822  65.839  1.00  0.00     0.000 HD 
BRANCH  16  18
HETATM   18  C   UNL     1     -11.816  14.571  65.430  1.00  0.00    -0.344 C  
BRANCH  18  19
HETATM   19  C   UNL     1     -11.748  14.875  66.940  1.00  0.00    -0.248 C  
HETATM   20  H   UNL     1     -11.839  13.827  68.599  1.00  0.00     0.000 HD 
HETATM   21  O   UNL     1     -11.880  13.640  67.669  1.00  0.00    -0.340 OA 
BRANCH  19  22
HETATM   22  C   UNL     1     -10.428  15.569  67.350  1.00  0.00    -0.281 C  
HETATM   23  C   UNL     1      -8.806  16.057  69.162  1.00  0.00    -0.245 C  
HETATM   24  C   UNL     1     -10.164  15.453  68.851  1.00  0.00    -0.219 C  
HETATM   25  C   UNL     1      -8.683  17.400  68.506  1.00  0.00    -0.277 A  
HETATM   26  C   UNL     1      -9.514  17.761  67.436  1.00  0.00    -0.254 A  
HETATM   27  O   UNL     1     -10.501  16.950  66.937  1.00  0.00    -0.312 OA 
HETATM   28  C   UNL     1      -9.397  19.021  66.844  1.00  0.00    -0.346 A  
HETATM   29  C   UNL     1      -8.435  19.921  67.301  1.00  0.00    -0.375 A  
HETATM   30  C   UNL     1      -7.601  19.555  68.350  1.00  0.00    -0.330 A  
HETATM   31  F   UNL     1      -6.677  20.418  68.794  1.00  0.00    -0.334 F  
HETATM   32  C   UNL     1      -7.713  18.307  68.953  1.00  0.00    -0.223 A  
ENDBRANCH  19  22
ENDBRANCH  18  19
ENDBRANCH  16  18
ENDBRANCH  15  16
ENDBRANCH   2  15
TORSDOF 6
ENDMDL
MODEL      301
REMARK 921   NORMALIZED FREE ENERGY PREDICTED BY IDOCK:   -3.89 KCAL/MOL
REMARK 922        TOTAL FREE ENERGY PREDICTED BY IDOCK:   -6.44 KCAL/MOL
REMARK 923 INTER-LIGAND FREE ENERGY PREDICTED BY IDOCK:   -5.60 KCAL/MOL
REMARK 924 INTRA-LIGAND FREE ENERGY PREDICTED BY IDOCK:   -0.84 KCAL/MOL
REMARK 927      BINDING AFFINITY PREDICTED BY RF-SCORE:    0.00 PKD
ROOT
HETATM    1  O   UNL     1     -10.103  11.385  70.006  1.00  0.00     0.126 OA 
HETATM    2  C   UNL     1      -9.062  11.124  69.055  1.00  0.00    -0.023 C  
HETATM    3  H   UNL     1     -10.454  10.564  70.329  1.00  0.00     0.000 HD 
ENDROOT
BRANCH   2   4
HETATM    4  C   UNL     1      -7.979  10.228  69.700  1.00  0.00    -0.154 C  
HETATM    5  C   UNL     1      -6.049   5.891  71.227  1.00  0.00    -0.034 A  
HETATM    6  C   UNL     1      -7.421   5.800  71.422  1.00  0.00    -0.096 A  
HETATM    7  C   UNL     1      -6.750  10.053  68.803  1.00  0.00    -0.049 C  
HETATM    8  C   UNL     1      -5.691   9.277  69.567  1.00  0.00    -0.034 C  
HETATM    9  F   UNL     1      -5.258   4.880  71.614  1.00  0.00    -0.004 F  
HETATM   10  C   UNL     1      -8.242   6.854  71.013  1.00  0.00    -0.118 A  
HETATM   11  O   UNL     1      -8.568   8.957  70.032  1.00  0.00    -0.124 OA 
HETATM   12  C   UNL     1      -6.302   8.068  70.212  1.00  0.00    -0.036 A  
HETATM   13  C   UNL     1      -7.685   7.987  70.421  1.00  0.00    -0.085 A  
HETATM   14  C   UNL     1      -5.482   7.012  70.631  1.00  0.00    -0.024 A  
ENDBRANCH   2   4
BRANCH   2  15
HETATM   15  C   UNL     1      -8.492  12.458  68.532  1.00  0.00    -0.069 C  
BRANCH  15  16
HETATM   16  N   UNL     1      -8.873  12.713  67.131  1.00  0.00    -0.197 NA 
HETATM   17  H   UNL     1      -9.716  12.207  66.861  1.00  0.00     0.000 HD 
BRANCH  16  18
HETATM   18  C   UNL     1      -9.000  14.166  66.921  1.00  0.00    -0.230 C  
BRANCH  18  19
HETATM   19  C   UNL     1     -10.474  14.581  66.739  1.00  0.00    -0.270 C  
HETATM   20  H   UNL     1     -12.170  13.657  66.381  1.00  0.00     0.000 HD 
HETATM   21  O   UNL     1     -11.262  13.401  66.493  1.00  0.00    -0.296 OA 
BRANCH  19  22
HETATM   22  C   UNL     1     -11.040  15.324  67.972  1.00  0.00    -0.312 C  
HETATM   23  C   UNL     1     -10.570  16.779  69.925  1.00  0.00    -0.104 C  
HETATM   24  C   UNL     1      -9.935  15.981  68.800  1.00  0.00    -0.224 C  
HETATM   25  C   UNL     1     -11.600  15.943  70.625  1.00  0.00    -0.426 A  
HETATM   26  C   UNL     1     -12.156  14.814  70.008  1.00  0.00    -0.329 A  
HETATM   27  O   UNL     1     -11.791  14.375  68.761  1.00  0.00    -0.309 OA 
HETATM   28  C   UNL     1     -13.105  14.038  70.678  1.00  0.00    -0.178 A  
HETATM   29  C   UNL     1     -13.521  14.395  71.960  1.00  0.00    -0.490 A  
HETATM   30  C   UNL     1     -12.981  15.525  72.563  1.00  0.00    -0.428 A  
HETATM   31  F   UNL     1     -13.377  15.870  73.795  1.00  0.00    -0.571 F  
HETATM   32  C   UNL     1     -12.030  16.301  71.910  1.00  0.00    -0.513 A  
ENDBRANCH  19  22
ENDBRANCH  18  19
ENDBRANCH  16  18
ENDBRANCH  15  16
ENDBRANCH   2  15
TORSDOF 6
ENDMDL
MODEL      302
REMARK 921   NORMALIZED FREE ENERGY PREDICTED BY IDOCK:   -3.79 KCAL/MOL
REMARK 922        TOTAL FREE ENERGY PREDICTED BY IDOCK:   -6.31 KCAL/MOL
REMARK 923 INTER-LIGAND FREE ENERGY PREDICTED BY IDOCK:   -5.84 KCAL/MOL
REMARK 924 INTRA-LIGAND FREE ENERGY PREDICTED BY IDOCK:   -0.47 KCAL/MOL
REMARK 927      BINDING AFFINITY PREDICTED BY RF-SCORE:    0.00 PKD
ROOT
HETATM    1  O   UNL     1      -9.172   6.674  71.569  1.00  0.00    -0.147 OA 
HETATM    2  C   UNL     1      -9.749   6.907  70.276  1.00  0.00    -0.172 C  
HETATM    3  H   UNL     1      -9.593   5.926  71.975  1.00  0.00     0.000 HD 
ENDROOT
BRANCH   2   4
HETATM    4  C   UNL     1      -9.642   5.626  69.418  1.00  0.00    -0.143 C  
HETATM    5  C   UNL     1      -9.603   3.065  65.139  1.00  0.00    -0.048 A  
HETATM    6  C   UNL     1     -10.512   4.101  64.968  1.00  0.00    -0.187 A  
HETATM    7  C   UNL     1      -8.209   5.088  69.340  1.00  0.00    -0.082 C  
HETATM    8  C   UNL     1      -8.221   3.764  68.596  1.00  0.00    -0.084 C  
HETATM    9  F   UNL     1      -9.434   2.166  64.159  1.00  0.00    -0.113 F  
HETATM   10  C   UNL     1     -10.683   5.039  65.990  1.00  0.00    -0.241 A  
HETATM   11  O   UNL     1     -10.166   5.904  68.107  1.00  0.00    -0.152 OA 
HETATM   12  C   UNL     1      -9.023   3.890  67.334  1.00  0.00    -0.153 A  
HETATM   13  C   UNL     1      -9.950   4.927  67.171  1.00  0.00    -0.197 A  
HETATM   14  C   UNL     1      -8.862   2.947  66.309  1.00  0.00    -0.146 A  
ENDBRANCH   2   4
BRANCH   2  15
HETATM   15  C   UNL     1      -9.064   8.122  69.616  1.00  0.00    -0.151 C  
BRANCH  15  16
HETATM   16  N   UNL     1      -9.845   9.360  69.787  1.00  0.00    -0.188 NA 
HETATM   17  H   UNL     1      -9.959   9.613  70.768  1.00  0.00     0.000 HD 
BRANCH  16  18
HETATM   18  C   UNL     1      -9.222  10.439  68.999  1.00  0.00    -0.187 C  
BRANCH  18  19
HETATM   19  C   UNL     1     -10.253  11.140  68.093  1.00  0.00    -0.181 C  
HETATM   20  H   UNL     1     -12.193  11.449  68.132  1.00  0.00     0.000 HD 
HETATM   21  O   UNL     1     -11.558  11.016  68.690  1.00  0.00    -0.279 OA 
BRANCH  19  22
HETATM   22  C   UNL     1      -9.933  12.638  67.875  1.00  0.00    -0.228 C  
HETATM   23  C   UNL     1      -9.986  14.936  68.805  1.00  0.00    -0.228 C  
HETATM   24  C   UNL     1     -10.429  13.502  69.034  1.00  0.00    -0.075 C  
HETATM   25  C   UNL     1     -10.310  15.352  67.401  1.00  0.00    -0.262 A  
HETATM   26  C   UNL     1     -10.545  14.399  66.401  1.00  0.00    -0.297 A  
HETATM   27  O   UNL     1     -10.531  13.046  66.625  1.00  0.00    -0.260 OA 
HETATM   28  C   UNL     1     -10.859  14.801  65.100  1.00  0.00    -0.417 A  
HETATM   29  C   UNL     1     -10.918  16.159  64.784  1.00  0.00    -0.330 A  
HETATM   30  C   UNL     1     -10.668  17.102  65.773  1.00  0.00    -0.138 A  
HETATM   31  F   UNL     1     -10.726  18.406  65.473  1.00  0.00    -0.456 F  
HETATM   32  C   UNL     1     -10.362  16.713  67.073  1.00  0.00    -0.301 A  
ENDBRANCH  19  22
ENDBRANCH  18  19
ENDBRANCH  16  18
ENDBRANCH  15  16
ENDBRANCH   2  15
TORSDOF 6
ENDMDL
MODEL      303
REMARK 921   NORMALIZED FREE ENERGY PREDICTED BY IDOCK:   -3.70 KCAL/MOL
REMARK 922        TOTAL FREE ENERGY PREDICTED BY IDOCK:   -6.18 KCAL/MOL
REMARK 923 INTER-LIGAND FREE ENERGY PREDICTED BY IDOCK:   -5.51 KCAL/MOL
REMARK 924 INTRA-LIGAND FREE ENERGY PREDICTED BY IDOCK:   -0.67 KCAL/MOL
REMARK 927      BINDING AFFINITY PREDICTED BY RF-SCORE:    0.00 PKD
ROOT
HETATM    1  O   UNL     1      -9.501   5.296  71.533  1.00  0.00    -0.145 OA 
HETATM    2  C   UNL     1      -9.642   6.217  70.442  1.00  0.00    -0.164 C  
HETATM    3  H   UNL     1      -9.695   4.416  71.235  1.00  0.00     0.000 HD 
ENDROOT
BRANCH   2   4
HETATM    4  C   UNL     1      -8.739   5.776  69.267  1.00  0.00    -0.113 C  
HETATM    5  C   UNL     1      -7.849   4.209  64.618  1.00  0.00    -0.085 A  
HETATM    6  C   UNL     1      -9.044   3.620  65.008  1.00  0.00    -0.142 A  
HETATM    7  C   UNL     1      -7.978   6.947  68.639  1.00  0.00    -0.120 C  
HETATM    8  C   UNL     1      -7.022   6.406  67.591  1.00  0.00    -0.078 C  
HETATM    9  F   UNL     1      -7.325   3.911  63.420  1.00  0.00    -0.047 F  
HETATM   10  C   UNL     1      -9.589   3.936  66.255  1.00  0.00    -0.198 A  
HETATM   11  O   UNL     1      -9.551   5.098  68.291  1.00  0.00    -0.123 OA 
HETATM   12  C   UNL     1      -7.734   5.435  66.696  1.00  0.00    -0.100 A  
HETATM   13  C   UNL     1      -8.931   4.830  67.100  1.00  0.00    -0.112 A  
HETATM   14  C   UNL     1      -7.187   5.108  65.447  1.00  0.00    -0.068 A  
ENDBRANCH   2   4
BRANCH   2  15
HETATM   15  C   UNL     1      -9.327   7.647  70.928  1.00  0.00    -0.157 C  
BRANCH  15  16
HETATM   16  N   UNL     1     -10.442   8.577  70.677  1.00  0.00    -0.197 NA 
HETATM   17  H   UNL     1     -11.104   8.606  71.453  1.00  0.00     0.000 HD 
BRANCH  16  18
HETATM   18  C   UNL     1      -9.899   9.909  70.355  1.00  0.00    -0.123 C  
BRANCH  18  19
HETATM   19  C   UNL     1      -9.834  10.136  68.832  1.00  0.00    -0.189 C  
HETATM   20  H   UNL     1     -10.609   9.284  67.240  1.00  0.00     0.000 HD 
HETATM   21  O   UNL     1     -10.648   9.144  68.179  1.00  0.00    -0.219 OA 
BRANCH  19  22
HETATM   22  C   UNL     1     -10.320  11.546  68.419  1.00  0.00    -0.202 C  
HETATM   23  C   UNL     1     -11.833  12.891  66.986  1.00  0.00    -0.437 C  
HETATM   24  C   UNL     1     -11.319  11.489  67.263  1.00  0.00    -0.359 C  
HETATM   25  C   UNL     1     -10.682  13.849  66.902  1.00  0.00    -0.284 A  
HETATM   26  C   UNL     1      -9.434  13.529  67.454  1.00  0.00    -0.225 A  
HETATM   27  O   UNL     1      -9.162  12.334  68.070  1.00  0.00    -0.182 OA 
HETATM   28  C   UNL     1      -8.367  14.426  67.357  1.00  0.00    -0.216 A  
HETATM   29  C   UNL     1      -8.545  15.658  66.727  1.00  0.00    -0.309 A  
HETATM   30  C   UNL     1      -9.788  15.980  66.196  1.00  0.00    -0.325 A  
HETATM   31  F   UNL     1      -9.962  17.161  65.588  1.00  0.00    -0.258 F  
HETATM   32  C   UNL     1     -10.855  15.092  66.279  1.00  0.00    -0.333 A  
ENDBRANCH  19  22
ENDBRANCH  18  19
ENDBRANCH  16  18
ENDBRANCH  15  16
ENDBRANCH   2  15
TORSDOF 6
ENDMDL
MODEL      304
REMARK 921   NORMALIZED FREE ENERGY PREDICTED BY IDOCK:   -3.69 KCAL/MOL
REMARK 922        TOTAL FREE ENERGY PREDICTED BY IDOCK:   -6.17 KCAL/MOL
REMARK 923 INTER-LIGAND FREE ENERGY PREDICTED BY IDOCK:   -5.58 KCAL/MOL
REMARK 924 INTRA-LIGAND FREE ENERGY PREDICTED BY IDOCK:   -0.59 KCAL/MOL
REMARK 927      BINDING AFFINITY PREDICTED BY RF-SCORE:    0.00 PKD
ROOT
HETATM    1  O   UNL     1      -7.186  14.447  70.279  1.00  0.00    -0.393 OA 
HETATM    2  C   UNL     1      -6.583  14.651  68.993  1.00  0.00    -0.102 C  
HETATM    3  H   UNL     1      -6.818  15.060  70.904  1.00  0.00     0.000 HD 
ENDROOT
BRANCH   2   4
HETATM    4  C   UNL     1      -6.767  16.124  68.559  1.00  0.00    -0.126 C  
HETATM    5  C   UNL     1      -6.476  19.946  65.370  1.00  0.00    -0.264 A  
HETATM    6  C   UNL     1      -5.370  19.143  65.122  1.00  0.00    -0.212 A  
HETATM    7  C   UNL     1      -8.234  16.482  68.301  1.00  0.00    -0.185 C  
HETATM    8  C   UNL     1      -8.334  17.970  68.014  1.00  0.00    -0.263 C  
HETATM    9  F   UNL     1      -6.624  21.094  64.694  1.00  0.00    -0.283 F  
HETATM   10  C   UNL     1      -5.222  17.945  65.825  1.00  0.00    -0.225 A  
HETATM   11  O   UNL     1      -5.959  16.366  67.394  1.00  0.00    -0.139 OA 
HETATM   12  C   UNL     1      -7.297  18.371  67.007  1.00  0.00    -0.223 A  
HETATM   13  C   UNL     1      -6.175  17.566  66.771  1.00  0.00    -0.183 A  
HETATM   14  C   UNL     1      -7.437  19.576  66.305  1.00  0.00    -0.291 A  
ENDBRANCH   2   4
BRANCH   2  15
HETATM   15  C   UNL     1      -7.180  13.655  67.978  1.00  0.00    -0.130 C  
BRANCH  15  16
HETATM   16  N   UNL     1      -8.245  12.827  68.572  1.00  0.00    -0.295 NA 
HETATM   17  H   UNL     1      -8.503  13.142  69.507  1.00  0.00     0.000 HD 
BRANCH  16  18
HETATM   18  C   UNL     1      -9.398  12.790  67.655  1.00  0.00    -0.191 C  
BRANCH  18  19
HETATM   19  C   UNL     1     -10.253  11.526  67.879  1.00  0.00    -0.184 C  
HETATM   20  H   UNL     1     -11.791  10.683  66.993  1.00  0.00     0.000 HD 
HETATM   21  O   UNL     1     -11.264  11.462  66.856  1.00  0.00    -0.296 OA 
BRANCH  19  22
HETATM   22  C   UNL     1      -9.414  10.227  67.848  1.00  0.00    -0.141 C  
HETATM   23  C   UNL     1      -7.776   8.834  66.612  1.00  0.00    -0.093 C  
HETATM   24  C   UNL     1      -8.658  10.067  66.529  1.00  0.00    -0.131 C  
HETATM   25  C   UNL     1      -8.568   7.674  67.138  1.00  0.00    -0.121 A  
HETATM   26  C   UNL     1      -9.762   7.876  67.844  1.00  0.00    -0.155 A  
HETATM   27  O   UNL     1     -10.304   9.113  68.078  1.00  0.00    -0.201 OA 
HETATM   28  C   UNL     1     -10.497   6.785  68.317  1.00  0.00    -0.243 A  
HETATM   29  C   UNL     1     -10.033   5.487  68.106  1.00  0.00    -0.197 A  
HETATM   30  C   UNL     1      -8.841   5.290  67.420  1.00  0.00    -0.105 A  
HETATM   31  F   UNL     1      -8.394   4.044  67.214  1.00  0.00    -0.097 F  
HETATM   32  C   UNL     1      -8.105   6.367  66.938  1.00  0.00    -0.109 A  
ENDBRANCH  19  22
ENDBRANCH  18  19
ENDBRANCH  16  18
ENDBRANCH  15  16
ENDBRANCH   2  15
TORSDOF 6
ENDMDL
MODEL      305
REMARK 921   NORMALIZED FREE ENERGY PREDICTED BY IDOCK:   -3.64 KCAL/MOL
REMARK 922        TOTAL FREE ENERGY PREDICTED BY IDOCK:   -6.10 KCAL/MOL
REMARK 923 INTER-LIGAND FREE ENERGY PREDICTED BY IDOCK:   -5.77 KCAL/MOL
REMARK 924 INTRA-LIGAND FREE ENERGY PREDICTED BY IDOCK:   -0.33 KCAL/MOL
REMARK 927      BINDING AFFINITY PREDICTED BY RF-SCORE:    0.00 PKD
ROOT
HETATM    1  O   UNL     1     -10.321   9.838  64.569  1.00  0.00    -0.242 OA 
HETATM    2  C   UNL     1      -8.889   9.816  64.660  1.00  0.00    -0.212 C  
HETATM    3  H   UNL     1     -10.633   9.001  64.247  1.00  0.00     0.000 HD 
ENDROOT
BRANCH   2   4
HETATM    4  C   UNL     1      -8.441   8.634  65.550  1.00  0.00    -0.165 C  
HETATM    5  C   UNL     1      -6.766   4.012  66.385  1.00  0.00    -0.053 A  
HETATM    6  C   UNL     1      -7.574   3.938  65.258  1.00  0.00    -0.081 A  
HETATM    7  C   UNL     1      -7.068   8.865  66.188  1.00  0.00    -0.085 C  
HETATM    8  C   UNL     1      -6.772   7.723  67.144  1.00  0.00    -0.068 C  
HETATM    9  F   UNL     1      -6.225   2.892  66.885  1.00  0.00    -0.023 F  
HETATM   10  C   UNL     1      -8.132   5.109  64.738  1.00  0.00    -0.117 A  
HETATM   11  O   UNL     1      -8.453   7.431  64.759  1.00  0.00    -0.047 OA 
HETATM   12  C   UNL     1      -7.056   6.408  66.480  1.00  0.00    -0.068 A  
HETATM   13  C   UNL     1      -7.883   6.336  65.352  1.00  0.00    -0.104 A  
HETATM   14  C   UNL     1      -6.504   5.230  67.002  1.00  0.00    -0.041 A  
ENDBRANCH   2   4
BRANCH   2  15
HETATM   15  C   UNL     1      -8.383  11.176  65.182  1.00  0.00     0.190 C  
BRANCH  15  16
HETATM   16  N   UNL     1      -9.331  11.797  66.124  1.00  0.00    -0.225 NA 
HETATM   17  H   UNL     1      -8.875  12.118  66.978  1.00  0.00     0.000 HD 
BRANCH  16  18
HETATM   18  C   UNL     1     -10.057  12.880  65.437  1.00  0.00    -0.251 C  
BRANCH  18  19
HETATM   19  C   UNL     1     -10.475  13.990  66.422  1.00  0.00    -0.284 C  
HETATM   20  H   UNL     1     -10.487  14.219  68.373  1.00  0.00     0.000 HD 
HETATM   21  O   UNL     1     -10.229  13.535  67.766  1.00  0.00    -0.233 OA 
BRANCH  19  22
HETATM   22  C   UNL     1      -9.714  15.315  66.186  1.00  0.00    -0.314 C  
HETATM   23  C   UNL     1      -7.580  16.560  66.408  1.00  0.00    -0.249 C  
HETATM   24  C   UNL     1      -8.302  15.275  66.772  1.00  0.00    -0.258 C  
HETATM   25  C   UNL     1      -8.456  17.740  66.708  1.00  0.00    -0.269 A  
HETATM   26  C   UNL     1      -9.843  17.593  66.851  1.00  0.00    -0.306 A  
HETATM   27  O   UNL     1     -10.490  16.387  66.763  1.00  0.00    -0.292 OA 
HETATM   28  C   UNL     1     -10.644  18.699  67.143  1.00  0.00    -0.468 A  
HETATM   29  C   UNL     1     -10.070  19.964  67.273  1.00  0.00    -0.569 A  
HETATM   30  C   UNL     1      -8.697  20.110  67.114  1.00  0.00    -0.344 A  
HETATM   31  F   UNL     1      -8.142  21.322  67.240  1.00  0.00    -0.335 F  
HETATM   32  C   UNL     1      -7.888  19.015  66.831  1.00  0.00    -0.256 A  
ENDBRANCH  19  22
ENDBRANCH  18  19
ENDBRANCH  16  18
ENDBRANCH  15  16
ENDBRANCH   2  15
TORSDOF 6
ENDMDL
MODEL      306
REMARK 921   NORMALIZED FREE ENERGY PREDICTED BY IDOCK:   -3.53 KCAL/MOL
REMARK 922        TOTAL FREE ENERGY PREDICTED BY IDOCK:   -5.96 KCAL/MOL
REMARK 923 INTER-LIGAND FREE ENERGY PREDICTED BY IDOCK:   -5.07 KCAL/MOL
REMARK 924 INTRA-LIGAND FREE ENERGY PREDICTED BY IDOCK:   -0.89 KCAL/MOL
REMARK 927      BINDING AFFINITY PREDICTED BY RF-SCORE:    0.00 PKD
ROOT
HETATM    1  O   UNL     1      -9.604   7.127  72.154  1.00  0.00    -0.144 OA 
HETATM    2  C   UNL     1      -8.729   7.401  71.051  1.00  0.00    -0.139 C  
HETATM    3  H   UNL     1     -10.422   6.769  71.831  1.00  0.00     0.000 HD 
ENDROOT
BRANCH   2   4
HETATM    4  C   UNL     1      -8.526   6.116  70.214  1.00  0.00    -0.126 C  
HETATM    5  C   UNL     1      -8.548   3.431  66.012  1.00  0.00    -0.118 A  
HETATM    6  C   UNL     1      -9.607   4.324  65.913  1.00  0.00    -0.191 A  
HETATM    7  C   UNL     1      -7.047   5.780  70.002  1.00  0.00    -0.067 C  
HETATM    8  C   UNL     1      -6.944   4.442  69.292  1.00  0.00    -0.050 C  
HETATM    9  F   UNL     1      -8.350   2.529  65.040  1.00  0.00    -0.084 F  
HETATM   10  C   UNL     1      -9.807   5.265  66.926  1.00  0.00    -0.191 A  
HETATM   11  O   UNL     1      -9.212   6.270  68.958  1.00  0.00    -0.128 OA 
HETATM   12  C   UNL     1      -7.876   4.408  68.117  1.00  0.00    -0.079 A  
HETATM   13  C   UNL     1      -8.953   5.300  68.028  1.00  0.00    -0.109 A  
HETATM   14  C   UNL     1      -7.684   3.461  67.102  1.00  0.00    -0.079 A  
ENDBRANCH   2   4
BRANCH   2  15
HETATM   15  C   UNL     1      -7.400   7.981  71.576  1.00  0.00    -0.073 C  
BRANCH  15  16
HETATM   16  N   UNL     1      -7.001   9.200  70.851  1.00  0.00    -0.092 NA 
HETATM   17  H   UNL     1      -6.182   9.050  70.262  1.00  0.00     0.000 HD 
BRANCH  16  18
HETATM   18  C   UNL     1      -8.154   9.709  70.087  1.00  0.00    -0.189 C  
BRANCH  18  19
HETATM   19  C   UNL     1      -7.741  10.133  68.663  1.00  0.00    -0.092 C  
HETATM   20  H   UNL     1      -7.238   9.213  67.002  1.00  0.00     0.000 HD 
HETATM   21  O   UNL     1      -7.492   8.951  67.879  1.00  0.00    -0.090 OA 
BRANCH  19  22
HETATM   22  C   UNL     1      -8.820  10.991  67.961  1.00  0.00    -0.138 C  
HETATM   23  C   UNL     1     -10.387  11.214  66.051  1.00  0.00    -0.308 C  
HETATM   24  C   UNL     1      -9.255  10.382  66.628  1.00  0.00    -0.178 C  
HETATM   25  C   UNL     1     -10.026  12.669  66.100  1.00  0.00    -0.269 A  
HETATM   26  C   UNL     1      -9.022  13.137  66.959  1.00  0.00    -0.228 A  
HETATM   27  O   UNL     1      -8.286  12.321  67.779  1.00  0.00    -0.142 OA 
HETATM   28  C   UNL     1      -8.688  14.493  66.984  1.00  0.00    -0.256 A  
HETATM   29  C   UNL     1      -9.369  15.396  66.167  1.00  0.00    -0.367 A  
HETATM   30  C   UNL     1     -10.376  14.932  65.329  1.00  0.00    -0.396 A  
HETATM   31  F   UNL     1     -11.031  15.796  64.541  1.00  0.00    -0.420 F  
HETATM   32  C   UNL     1     -10.712  13.584  65.289  1.00  0.00    -0.328 A  
ENDBRANCH  19  22
ENDBRANCH  18  19
ENDBRANCH  16  18
ENDBRANCH  15  16
ENDBRANCH   2  15
TORSDOF 6
ENDMDL
MODEL      307
REMARK 921   NORMALIZED FREE ENERGY PREDICTED BY IDOCK:   -3.52 KCAL/MOL
REMARK 922        TOTAL FREE ENERGY PREDICTED BY IDOCK:   -5.94 KCAL/MOL
REMARK 923 INTER-LIGAND FREE ENERGY PREDICTED BY IDOCK:   -5.99 KCAL/MOL
REMARK 924 INTRA-LIGAND FREE ENERGY PREDICTED BY IDOCK:    0.05 KCAL/MOL
REMARK 927      BINDING AFFINITY PREDICTED BY RF-SCORE:    0.00 PKD
ROOT
HETATM    1  O   UNL     1      -5.840  14.989  69.137  1.00  0.00    -0.096 OA 
HETATM    2  C   UNL     1      -6.628  14.458  68.062  1.00  0.00    -0.150 C  
HETATM    3  H   UNL     1      -5.559  15.870  68.921  1.00  0.00     0.000 HD 
ENDROOT
BRANCH   2   4
HETATM    4  C   UNL     1      -7.815  15.404  67.768  1.00  0.00    -0.143 C  
HETATM    5  C   UNL     1      -9.935  19.538  65.957  1.00  0.00    -0.398 A  
HETATM    6  C   UNL     1      -8.674  19.908  66.407  1.00  0.00    -0.397 A  
HETATM    7  C   UNL     1      -8.727  14.876  66.657  1.00  0.00    -0.262 C  
HETATM    8  C   UNL     1      -9.930  15.794  66.531  1.00  0.00    -0.283 C  
HETATM    9  F   UNL     1     -10.765  20.473  65.472  1.00  0.00    -0.328 F  
HETATM   10  C   UNL     1      -7.811  18.931  66.908  1.00  0.00    -0.256 A  
HETATM   11  O   UNL     1      -7.297  16.707  67.444  1.00  0.00    -0.141 OA 
HETATM   12  C   UNL     1      -9.484  17.225  66.490  1.00  0.00    -0.286 A  
HETATM   13  C   UNL     1      -8.218  17.598  66.960  1.00  0.00    -0.220 A  
HETATM   14  C   UNL     1     -10.350  18.211  65.996  1.00  0.00    -0.360 A  
ENDBRANCH   2   4
BRANCH   2  15
HETATM   15  C   UNL     1      -7.083  13.026  68.412  1.00  0.00    -0.103 C  
BRANCH  15  16
HETATM   16  N   UNL     1      -7.578  12.297  67.230  1.00  0.00    -0.176 NA 
HETATM   17  H   UNL     1      -6.830  12.066  66.576  1.00  0.00     0.000 HD 
BRANCH  16  18
HETATM   18  C   UNL     1      -8.321  11.103  67.674  1.00  0.00    -0.122 C  
BRANCH  18  19
HETATM   19  C   UNL     1      -8.696  10.200  66.482  1.00  0.00    -0.129 C  
HETATM   20  H   UNL     1      -7.877   9.709  64.766  1.00  0.00     0.000 HD 
HETATM   21  O   UNL     1      -7.646  10.266  65.500  1.00  0.00    -0.140 OA 
BRANCH  19  22
HETATM   22  C   UNL     1      -8.914   8.726  66.897  1.00  0.00    -0.132 C  
HETATM   23  C   UNL     1     -10.537   6.898  67.315  1.00  0.00    -0.393 C  
HETATM   24  C   UNL     1     -10.399   8.379  67.013  1.00  0.00    -0.385 C  
HETATM   25  C   UNL     1      -9.614   6.516  68.434  1.00  0.00    -0.122 A  
HETATM   26  C   UNL     1      -8.518   7.321  68.773  1.00  0.00    -0.129 A  
HETATM   27  O   UNL     1      -8.226   8.506  68.148  1.00  0.00    -0.117 OA 
HETATM   28  C   UNL     1      -7.674   6.960  69.826  1.00  0.00    -0.113 A  
HETATM   29  C   UNL     1      -7.907   5.781  70.534  1.00  0.00    -0.100 A  
HETATM   30  C   UNL     1      -8.984   4.976  70.185  1.00  0.00    -0.111 A  
HETATM   31  F   UNL     1      -9.211   3.843  70.865  1.00  0.00    -0.140 F  
HETATM   32  C   UNL     1      -9.835   5.329  69.144  1.00  0.00    -0.257 A  
ENDBRANCH  19  22
ENDBRANCH  18  19
ENDBRANCH  16  18
ENDBRANCH  15  16
ENDBRANCH   2  15
TORSDOF 6
ENDMDL
MODEL      308
REMARK 921   NORMALIZED FREE ENERGY PREDICTED BY IDOCK:   -3.47 KCAL/MOL
REMARK 922        TOTAL FREE ENERGY PREDICTED BY IDOCK:   -5.88 KCAL/MOL
REMARK 923 INTER-LIGAND FREE ENERGY PREDICTED BY IDOCK:   -5.31 KCAL/MOL
REMARK 924 INTRA-LIGAND FREE ENERGY PREDICTED BY IDOCK:   -0.57 KCAL/MOL
REMARK 927      BINDING AFFINITY PREDICTED BY RF-SCORE:    0.00 PKD
ROOT
HETATM    1  O   UNL     1      -7.209   9.729  67.932  1.00  0.00    -0.083 OA 
HETATM    2  C   UNL     1      -7.265  10.472  66.706  1.00  0.00    -0.114 C  
HETATM    3  H   UNL     1      -6.351   9.831  68.328  1.00  0.00     0.000 HD 
ENDROOT
BRANCH   2   4
HETATM    4  C   UNL     1      -6.907  11.952  66.976  1.00  0.00    -0.122 C  
HETATM    5  C   UNL     1      -6.698  16.102  69.733  1.00  0.00    -0.103 A  
HETATM    6  C   UNL     1      -7.881  15.461  70.078  1.00  0.00     0.248 A  
HETATM    7  C   UNL     1      -5.404  12.166  67.179  1.00  0.00    -0.096 C  
HETATM    8  C   UNL     1      -5.132  13.655  67.302  1.00  0.00     0.464 C  
HETATM    9  F   UNL     1      -6.407  17.291  70.279  1.00  0.00    -0.166 F  
HETATM   10  C   UNL     1      -8.178  14.219  69.510  1.00  0.00     0.412 A  
HETATM   11  O   UNL     1      -7.658  12.408  68.116  1.00  0.00    -0.109 OA 
HETATM   12  C   UNL     1      -6.095  14.277  68.269  1.00  0.00    -0.119 A  
HETATM   13  C   UNL     1      -7.295  13.635  68.602  1.00  0.00    -0.113 A  
HETATM   14  C   UNL     1      -5.805  15.526  68.835  1.00  0.00    -0.102 A  
ENDBRANCH   2   4
BRANCH   2  15
HETATM   15  C   UNL     1      -8.657  10.307  66.064  1.00  0.00    -0.145 C  
BRANCH  15  16
HETATM   16  N   UNL     1      -9.246  11.600  65.674  1.00  0.00    -0.359 NA 
HETATM   17  H   UNL     1      -9.812  11.529  64.828  1.00  0.00     0.000 HD 
BRANCH  16  18
HETATM   18  C   UNL     1     -10.005  12.150  66.811  1.00  0.00    -0.203 C  
BRANCH  18  19
HETATM   19  C   UNL     1     -11.251  12.923  66.334  1.00  0.00    -0.300 C  
HETATM   20  H   UNL     1     -13.090  12.464  65.817  1.00  0.00     0.000 HD 
HETATM   21  O   UNL     1     -12.322  11.987  66.111  1.00  0.00    -0.449 OA 
BRANCH  19  22
HETATM   22  C   UNL     1     -11.713  13.994  67.350  1.00  0.00    -0.388 C  
HETATM   23  C   UNL     1     -11.247  16.176  68.434  1.00  0.00    -0.358 C  
HETATM   24  C   UNL     1     -10.682  15.111  67.510  1.00  0.00    -0.284 C  
HETATM   25  C   UNL     1     -11.818  15.534  69.663  1.00  0.00    -0.384 A  
HETATM   26  C   UNL     1     -12.157  14.174  69.678  1.00  0.00    -0.349 A  
HETATM   27  O   UNL     1     -11.971  13.335  68.609  1.00  0.00    -0.339 OA 
HETATM   28  C   UNL     1     -12.675  13.587  70.835  1.00  0.00    -0.366 A  
HETATM   29  C   UNL     1     -12.878  14.358  71.979  1.00  0.00    -0.419 A  
HETATM   30  C   UNL     1     -12.557  15.710  71.957  1.00  0.00    -0.430 A  
HETATM   31  F   UNL     1     -12.749  16.453  73.055  1.00  0.00    -0.482 F  
HETATM   32  C   UNL     1     -12.033  16.304  70.814  1.00  0.00    -0.047 A  
ENDBRANCH  19  22
ENDBRANCH  18  19
ENDBRANCH  16  18
ENDBRANCH  15  16
ENDBRANCH   2  15
TORSDOF 6
ENDMDL
MODEL      309
REMARK 921   NORMALIZED FREE ENERGY PREDICTED BY IDOCK:   -3.39 KCAL/MOL
REMARK 922        TOTAL FREE ENERGY PREDICTED BY IDOCK:   -5.77 KCAL/MOL
REMARK 923 INTER-LIGAND FREE ENERGY PREDICTED BY IDOCK:   -6.22 KCAL/MOL
REMARK 924 INTRA-LIGAND FREE ENERGY PREDICTED BY IDOCK:    0.46 KCAL/MOL
REMARK 927      BINDING AFFINITY PREDICTED BY RF-SCORE:    0.00 PKD
ROOT
HETATM    1  O   UNL     1      -5.500  13.260  67.464  1.00  0.00    -0.288 OA 
HETATM    2  C   UNL     1      -5.770  12.751  68.778  1.00  0.00    -0.067 C  
HETATM    3  H   UNL     1      -5.317  12.538  66.874  1.00  0.00     0.000 HD 
ENDROOT
BRANCH   2   4
HETATM    4  C   UNL     1      -6.927  11.728  68.715  1.00  0.00    -0.103 C  
HETATM    5  C   UNL     1      -9.320   7.746  66.902  1.00  0.00    -0.169 A  
HETATM    6  C   UNL     1      -8.691   8.351  65.822  1.00  0.00    -0.199 A  
HETATM    7  C   UNL     1      -6.902  10.738  69.883  1.00  0.00    -0.146 C  
HETATM    8  C   UNL     1      -8.141   9.864  69.814  1.00  0.00    -0.185 C  
HETATM    9  F   UNL     1     -10.100   6.675  66.698  1.00  0.00    -0.216 F  
HETATM   10  C   UNL     1      -7.876   9.465  66.039  1.00  0.00    -0.099 A  
HETATM   11  O   UNL     1      -6.869  11.044  67.450  1.00  0.00    -0.074 OA 
HETATM   12  C   UNL     1      -8.327   9.342  68.419  1.00  0.00    -0.119 A  
HETATM   13  C   UNL     1      -7.703   9.964  67.330  1.00  0.00    -0.091 A  
HETATM   14  C   UNL     1      -9.150   8.230  68.195  1.00  0.00    -0.134 A  
ENDBRANCH   2   4
BRANCH   2  15
HETATM   15  C   UNL     1      -6.067  13.923  69.736  1.00  0.00    -0.129 C  
BRANCH  15  16
HETATM   16  N   UNL     1      -7.379  14.538  69.471  1.00  0.00    -0.324 NA 
HETATM   17  H   UNL     1      -7.368  15.549  69.609  1.00  0.00     0.000 HD 
BRANCH  16  18
HETATM   18  C   UNL     1      -7.826  14.163  68.117  1.00  0.00    -0.142 C  
BRANCH  18  19
HETATM   19  C   UNL     1      -8.206  15.405  67.286  1.00  0.00    -0.196 C  
HETATM   20  H   UNL     1      -7.245  16.721  66.189  1.00  0.00     0.000 HD 
HETATM   21  O   UNL     1      -7.011  15.956  66.701  1.00  0.00    -0.203 OA 
BRANCH  19  22
HETATM   22  C   UNL     1      -9.221  15.083  66.164  1.00  0.00    -0.259 C  
HETATM   23  C   UNL     1     -11.525  15.373  65.294  1.00  0.00    -0.158 C  
HETATM   24  C   UNL     1     -10.614  15.628  66.481  1.00  0.00    -0.307 C  
HETATM   25  C   UNL     1     -11.390  13.948  64.844  1.00  0.00    -0.349 A  
HETATM   26  C   UNL     1     -10.269  13.183  65.194  1.00  0.00    -0.284 A  
HETATM   27  O   UNL     1      -9.249  13.650  65.982  1.00  0.00    -0.081 OA 
HETATM   28  C   UNL     1     -10.163  11.853  64.779  1.00  0.00    -0.314 A  
HETATM   29  C   UNL     1     -11.165  11.285  63.992  1.00  0.00    -0.230 A  
HETATM   30  C   UNL     1     -12.266  12.051  63.631  1.00  0.00    -0.538 A  
HETATM   31  F   UNL     1     -13.232  11.508  62.877  1.00  0.00    -0.419 F  
HETATM   32  C   UNL     1     -12.387  13.373  64.045  1.00  0.00    -0.402 A  
ENDBRANCH  19  22
ENDBRANCH  18  19
ENDBRANCH  16  18
ENDBRANCH  15  16
ENDBRANCH   2  15
TORSDOF 6
ENDMDL
MODEL      310
REMARK 921   NORMALIZED FREE ENERGY PREDICTED BY IDOCK:   -3.30 KCAL/MOL
REMARK 922        TOTAL FREE ENERGY PREDICTED BY IDOCK:   -5.65 KCAL/MOL
REMARK 923 INTER-LIGAND FREE ENERGY PREDICTED BY IDOCK:   -6.27 KCAL/MOL
REMARK 924 INTRA-LIGAND FREE ENERGY PREDICTED BY IDOCK:    0.62 KCAL/MOL
REMARK 927      BINDING AFFINITY PREDICTED BY RF-SCORE:    0.00 PKD
ROOT
HETATM    1  O   UNL     1      -9.683  11.209  65.787  1.00  0.00    -0.206 OA 
HETATM    2  C   UNL     1     -10.719  10.482  66.463  1.00  0.00    -0.121 C  
HETATM    3  H   UNL     1     -10.058  11.959  65.342  1.00  0.00     0.000 HD 
ENDROOT
BRANCH   2   4
HETATM    4  C   UNL     1     -11.475  11.426  67.426  1.00  0.00    -0.251 C  
HETATM    5  C   UNL     1     -13.171  12.897  71.879  1.00  0.00    -0.423 A  
HETATM    6  C   UNL     1     -13.207  11.509  71.885  1.00  0.00    -0.479 A  
HETATM    7  C   UNL     1     -10.724  12.737  67.675  1.00  0.00    -0.236 C  
HETATM    8  C   UNL     1     -11.596  13.651  68.517  1.00  0.00    -0.371 C  
HETATM    9  F   UNL     1     -13.637  13.575  72.937  1.00  0.00    -0.595 F  
HETATM   10  C   UNL     1     -12.717  10.806  70.781  1.00  0.00    -0.451 A  
HETATM   11  O   UNL     1     -11.724  10.725  68.658  1.00  0.00    -0.334 OA 
HETATM   12  C   UNL     1     -12.155  12.897  69.687  1.00  0.00    -0.290 A  
HETATM   13  C   UNL     1     -12.203  11.497  69.683  1.00  0.00    -0.229 A  
HETATM   14  C   UNL     1     -12.655  13.597  70.794  1.00  0.00    -0.397 A  
ENDBRANCH   2   4
BRANCH   2  15
HETATM   15  C   UNL     1     -10.109   9.263  67.186  1.00  0.00    -0.236 C  
BRANCH  15  16
HETATM   16  N   UNL     1     -10.945   8.058  67.045  1.00  0.00    -0.385 NA 
HETATM   17  H   UNL     1     -10.787   7.578  66.159  1.00  0.00     0.000 HD 
BRANCH  16  18
HETATM   18  C   UNL     1     -10.726   7.177  68.207  1.00  0.00    -0.153 C  
BRANCH  18  19
HETATM   19  C   UNL     1      -9.237   6.803  68.354  1.00  0.00    -0.123 C  
HETATM   20  H   UNL     1      -7.516   7.670  67.975  1.00  0.00     0.000 HD 
HETATM   21  O   UNL     1      -8.433   7.901  67.884  1.00  0.00    -0.125 OA 
BRANCH  19  22
HETATM   22  C   UNL     1      -8.847   6.474  69.814  1.00  0.00    -0.143 C  
HETATM   23  C   UNL     1      -7.304   6.910  71.707  1.00  0.00    -0.084 C  
HETATM   24  C   UNL     1      -7.564   7.190  70.237  1.00  0.00    -0.090 C  
HETATM   25  C   UNL     1      -7.438   5.440  71.977  1.00  0.00    -0.098 A  
HETATM   26  C   UNL     1      -8.136   4.604  71.096  1.00  0.00    -0.088 A  
HETATM   27  O   UNL     1      -8.710   5.042  69.930  1.00  0.00    -0.099 OA 
HETATM   28  C   UNL     1      -8.240   3.235  71.354  1.00  0.00    -0.074 A  
HETATM   29  C   UNL     1      -7.667   2.695  72.506  1.00  0.00    -0.053 A  
HETATM   30  C   UNL     1      -6.991   3.530  73.387  1.00  0.00    -0.048 A  
HETATM   31  F   UNL     1      -6.438   3.015  74.493  1.00  0.00    -0.021 F  
HETATM   32  C   UNL     1      -6.873   4.892  73.137  1.00  0.00    -0.069 A  
ENDBRANCH  19  22
ENDBRANCH  18  19
ENDBRANCH  16  18
ENDBRANCH  15  16
ENDBRANCH   2  15
TORSDOF 6
ENDMDL
MODEL      311
REMARK 921   NORMALIZED FREE ENERGY PREDICTED BY IDOCK:   -3.23 KCAL/MOL
REMARK 922        TOTAL FREE ENERGY PREDICTED BY IDOCK:   -5.55 KCAL/MOL
REMARK 923 INTER-LIGAND FREE ENERGY PREDICTED BY IDOCK:   -5.16 KCAL/MOL
REMARK 924 INTRA-LIGAND FREE ENERGY PREDICTED BY IDOCK:   -0.39 KCAL/MOL
REMARK 927      BINDING AFFINITY PREDICTED BY RF-SCORE:    0.00 PKD
ROOT
HETATM    1  O   UNL     1      -9.857  20.315  65.336  1.00  0.00    -0.435 OA 
HETATM    2  C   UNL     1      -9.396  20.296  66.695  1.00  0.00    -0.330 C  
HETATM    3  H   UNL     1      -9.134  20.525  64.757  1.00  0.00     0.000 HD 
ENDROOT
BRANCH   2   4
HETATM    4  C   UNL     1      -8.217  19.305  66.832  1.00  0.00    -0.277 C  
HETATM    5  C   UNL     1      -5.978  15.178  68.512  1.00  0.00    -0.097 A  
HETATM    6  C   UNL     1      -6.816  15.613  69.531  1.00  0.00    -0.189 A  
HETATM    7  C   UNL     1      -7.988  18.484  65.559  1.00  0.00     0.597 C  
HETATM    8  C   UNL     1      -6.737  17.641  65.736  1.00  0.00    -0.164 C  
HETATM    9  F   UNL     1      -5.193  14.110  68.712  1.00  0.00    -0.079 F  
HETATM   10  C   UNL     1      -7.636  16.724  69.318  1.00  0.00    -0.103 A  
HETATM   11  O   UNL     1      -8.460  18.453  67.966  1.00  0.00    -0.263 OA 
HETATM   12  C   UNL     1      -6.771  16.939  67.062  1.00  0.00    -0.242 A  
HETATM   13  C   UNL     1      -7.606  17.390  68.093  1.00  0.00    -0.214 A  
HETATM   14  C   UNL     1      -5.945  15.829  67.284  1.00  0.00     0.001 A  
ENDBRANCH   2   4
BRANCH   2  15
HETATM   15  C   UNL     1     -10.569  19.954  67.635  1.00  0.00    -0.343 C  
BRANCH  15  16
HETATM   16  N   UNL     1     -11.512  19.001  67.023  1.00  0.00     0.497 NA 
HETATM   17  H   UNL     1     -11.720  19.232  66.052  1.00  0.00     0.000 HD 
BRANCH  16  18
HETATM   18  C   UNL     1     -10.983  17.633  67.172  1.00  0.00     0.023 C  
BRANCH  18  19
HETATM   19  C   UNL     1     -11.490  16.709  66.047  1.00  0.00     0.884 C  
HETATM   20  H   UNL     1     -11.239  16.577  64.103  1.00  0.00     0.000 HD 
HETATM   21  O   UNL     1     -10.927  17.146  64.796  1.00  0.00    -0.898 OA 
BRANCH  19  22
HETATM   22  C   UNL     1     -11.119  15.226  66.282  1.00  0.00    -0.273 C  
HETATM   23  C   UNL     1     -11.327  12.879  65.507  1.00  0.00    -0.340 C  
HETATM   24  C   UNL     1     -11.820  14.298  65.289  1.00  0.00    -0.374 C  
HETATM   25  C   UNL     1     -11.371  12.542  66.968  1.00  0.00    -0.386 A  
HETATM   26  C   UNL     1     -11.419  13.551  67.941  1.00  0.00    -0.318 A  
HETATM   27  O   UNL     1     -11.461  14.888  67.644  1.00  0.00    -0.334 OA 
HETATM   28  C   UNL     1     -11.472  13.222  69.298  1.00  0.00    -0.345 A  
HETATM   29  C   UNL     1     -11.456  11.884  69.693  1.00  0.00    -0.337 A  
HETATM   30  C   UNL     1     -11.391  10.887  68.728  1.00  0.00    -0.292 A  
HETATM   31  F   UNL     1     -11.378   9.601  69.105  1.00  0.00    -0.206 F  
HETATM   32  C   UNL     1     -11.345  11.202  67.375  1.00  0.00    -0.329 A  
ENDBRANCH  19  22
ENDBRANCH  18  19
ENDBRANCH  16  18
ENDBRANCH  15  16
ENDBRANCH   2  15
TORSDOF 6
ENDMDL
MODEL      312
REMARK 921   NORMALIZED FREE ENERGY PREDICTED BY IDOCK:   -3.10 KCAL/MOL
REMARK 922        TOTAL FREE ENERGY PREDICTED BY IDOCK:   -5.38 KCAL/MOL
REMARK 923 INTER-LIGAND FREE ENERGY PREDICTED BY IDOCK:   -5.02 KCAL/MOL
REMARK 924 INTRA-LIGAND FREE ENERGY PREDICTED BY IDOCK:   -0.36 KCAL/MOL
REMARK 927      BINDING AFFINITY PREDICTED BY RF-SCORE:    0.00 PKD
ROOT
HETATM    1  O   UNL     1     -10.312   9.845  64.567  1.00  0.00    -0.317 OA 
HETATM    2  C   UNL     1      -8.880   9.774  64.625  1.00  0.00    -0.212 C  
HETATM    3  H   UNL     1     -10.662   9.003  64.301  1.00  0.00     0.000 HD 
ENDROOT
BRANCH   2   4
HETATM    4  C   UNL     1      -8.452   8.628  65.570  1.00  0.00    -0.165 C  
HETATM    5  C   UNL     1      -6.924   4.001  66.629  1.00  0.00    -0.059 A  
HETATM    6  C   UNL     1      -7.763   3.894  65.528  1.00  0.00    -0.085 A  
HETATM    7  C   UNL     1      -7.055   8.843  66.161  1.00  0.00    -0.085 C  
HETATM    8  C   UNL     1      -6.776   7.747  67.174  1.00  0.00    -0.068 C  
HETATM    9  F   UNL     1      -6.411   2.891  67.180  1.00  0.00    -0.031 F  
HETATM   10  C   UNL     1      -8.292   5.054  64.955  1.00  0.00    -0.142 A  
HETATM   11  O   UNL     1      -8.528   7.384  64.851  1.00  0.00    -0.069 OA 
HETATM   12  C   UNL     1      -7.124   6.408  66.593  1.00  0.00    -0.069 A  
HETATM   13  C   UNL     1      -7.983   6.303  65.492  1.00  0.00    -0.115 A  
HETATM   14  C   UNL     1      -6.602   5.241  67.169  1.00  0.00    -0.053 A  
ENDBRANCH   2   4
BRANCH   2  15
HETATM   15  C   UNL     1      -8.312  11.141  65.057  1.00  0.00     0.239 C  
BRANCH  15  16
HETATM   16  N   UNL     1      -9.220  11.857  65.971  1.00  0.00    -0.328 NA 
HETATM   17  H   UNL     1      -8.736  12.223  66.790  1.00  0.00     0.000 HD 
BRANCH  16  18
HETATM   18  C   UNL     1      -9.928  12.911  65.222  1.00  0.00    -0.176 C  
BRANCH  18  19
HETATM   19  C   UNL     1     -10.242  14.124  66.121  1.00  0.00    -0.304 C  
HETATM   20  H   UNL     1     -11.418  15.694  66.019  1.00  0.00     0.000 HD 
HETATM   21  O   UNL     1     -11.225  14.947  65.466  1.00  0.00    -0.335 OA 
BRANCH  19  22
HETATM   22  C   UNL     1     -10.770  13.712  67.515  1.00  0.00    -0.259 C  
HETATM   23  C   UNL     1     -12.658  12.804  68.842  1.00  0.00     0.707 C  
HETATM   24  C   UNL     1     -12.240  13.297  67.468  1.00  0.00    -0.213 C  
HETATM   25  C   UNL     1     -12.213  13.779  69.891  1.00  0.00    -0.383 A  
HETATM   26  C   UNL     1     -11.198  14.710  69.629  1.00  0.00    -0.272 A  
HETATM   27  O   UNL     1     -10.569  14.822  68.417  1.00  0.00    -0.233 OA 
HETATM   28  C   UNL     1     -10.804  15.621  70.612  1.00  0.00    -0.319 A  
HETATM   29  C   UNL     1     -11.406  15.595  71.870  1.00  0.00    -0.421 A  
HETATM   30  C   UNL     1     -12.400  14.661  72.133  1.00  0.00    -0.298 A  
HETATM   31  F   UNL     1     -12.981  14.635  73.340  1.00  0.00    -0.544 F  
HETATM   32  C   UNL     1     -12.806  13.754  71.161  1.00  0.00    -0.409 A  
ENDBRANCH  19  22
ENDBRANCH  18  19
ENDBRANCH  16  18
ENDBRANCH  15  16
ENDBRANCH   2  15
TORSDOF 6
ENDMDL
MODEL      313
REMARK 921   NORMALIZED FREE ENERGY PREDICTED BY IDOCK:   -3.09 KCAL/MOL
REMARK 922        TOTAL FREE ENERGY PREDICTED BY IDOCK:   -5.36 KCAL/MOL
REMARK 923 INTER-LIGAND FREE ENERGY PREDICTED BY IDOCK:   -5.04 KCAL/MOL
REMARK 924 INTRA-LIGAND FREE ENERGY PREDICTED BY IDOCK:   -0.32 KCAL/MOL
REMARK 927      BINDING AFFINITY PREDICTED BY RF-SCORE:    0.00 PKD
ROOT
HETATM    1  O   UNL     1      -9.283  15.155  68.737  1.00  0.00    -0.183 OA 
HETATM    2  C   UNL     1      -9.982  15.614  69.902  1.00  0.00    -0.228 C  
HETATM    3  H   UNL     1      -9.009  14.254  68.864  1.00  0.00     0.000 HD 
ENDROOT
BRANCH   2   4
HETATM    4  C   UNL     1     -11.168  14.670  70.206  1.00  0.00    -0.151 C  
HETATM    5  C   UNL     1     -13.255  10.277  71.308  1.00  0.00    -0.356 A  
HETATM    6  C   UNL     1     -12.165  10.000  70.494  1.00  0.00    -0.308 A  
HETATM    7  C   UNL     1     -11.761  14.900  71.599  1.00  0.00    -0.395 C  
HETATM    8  C   UNL     1     -12.995  14.029  71.758  1.00  0.00    -0.435 C  
HETATM    9  F   UNL     1     -14.051   9.276  71.710  1.00  0.00    -0.387 F  
HETATM   10  C   UNL     1     -11.335  11.045  70.080  1.00  0.00    -0.335 A  
HETATM   11  O   UNL     1     -10.727  13.309  70.045  1.00  0.00     0.516 OA 
HETATM   12  C   UNL     1     -12.698  12.628  71.313  1.00  0.00    -0.354 A  
HETATM   13  C   UNL     1     -11.607  12.354  70.479  1.00  0.00     0.333 A  
HETATM   14  C   UNL     1     -13.532  11.577  71.719  1.00  0.00    -0.203 A  
ENDBRANCH   2   4
BRANCH   2  15
HETATM   15  C   UNL     1     -10.427  17.076  69.696  1.00  0.00    -0.099 C  
BRANCH  15  16
HETATM   16  N   UNL     1      -9.613  17.767  68.680  1.00  0.00    -0.320 NA 
HETATM   17  H   UNL     1      -9.183  17.117  68.021  1.00  0.00     0.000 HD 
BRANCH  16  18
HETATM   18  C   UNL     1     -10.439  18.784  68.005  1.00  0.00    -0.352 C  
BRANCH  18  19
HETATM   19  C   UNL     1     -11.014  18.250  66.678  1.00  0.00     0.169 C  
HETATM   20  H   UNL     1     -10.982  18.811  64.795  1.00  0.00     0.000 HD 
HETATM   21  O   UNL     1     -10.627  19.140  65.613  1.00  0.00    -0.523 OA 
BRANCH  19  22
HETATM   22  C   UNL     1     -10.525  16.820  66.349  1.00  0.00    -0.269 C  
HETATM   23  C   UNL     1      -9.820  15.211  64.598  1.00  0.00     0.766 C  
HETATM   24  C   UNL     1     -10.405  16.590  64.842  1.00  0.00     0.292 C  
HETATM   25  C   UNL     1     -10.543  14.195  65.431  1.00  0.00    -0.358 A  
HETATM   26  C   UNL     1     -11.292  14.580  66.552  1.00  0.00    -0.352 A  
HETATM   27  O   UNL     1     -11.445  15.883  66.949  1.00  0.00     0.016 OA 
HETATM   28  C   UNL     1     -11.971  13.623  67.311  1.00  0.00    -0.420 A  
HETATM   29  C   UNL     1     -11.891  12.274  66.968  1.00  0.00    -0.329 A  
HETATM   30  C   UNL     1     -11.134  11.893  65.867  1.00  0.00    -0.316 A  
HETATM   31  F   UNL     1     -11.056  10.597  65.534  1.00  0.00    -0.139 F  
HETATM   32  C   UNL     1     -10.460  12.836  65.100  1.00  0.00    -0.320 A  
ENDBRANCH  19  22
ENDBRANCH  18  19
ENDBRANCH  16  18
ENDBRANCH  15  16
ENDBRANCH   2  15
TORSDOF 6
ENDMDL
MODEL      314
REMARK 921   NORMALIZED FREE ENERGY PREDICTED BY IDOCK:   -3.09 KCAL/MOL
REMARK 922        TOTAL FREE ENERGY PREDICTED BY IDOCK:   -5.36 KCAL/MOL
REMARK 923 INTER-LIGAND FREE ENERGY PREDICTED BY IDOCK:   -5.24 KCAL/MOL
REMARK 924 INTRA-LIGAND FREE ENERGY PREDICTED BY IDOCK:   -0.12 KCAL/MOL
REMARK 927      BINDING AFFINITY PREDICTED BY RF-SCORE:    0.00 PKD
ROOT
HETATM    1  O   UNL     1     -10.748   9.863  65.545  1.00  0.00     0.140 OA 
HETATM    2  C   UNL     1      -9.324  10.026  65.617  1.00  0.00    -0.204 C  
HETATM    3  H   UNL     1     -10.959   8.942  65.449  1.00  0.00     0.000 HD 
ENDROOT
BRANCH   2   4
HETATM    4  C   UNL     1      -8.758   9.163  66.769  1.00  0.00    -0.127 C  
HETATM    5  C   UNL     1      -6.678   5.076  68.728  1.00  0.00    -0.050 A  
HETATM    6  C   UNL     1      -7.501   4.642  67.697  1.00  0.00    -0.078 A  
HETATM    7  C   UNL     1      -7.396   9.661  67.262  1.00  0.00    -0.087 C  
HETATM    8  C   UNL     1      -6.983   8.843  68.473  1.00  0.00    -0.065 C  
HETATM    9  F   UNL     1      -6.033   4.176  69.483  1.00  0.00    -0.019 F  
HETATM   10  C   UNL     1      -8.168   5.584  66.910  1.00  0.00    -0.105 A  
HETATM   11  O   UNL     1      -8.685   7.795  66.327  1.00  0.00    -0.140 OA 
HETATM   12  C   UNL     1      -7.168   7.381  68.195  1.00  0.00    -0.090 A  
HETATM   13  C   UNL     1      -8.011   6.946  67.164  1.00  0.00    -0.113 A  
HETATM   14  C   UNL     1      -6.508   6.432  68.987  1.00  0.00    -0.043 A  
ENDBRANCH   2   4
BRANCH   2  15
HETATM   15  C   UNL     1      -8.981  11.521  65.773  1.00  0.00    -0.115 C  
BRANCH  15  16
HETATM   16  N   UNL     1      -9.979  12.238  66.588  1.00  0.00    -0.212 NA 
HETATM   17  H   UNL     1      -9.560  12.981  67.147  1.00  0.00     0.000 HD 
BRANCH  16  18
HETATM   18  C   UNL     1     -11.054  12.735  65.710  1.00  0.00    -0.285 C  
BRANCH  18  19
HETATM   19  C   UNL     1     -10.743  14.152  65.189  1.00  0.00    -0.388 C  
HETATM   20  H   UNL     1     -11.759  15.601  64.337  1.00  0.00     0.000 HD 
HETATM   21  O   UNL     1     -11.951  14.728  64.658  1.00  0.00    -0.434 OA 
BRANCH  19  22
HETATM   22  C   UNL     1     -10.177  15.081  66.289  1.00  0.00    -0.294 C  
HETATM   23  C   UNL     1     -10.645  16.448  68.305  1.00  0.00    -0.318 C  
HETATM   24  C   UNL     1     -11.280  15.638  67.189  1.00  0.00    -0.152 C  
HETATM   25  C   UNL     1      -9.628  17.392  67.735  1.00  0.00    -0.264 A  
HETATM   26  C   UNL     1      -9.080  17.182  66.462  1.00  0.00    -0.269 A  
HETATM   27  O   UNL     1      -9.442  16.144  65.644  1.00  0.00    -0.427 OA 
HETATM   28  C   UNL     1      -8.144  18.078  65.939  1.00  0.00    -0.009 A  
HETATM   29  C   UNL     1      -7.732  19.178  66.693  1.00  0.00    -0.263 A  
HETATM   30  C   UNL     1      -8.264  19.374  67.961  1.00  0.00    -0.318 A  
HETATM   31  F   UNL     1      -7.873  20.430  68.686  1.00  0.00    -0.151 F  
HETATM   32  C   UNL     1      -9.203  18.494  68.489  1.00  0.00    -0.360 A  
ENDBRANCH  19  22
ENDBRANCH  18  19
ENDBRANCH  16  18
ENDBRANCH  15  16
ENDBRANCH   2  15
TORSDOF 6
ENDMDL
MODEL      315
REMARK 921   NORMALIZED FREE ENERGY PREDICTED BY IDOCK:   -3.01 KCAL/MOL
REMARK 922        TOTAL FREE ENERGY PREDICTED BY IDOCK:   -5.26 KCAL/MOL
REMARK 923 INTER-LIGAND FREE ENERGY PREDICTED BY IDOCK:   -5.16 KCAL/MOL
REMARK 924 INTRA-LIGAND FREE ENERGY PREDICTED BY IDOCK:   -0.10 KCAL/MOL
REMARK 927      BINDING AFFINITY PREDICTED BY RF-SCORE:    0.00 PKD
ROOT
HETATM    1  O   UNL     1      -7.098  13.224  68.250  1.00  0.00    -0.087 OA 
HETATM    2  C   UNL     1      -8.300  12.517  67.916  1.00  0.00    -0.167 C  
HETATM    3  H   UNL     1      -6.681  12.810  68.996  1.00  0.00     0.000 HD 
ENDROOT
BRANCH   2   4
HETATM    4  C   UNL     1      -7.976  11.026  67.662  1.00  0.00    -0.115 C  
HETATM    5  C   UNL     1      -9.129   6.248  66.827  1.00  0.00    -0.135 A  
HETATM    6  C   UNL     1     -10.113   6.747  67.670  1.00  0.00    -0.201 A  
HETATM    7  C   UNL     1      -7.438  10.774  66.250  1.00  0.00    -0.138 C  
HETATM    8  C   UNL     1      -7.022   9.318  66.136  1.00  0.00    -0.086 C  
HETATM    9  F   UNL     1      -9.149   4.952  66.483  1.00  0.00    -0.120 F  
HETATM   10  C   UNL     1     -10.092   8.099  68.024  1.00  0.00    -0.241 A  
HETATM   11  O   UNL     1      -9.158  10.247  67.917  1.00  0.00    -0.131 OA 
HETATM   12  C   UNL     1      -8.104   8.429  66.674  1.00  0.00    -0.101 A  
HETATM   13  C   UNL     1      -9.086   8.933  67.537  1.00  0.00    -0.133 A  
HETATM   14  C   UNL     1      -8.125   7.071  66.330  1.00  0.00    -0.115 A  
ENDBRANCH   2   4
BRANCH   2  15
HETATM   15  C   UNL     1      -8.978  13.190  66.705  1.00  0.00    -0.176 C  
BRANCH  15  16
HETATM   16  N   UNL     1     -10.387  12.784  66.560  1.00  0.00    -0.248 NA 
HETATM   17  H   UNL     1     -10.719  12.245  67.360  1.00  0.00     0.000 HD 
BRANCH  16  18
HETATM   18  C   UNL     1     -11.213  13.978  66.308  1.00  0.00    -0.320 C  
BRANCH  18  19
HETATM   19  C   UNL     1     -11.276  14.890  67.550  1.00  0.00    -0.328 C  
HETATM   20  H   UNL     1     -10.812  14.725  69.451  1.00  0.00     0.000 HD 
HETATM   21  O   UNL     1     -10.773  14.163  68.686  1.00  0.00    -0.241 OA 
BRANCH  19  22
HETATM   22  C   UNL     1     -10.458  16.191  67.376  1.00  0.00    -0.310 C  
HETATM   23  C   UNL     1      -9.251  17.701  65.821  1.00  0.00     0.258 C  
HETATM   24  C   UNL     1      -9.947  16.357  65.944  1.00  0.00    -0.358 C  
HETATM   25  C   UNL     1      -8.291  17.884  66.959  1.00  0.00    -0.248 A  
HETATM   26  C   UNL     1      -8.409  17.128  68.134  1.00  0.00    -0.226 A  
HETATM   27  O   UNL     1      -9.366  16.164  68.320  1.00  0.00    -0.199 OA 
HETATM   28  C   UNL     1      -7.499  17.301  69.180  1.00  0.00    -0.130 A  
HETATM   29  C   UNL     1      -6.478  18.244  69.069  1.00  0.00    -0.251 A  
HETATM   30  C   UNL     1      -6.373  19.004  67.911  1.00  0.00    -0.211 A  
HETATM   31  F   UNL     1      -5.392  19.910  67.801  1.00  0.00    -0.179 F  
HETATM   32  C   UNL     1      -7.268  18.837  66.860  1.00  0.00    -0.223 A  
ENDBRANCH  19  22
ENDBRANCH  18  19
ENDBRANCH  16  18
ENDBRANCH  15  16
ENDBRANCH   2  15
TORSDOF 6
ENDMDL
MODEL      316
REMARK 921   NORMALIZED FREE ENERGY PREDICTED BY IDOCK:   -2.53 KCAL/MOL
REMARK 922        TOTAL FREE ENERGY PREDICTED BY IDOCK:   -4.61 KCAL/MOL
REMARK 923 INTER-LIGAND FREE ENERGY PREDICTED BY IDOCK:   -4.28 KCAL/MOL
REMARK 924 INTRA-LIGAND FREE ENERGY PREDICTED BY IDOCK:   -0.33 KCAL/MOL
REMARK 927      BINDING AFFINITY PREDICTED BY RF-SCORE:    0.00 PKD
ROOT
HETATM    1  O   UNL     1     -11.835   6.280  67.650  1.00  0.00    -0.216 OA 
HETATM    2  C   UNL     1     -10.580   6.871  68.017  1.00  0.00    -0.222 C  
HETATM    3  H   UNL     1     -11.971   6.374  66.715  1.00  0.00     0.000 HD 
ENDROOT
BRANCH   2   4
HETATM    4  C   UNL     1      -9.442   6.236  67.185  1.00  0.00    -0.124 C  
HETATM    5  C   UNL     1      -7.571   3.635  63.364  1.00  0.00    -0.059 A  
HETATM    6  C   UNL     1      -8.792   3.051  63.675  1.00  0.00    -0.092 A  
HETATM    7  C   UNL     1      -8.625   7.278  66.415  1.00  0.00    -0.141 C  
HETATM    8  C   UNL     1      -7.456   6.584  65.739  1.00  0.00    -0.082 C  
HETATM    9  F   UNL     1      -6.806   3.096  62.404  1.00  0.00    -0.026 F  
HETATM   10  C   UNL     1      -9.588   3.619  64.673  1.00  0.00    -0.172 A  
HETATM   11  O   UNL     1     -10.010   5.257  66.297  1.00  0.00    -0.170 OA 
HETATM   12  C   UNL     1      -7.929   5.353  65.024  1.00  0.00    -0.110 A  
HETATM   13  C   UNL     1      -9.154   4.758  65.352  1.00  0.00    -0.154 A  
HETATM   14  C   UNL     1      -7.131   4.775  64.028  1.00  0.00    -0.050 A  
ENDBRANCH   2   4
BRANCH   2  15
HETATM   15  C   UNL     1     -10.360   6.717  69.536  1.00  0.00    -0.202 C  
BRANCH  15  16
HETATM   16  N   UNL     1     -11.631   6.696  70.282  1.00  0.00    -0.445 NA 
HETATM   17  H   UNL     1     -11.546   6.216  71.178  1.00  0.00     0.000 HD 
BRANCH  16  18
HETATM   18  C   UNL     1     -12.129   8.075  70.431  1.00  0.00     0.264 C  
BRANCH  18  19
HETATM   19  C   UNL     1     -11.202   8.913  71.334  1.00  0.00    -0.312 C  
HETATM   20  H   UNL     1      -9.729   8.543  72.581  1.00  0.00     0.000 HD 
HETATM   21  O   UNL     1     -10.300   8.027  72.024  1.00  0.00    -0.205 OA 
BRANCH  19  22
HETATM   22  C   UNL     1     -10.382   9.957  70.541  1.00  0.00    -0.232 C  
HETATM   23  C   UNL     1     -10.287  11.487  68.591  1.00  0.00    -0.226 C  
HETATM   24  C   UNL     1     -11.094  10.387  69.258  1.00  0.00    -0.303 C  
HETATM   25  C   UNL     1      -8.843  11.089  68.520  1.00  0.00    -0.159 A  
HETATM   26  C   UNL     1      -8.327  10.087  69.354  1.00  0.00    -0.165 A  
HETATM   27  O   UNL     1      -9.087   9.386  70.254  1.00  0.00    -0.208 OA 
HETATM   28  C   UNL     1      -6.982   9.718  69.266  1.00  0.00    -0.056 A  
HETATM   29  C   UNL     1      -6.138  10.362  68.362  1.00  0.00    -0.044 A  
HETATM   30  C   UNL     1      -6.648  11.367  67.549  1.00  0.00    -0.078 A  
HETATM   31  F   UNL     1      -5.841  11.987  66.677  1.00  0.00    -0.150 F  
HETATM   32  C   UNL     1      -7.986  11.738  67.621  1.00  0.00    -0.143 A  
ENDBRANCH  19  22
ENDBRANCH  18  19
ENDBRANCH  16  18
ENDBRANCH  15  16
ENDBRANCH   2  15
TORSDOF 6
ENDMDL
MODEL      317
REMARK 921   NORMALIZED FREE ENERGY PREDICTED BY IDOCK:   -2.36 KCAL/MOL
REMARK 922        TOTAL FREE ENERGY PREDICTED BY IDOCK:   -4.38 KCAL/MOL
REMARK 923 INTER-LIGAND FREE ENERGY PREDICTED BY IDOCK:   -5.62 KCAL/MOL
REMARK 924 INTRA-LIGAND FREE ENERGY PREDICTED BY IDOCK:    1.24 KCAL/MOL
REMARK 927      BINDING AFFINITY PREDICTED BY RF-SCORE:    0.00 PKD
ROOT
HETATM    1  O   UNL     1      -5.389  12.640  68.028  1.00  0.00    -0.070 OA 
HETATM    2  C   UNL     1      -5.311  11.789  69.180  1.00  0.00    -0.047 C  
HETATM    3  H   UNL     1      -5.161  12.145  67.250  1.00  0.00     0.000 HD 
ENDROOT
BRANCH   2   4
HETATM    4  C   UNL     1      -6.215  10.551  68.977  1.00  0.00    -0.044 C  
HETATM    5  C   UNL     1     -10.166   7.660  69.923  1.00  0.00    -0.215 A  
HETATM    6  C   UNL     1      -9.788   8.217  71.138  1.00  0.00    -0.207 A  
HETATM    7  C   UNL     1      -7.023  10.620  67.678  1.00  0.00    -0.079 C  
HETATM    8  C   UNL     1      -7.774   9.313  67.496  1.00  0.00    -0.092 C  
HETATM    9  F   UNL     1     -11.175   6.777  69.886  1.00  0.00    -0.285 F  
HETATM   10  C   UNL     1      -8.739   9.139  71.172  1.00  0.00    -0.210 A  
HETATM   11  O   UNL     1      -7.078  10.417  70.121  1.00  0.00    -0.154 OA 
HETATM   12  C   UNL     1      -8.471   8.937  68.770  1.00  0.00    -0.131 A  
HETATM   13  C   UNL     1      -8.076   9.489  69.995  1.00  0.00    -0.167 A  
HETATM   14  C   UNL     1      -9.519   8.006  68.742  1.00  0.00    -0.147 A  
ENDBRANCH   2   4
BRANCH   2  15
HETATM   15  C   UNL     1      -5.682  12.593  70.443  1.00  0.00    -0.172 C  
BRANCH  15  16
HETATM   16  N   UNL     1      -6.910  13.386  70.256  1.00  0.00    -0.140 NA 
HETATM   17  H   UNL     1      -6.842  14.310  70.682  1.00  0.00     0.000 HD 
BRANCH  16  18
HETATM   18  C   UNL     1      -7.229  13.453  68.819  1.00  0.00    -0.092 C  
BRANCH  18  19
HETATM   19  C   UNL     1      -7.506  14.903  68.373  1.00  0.00    -0.115 C  
HETATM   20  H   UNL     1      -6.435  16.404  67.697  1.00  0.00     0.000 HD 
HETATM   21  O   UNL     1      -6.264  15.511  67.972  1.00  0.00    -0.117 OA 
BRANCH  19  22
HETATM   22  C   UNL     1      -8.513  14.983  67.201  1.00  0.00    -0.218 C  
HETATM   23  C   UNL     1     -10.752  15.717  66.426  1.00  0.00    -0.291 C  
HETATM   24  C   UNL     1      -9.856  15.567  67.642  1.00  0.00    -0.213 C  
HETATM   25  C   UNL     1     -10.741  14.449  65.624  1.00  0.00    -0.326 A  
HETATM   26  C   UNL     1      -9.710  13.511  65.770  1.00  0.00    -0.136 A  
HETATM   27  O   UNL     1      -8.674  13.655  66.657  1.00  0.00    -0.137 OA 
HETATM   28  C   UNL     1      -9.721  12.328  65.026  1.00  0.00    -0.080 A  
HETATM   29  C   UNL     1     -10.748  12.084  64.116  1.00  0.00    -0.405 A  
HETATM   30  C   UNL     1     -11.760  13.024  63.960  1.00  0.00    -0.436 A  
HETATM   31  F   UNL     1     -12.750  12.792  63.088  1.00  0.00    -0.463 F  
HETATM   32  C   UNL     1     -11.765  14.201  64.701  1.00  0.00    -0.427 A  
ENDBRANCH  19  22
ENDBRANCH  18  19
ENDBRANCH  16  18
ENDBRANCH  15  16
ENDBRANCH   2  15
TORSDOF 6
ENDMDL
MODEL      318
REMARK 921   NORMALIZED FREE ENERGY PREDICTED BY IDOCK:   -2.01 KCAL/MOL
REMARK 922        TOTAL FREE ENERGY PREDICTED BY IDOCK:   -3.90 KCAL/MOL
REMARK 923 INTER-LIGAND FREE ENERGY PREDICTED BY IDOCK:   -4.72 KCAL/MOL
REMARK 924 INTRA-LIGAND FREE ENERGY PREDICTED BY IDOCK:    0.82 KCAL/MOL
REMARK 927      BINDING AFFINITY PREDICTED BY RF-SCORE:    0.00 PKD
ROOT
HETATM    1  O   UNL     1      -7.550   7.876  72.333  1.00  0.00    -0.086 OA 
HETATM    2  C   UNL     1      -8.378   8.107  71.185  1.00  0.00    -0.120 C  
HETATM    3  H   UNL     1      -7.996   7.294  72.936  1.00  0.00     0.000 HD 
ENDROOT
BRANCH   2   4
HETATM    4  C   UNL     1      -8.757   6.757  70.535  1.00  0.00    -0.147 C  
HETATM    5  C   UNL     1      -9.741   3.727  66.698  1.00  0.00    -0.123 A  
HETATM    6  C   UNL     1     -10.222   4.980  66.342  1.00  0.00    -0.307 A  
HETATM    7  C   UNL     1      -7.615   5.737  70.587  1.00  0.00    -0.091 C  
HETATM    8  C   UNL     1      -8.118   4.408  70.052  1.00  0.00    -0.060 C  
HETATM    9  F   UNL     1      -9.928   2.687  65.872  1.00  0.00     0.161 F  
HETATM   10  C   UNL     1     -10.021   6.061  67.203  1.00  0.00    -0.186 A  
HETATM   11  O   UNL     1      -9.179   6.999  69.180  1.00  0.00    -0.140 OA 
HETATM   12  C   UNL     1      -8.851   4.616  68.761  1.00  0.00    -0.127 A  
HETATM   13  C   UNL     1      -9.349   5.878  68.412  1.00  0.00    -0.120 A  
HETATM   14  C   UNL     1      -9.062   3.533  67.897  1.00  0.00    -0.200 A  
ENDBRANCH   2   4
BRANCH   2  15
HETATM   15  C   UNL     1      -7.653   9.053  70.206  1.00  0.00    -0.087 C  
BRANCH  15  16
HETATM   16  N   UNL     1      -8.072  10.456  70.375  1.00  0.00    -0.323 NA 
HETATM   17  H   UNL     1      -7.919  10.793  71.325  1.00  0.00     0.000 HD 
BRANCH  16  18
HETATM   18  C   UNL     1      -7.393  11.290  69.368  1.00  0.00    -0.025 C  
BRANCH  18  19
HETATM   19  C   UNL     1      -7.754  10.847  67.936  1.00  0.00    -0.104 C  
HETATM   20  H   UNL     1      -8.272   9.165  67.063  1.00  0.00     0.000 HD 
HETATM   21  O   UNL     1      -8.050   9.438  67.945  1.00  0.00    -0.102 OA 
BRANCH  19  22
HETATM   22  C   UNL     1      -8.966  11.618  67.362  1.00  0.00    -0.166 C  
HETATM   23  C   UNL     1     -11.374  12.173  67.578  1.00  0.00    -0.392 C  
HETATM   24  C   UNL     1     -10.255  11.304  68.123  1.00  0.00    -0.196 C  
HETATM   25  C   UNL     1     -11.384  12.112  66.079  1.00  0.00    -0.410 A  
HETATM   26  C   UNL     1     -10.254  11.691  65.365  1.00  0.00    -0.263 A  
HETATM   27  O   UNL     1      -9.090  11.281  65.963  1.00  0.00    -0.200 OA 
HETATM   28  C   UNL     1     -10.283  11.627  63.970  1.00  0.00    -0.391 A  
HETATM   29  C   UNL     1     -11.433  12.003  63.277  1.00  0.00    -0.398 A  
HETATM   30  C   UNL     1     -12.546  12.437  63.986  1.00  0.00    -0.412 A  
HETATM   31  F   UNL     1     -13.654  12.798  63.323  1.00  0.00     0.609 F  
HETATM   32  C   UNL     1     -12.532  12.498  65.375  1.00  0.00    -0.311 A  
ENDBRANCH  19  22
ENDBRANCH  18  19
ENDBRANCH  16  18
ENDBRANCH  15  16
ENDBRANCH   2  15
TORSDOF 6
ENDMDL
MODEL      319
REMARK 921   NORMALIZED FREE ENERGY PREDICTED BY IDOCK:   -1.64 KCAL/MOL
REMARK 922        TOTAL FREE ENERGY PREDICTED BY IDOCK:   -3.40 KCAL/MOL
REMARK 923 INTER-LIGAND FREE ENERGY PREDICTED BY IDOCK:   -3.17 KCAL/MOL
REMARK 924 INTRA-LIGAND FREE ENERGY PREDICTED BY IDOCK:   -0.24 KCAL/MOL
REMARK 927      BINDING AFFINITY PREDICTED BY RF-SCORE:    0.00 PKD
ROOT
HETATM    1  O   UNL     1      -6.186  12.946  67.781  1.00  0.00    -0.112 OA 
HETATM    2  C   UNL     1      -6.851  11.800  67.231  1.00  0.00    -0.134 C  
HETATM    3  H   UNL     1      -6.220  13.663  67.160  1.00  0.00     0.000 HD 
ENDROOT
BRANCH   2   4
HETATM    4  C   UNL     1      -8.297  12.175  66.835  1.00  0.00    -0.151 C  
HETATM    5  C   UNL     1     -12.286  12.185  63.843  1.00  0.00    -0.487 A  
HETATM    6  C   UNL     1     -11.173  12.195  63.013  1.00  0.00    -0.045 A  
HETATM    7  C   UNL     1      -9.347  11.405  67.642  1.00  0.00    -0.159 C  
HETATM    8  C   UNL     1     -10.725  11.931  67.285  1.00  0.00    -0.276 C  
HETATM    9  F   UNL     1     -13.512  12.251  63.305  1.00  0.00    -0.150 F  
HETATM   10  C   UNL     1      -9.897  12.122  63.577  1.00  0.00    -0.245 A  
HETATM   11  O   UNL     1      -8.461  11.956  65.423  1.00  0.00     0.406 OA 
HETATM   12  C   UNL     1     -10.872  12.022  65.795  1.00  0.00    -0.329 A  
HETATM   13  C   UNL     1      -9.747  12.047  64.961  1.00  0.00    -0.121 A  
HETATM   14  C   UNL     1     -12.150  12.103  65.224  1.00  0.00    -0.257 A  
ENDBRANCH   2   4
BRANCH   2  15
HETATM   15  C   UNL     1      -6.796  10.636  68.242  1.00  0.00    -0.068 C  
BRANCH  15  16
HETATM   16  N   UNL     1      -7.088   9.337  67.609  1.00  0.00    -0.081 NA 
HETATM   17  H   UNL     1      -6.346   9.040  66.975  1.00  0.00     0.000 HD 
BRANCH  16  18
HETATM   18  C   UNL     1      -7.363   8.338  68.657  1.00  0.00    -0.089 C  
BRANCH  18  19
HETATM   19  C   UNL     1      -7.300   6.903  68.096  1.00  0.00    -0.097 C  
HETATM   20  H   UNL     1      -5.902   5.724  67.379  1.00  0.00     0.000 HD 
HETATM   21  O   UNL     1      -5.941   6.608  67.725  1.00  0.00    -0.021 OA 
BRANCH  19  22
HETATM   22  C   UNL     1      -7.792   5.844  69.111  1.00  0.00    -0.095 C  
HETATM   23  C   UNL     1      -9.220   5.349  71.077  1.00  0.00    -0.179 C  
HETATM   24  C   UNL     1      -8.689   6.458  70.186  1.00  0.00    -0.139 C  
HETATM   25  C   UNL     1      -8.095   4.451  71.499  1.00  0.00    -0.091 A  
HETATM   26  C   UNL     1      -6.888   4.421  70.786  1.00  0.00    -0.036 A  
HETATM   27  O   UNL     1      -6.633   5.212  69.696  1.00  0.00    -0.039 OA 
HETATM   28  C   UNL     1      -5.845   3.589  71.199  1.00  0.00    -0.013 A  
HETATM   29  C   UNL     1      -6.007   2.764  72.312  1.00  0.00    -0.009 A  
HETATM   30  C   UNL     1      -7.210   2.783  73.006  1.00  0.00    -0.040 A  
HETATM   31  F   UNL     1      -7.369   1.994  74.077  1.00  0.00    -0.029 F  
HETATM   32  C   UNL     1      -8.253   3.613  72.610  1.00  0.00    -0.081 A  
ENDBRANCH  19  22
ENDBRANCH  18  19
ENDBRANCH  16  18
ENDBRANCH  15  16
ENDBRANCH   2  15
TORSDOF 6
ENDMDL
MODEL      320
REMARK 921   NORMALIZED FREE ENERGY PREDICTED BY IDOCK:   -0.87 KCAL/MOL
REMARK 922        TOTAL FREE ENERGY PREDICTED BY IDOCK:   -2.36 KCAL/MOL
REMARK 923 INTER-LIGAND FREE ENERGY PREDICTED BY IDOCK:   -2.58 KCAL/MOL
REMARK 924 INTRA-LIGAND FREE ENERGY PREDICTED BY IDOCK:    0.22 KCAL/MOL
REMARK 927      BINDING AFFINITY PREDICTED BY RF-SCORE:    0.00 PKD
ROOT
HETATM    1  O   UNL     1     -11.282  18.590  64.704  1.00  0.00    -0.057 OA 
HETATM    2  C   UNL     1     -10.179  18.090  65.472  1.00  0.00     0.229 C  
HETATM    3  H   UNL     1     -11.335  18.121  63.880  1.00  0.00     0.000 HD 
ENDROOT
BRANCH   2   4
HETATM    4  C   UNL     1     -10.328  16.563  65.666  1.00  0.00    -0.322 C  
HETATM    5  C   UNL     1     -11.529  11.940  64.234  1.00  0.00    -0.346 A  
HETATM    6  C   UNL     1     -12.444  12.790  63.625  1.00  0.00    -0.482 A  
HETATM    7  C   UNL     1      -8.981  15.835  65.657  1.00  0.00     0.160 C  
HETATM    8  C   UNL     1      -9.211  14.370  65.986  1.00  0.00    -0.070 C  
HETATM    9  F   UNL     1     -11.652  10.614  64.076  1.00  0.00     0.331 F  
HETATM   10  C   UNL     1     -12.310  14.171  63.788  1.00  0.00    -0.121 A  
HETATM   11  O   UNL     1     -11.205  16.052  64.646  1.00  0.00    -0.463 OA 
HETATM   12  C   UNL     1     -10.340  13.828  65.161  1.00  0.00    -0.391 A  
HETATM   13  C   UNL     1     -11.270  14.687  64.561  1.00  0.00    -0.282 A  
HETATM   14  C   UNL     1     -10.484  12.443  65.001  1.00  0.00    -0.324 A  
ENDBRANCH   2   4
BRANCH   2  15
HETATM   15  C   UNL     1     -10.093  18.851  66.811  1.00  0.00    -0.375 C  
BRANCH  15  16
HETATM   16  N   UNL     1      -8.863  19.657  66.914  1.00  0.00    -0.315 NA 
HETATM   17  H   UNL     1      -8.947  20.406  67.601  1.00  0.00     0.000 HD 
BRANCH  16  18
HETATM   18  C   UNL     1      -7.722  18.766  67.193  1.00  0.00    -0.232 C  
BRANCH  18  19
HETATM   19  C   UNL     1      -7.839  18.126  68.591  1.00  0.00    -0.295 C  
HETATM   20  H   UNL     1      -7.635  18.733  70.447  1.00  0.00     0.000 HD 
HETATM   21  O   UNL     1      -7.563  19.128  69.586  1.00  0.00    -0.013 OA 
BRANCH  19  22
HETATM   22  C   UNL     1      -9.237  17.519  68.853  1.00  0.00    -0.153 C  
HETATM   23  C   UNL     1     -11.242  17.460  70.312  1.00  0.00     1.398 C  
HETATM   24  C   UNL     1      -9.832  18.007  70.174  1.00  0.00     1.438 C  
HETATM   25  C   UNL     1     -11.251  15.990  70.012  1.00  0.00    -0.362 A  
HETATM   26  C   UNL     1     -10.209  15.394  69.288  1.00  0.00    -0.250 A  
HETATM   27  O   UNL     1      -9.112  16.080  68.836  1.00  0.00    -0.208 OA 
HETATM   28  C   UNL     1     -10.225  14.021  69.028  1.00  0.00    -0.100 A  
HETATM   29  C   UNL     1     -11.291  13.238  69.470  1.00  0.00    -0.236 A  
HETATM   30  C   UNL     1     -12.331  13.835  70.172  1.00  0.00    -0.323 A  
HETATM   31  F   UNL     1     -13.356  13.086  70.600  1.00  0.00    -0.009 F  
HETATM   32  C   UNL     1     -12.323  15.198  70.444  1.00  0.00    -0.411 A  
ENDBRANCH  19  22
ENDBRANCH  18  19
ENDBRANCH  16  18
ENDBRANCH  15  16
ENDBRANCH   2  15
TORSDOF 6
ENDMDL
MODEL      321
REMARK 921   NORMALIZED FREE ENERGY PREDICTED BY IDOCK:   -0.86 KCAL/MOL
REMARK 922        TOTAL FREE ENERGY PREDICTED BY IDOCK:   -2.35 KCAL/MOL
REMARK 923 INTER-LIGAND FREE ENERGY PREDICTED BY IDOCK:   -1.91 KCAL/MOL
REMARK 924 INTRA-LIGAND FREE ENERGY PREDICTED BY IDOCK:   -0.44 KCAL/MOL
REMARK 927      BINDING AFFINITY PREDICTED BY RF-SCORE:    0.00 PKD
ROOT
HETATM    1  O   UNL     1     -10.808  19.352  66.103  1.00  0.00    -0.403 OA 
HETATM    2  C   UNL     1     -10.737  18.922  67.470  1.00  0.00    -0.434 C  
HETATM    3  H   UNL     1     -10.097  19.954  65.921  1.00  0.00     0.000 HD 
ENDROOT
BRANCH   2   4
HETATM    4  C   UNL     1      -9.348  18.303  67.752  1.00  0.00    -0.271 C  
HETATM    5  C   UNL     1      -6.190  14.548  68.636  1.00  0.00    -0.083 A  
HETATM    6  C   UNL     1      -7.387  14.207  69.253  1.00  0.00    -0.016 A  
HETATM    7  C   UNL     1      -8.443  18.304  66.516  1.00  0.00    -0.287 C  
HETATM    8  C   UNL     1      -7.065  17.807  66.916  1.00  0.00    -0.217 C  
HETATM    9  F   UNL     1      -5.127  13.741  68.765  1.00  0.00    -0.069 F  
HETATM   10  C   UNL     1      -8.493  15.048  69.112  1.00  0.00    -0.192 A  
HETATM   11  O   UNL     1      -9.532  16.971  68.263  1.00  0.00    -0.249 OA 
HETATM   12  C   UNL     1      -7.186  16.554  67.731  1.00  0.00    -0.156 A  
HETATM   13  C   UNL     1      -8.391  16.221  68.365  1.00  0.00    -0.190 A  
HETATM   14  C   UNL     1      -6.076  15.711  67.882  1.00  0.00    -0.163 A  
ENDBRANCH   2   4
BRANCH   2  15
HETATM   15  C   UNL     1     -11.892  17.944  67.766  1.00  0.00     1.987 C  
BRANCH  15  16
HETATM   16  N   UNL     1     -11.886  16.785  66.855  1.00  0.00     1.341 NA 
HETATM   17  H   UNL     1     -11.165  16.861  66.137  1.00  0.00     0.000 HD 
BRANCH  16  18
HETATM   18  C   UNL     1     -11.759  15.548  67.646  1.00  0.00    -0.045 C  
BRANCH  18  19
HETATM   19  C   UNL     1     -12.117  14.305  66.807  1.00  0.00    -0.417 C  
HETATM   20  H   UNL     1     -11.911  13.757  64.932  1.00  0.00     0.000 HD 
HETATM   21  O   UNL     1     -11.691  14.523  65.449  1.00  0.00    -0.350 OA 
BRANCH  19  22
HETATM   22  C   UNL     1     -11.460  13.013  67.346  1.00  0.00    -0.332 C  
HETATM   23  C   UNL     1     -10.329  11.886  69.244  1.00  0.00     0.129 C  
HETATM   24  C   UNL     1     -10.856  13.216  68.735  1.00  0.00    -0.278 C  
HETATM   25  C   UNL     1      -9.499  11.226  68.182  1.00  0.00    -0.184 A  
HETATM   26  C   UNL     1      -9.619  11.598  66.836  1.00  0.00    -0.186 A  
HETATM   27  O   UNL     1     -10.457  12.590  66.396  1.00  0.00    -0.242 OA 
HETATM   28  C   UNL     1      -8.830  10.984  65.860  1.00  0.00    -0.204 A  
HETATM   29  C   UNL     1      -7.932   9.979  66.219  1.00  0.00    -0.111 A  
HETATM   30  C   UNL     1      -7.828   9.600  67.552  1.00  0.00    -0.095 A  
HETATM   31  F   UNL     1      -6.964   8.636  67.900  1.00  0.00    -0.071 F  
HETATM   32  C   UNL     1      -8.602  10.209  68.533  1.00  0.00    -0.118 A  
ENDBRANCH  19  22
ENDBRANCH  18  19
ENDBRANCH  16  18
ENDBRANCH  15  16
ENDBRANCH   2  15
TORSDOF 6
ENDMDL
MODEL      322
REMARK 921   NORMALIZED FREE ENERGY PREDICTED BY IDOCK:   -0.70 KCAL/MOL
REMARK 922        TOTAL FREE ENERGY PREDICTED BY IDOCK:   -2.13 KCAL/MOL
REMARK 923 INTER-LIGAND FREE ENERGY PREDICTED BY IDOCK:   -3.39 KCAL/MOL
REMARK 924 INTRA-LIGAND FREE ENERGY PREDICTED BY IDOCK:    1.26 KCAL/MOL
REMARK 927      BINDING AFFINITY PREDICTED BY RF-SCORE:    0.00 PKD
ROOT
HETATM    1  O   UNL     1     -11.445  12.874  71.634  1.00  0.00     1.450 OA 
HETATM    2  C   UNL     1     -12.007  12.545  70.355  1.00  0.00    -0.251 C  
HETATM    3  H   UNL     1     -11.612  12.168  72.246  1.00  0.00     0.000 HD 
ENDROOT
BRANCH   2   4
HETATM    4  C   UNL     1     -11.440  11.191  69.869  1.00  0.00    -0.306 C  
HETATM    5  C   UNL     1      -7.965   7.632  69.516  1.00  0.00    -0.125 A  
HETATM    6  C   UNL     1      -7.284   8.841  69.571  1.00  0.00    -0.059 A  
HETATM    7  C   UNL     1     -12.085   9.995  70.578  1.00  0.00    -0.338 C  
HETATM    8  C   UNL     1     -11.570   8.714  69.947  1.00  0.00     0.260 C  
HETATM    9  F   UNL     1      -7.278   6.493  69.352  1.00  0.00    -0.074 F  
HETATM   10  C   UNL     1      -8.004  10.026  69.746  1.00  0.00    -0.190 A  
HETATM   11  O   UNL     1     -10.012  11.196  70.050  1.00  0.00     0.531 OA 
HETATM   12  C   UNL     1     -10.076   8.767  69.818  1.00  0.00    -0.198 A  
HETATM   13  C   UNL     1      -9.394   9.990  69.858  1.00  0.00    -0.169 A  
HETATM   14  C   UNL     1      -9.350   7.582  69.634  1.00  0.00    -0.153 A  
ENDBRANCH   2   4
BRANCH   2  15
HETATM   15  C   UNL     1     -11.735  13.692  69.360  1.00  0.00    -0.324 C  
BRANCH  15  16
HETATM   16  N   UNL     1     -10.839  14.717  69.925  1.00  0.00    -0.440 NA 
HETATM   17  H   UNL     1      -9.864  14.418  69.931  1.00  0.00     0.000 HD 
BRANCH  16  18
HETATM   18  C   UNL     1     -11.032  15.984  69.197  1.00  0.00    -0.297 C  
BRANCH  18  19
HETATM   19  C   UNL     1      -9.979  16.158  68.084  1.00  0.00    -0.230 C  
HETATM   20  H   UNL     1      -8.048  16.508  68.005  1.00  0.00     0.000 HD 
HETATM   21  O   UNL     1      -8.696  16.401  68.691  1.00  0.00    -0.212 OA 
BRANCH  19  22
HETATM   22  C   UNL     1      -9.879  14.921  67.160  1.00  0.00    -0.231 C  
HETATM   23  C   UNL     1     -11.050  12.999  66.118  1.00  0.00    -0.311 C  
HETATM   24  C   UNL     1     -11.186  14.129  67.123  1.00  0.00    -0.330 C  
HETATM   25  C   UNL     1      -9.763  12.264  66.347  1.00  0.00    -0.243 A  
HETATM   26  C   UNL     1      -8.712  12.854  67.063  1.00  0.00    -0.195 A  
HETATM   27  O   UNL     1      -8.784  14.103  67.624  1.00  0.00    -0.166 OA 
HETATM   28  C   UNL     1      -7.523  12.151  67.280  1.00  0.00    -0.152 A  
HETATM   29  C   UNL     1      -7.369  10.864  66.765  1.00  0.00    -0.134 A  
HETATM   30  C   UNL     1      -8.405  10.289  66.042  1.00  0.00    -0.142 A  
HETATM   31  F   UNL     1      -8.261   9.052  65.548  1.00  0.00    -0.104 F  
HETATM   32  C   UNL     1      -9.596  10.974  65.826  1.00  0.00    -0.260 A  
ENDBRANCH  19  22
ENDBRANCH  18  19
ENDBRANCH  16  18
ENDBRANCH  15  16
ENDBRANCH   2  15
TORSDOF 6
ENDMDL
MODEL      323
REMARK 921   NORMALIZED FREE ENERGY PREDICTED BY IDOCK:   -0.05 KCAL/MOL
REMARK 922        TOTAL FREE ENERGY PREDICTED BY IDOCK:   -1.25 KCAL/MOL
REMARK 923 INTER-LIGAND FREE ENERGY PREDICTED BY IDOCK:   -2.73 KCAL/MOL
REMARK 924 INTRA-LIGAND FREE ENERGY PREDICTED BY IDOCK:    1.48 KCAL/MOL
REMARK 927      BINDING AFFINITY PREDICTED BY RF-SCORE:    0.00 PKD
ROOT
HETATM    1  O   UNL     1      -7.014  13.358  68.373  1.00  0.00    -0.086 OA 
HETATM    2  C   UNL     1      -7.829  12.283  67.884  1.00  0.00    -0.146 C  
HETATM    3  H   UNL     1      -6.350  13.014  68.959  1.00  0.00     0.000 HD 
ENDROOT
BRANCH   2   4
HETATM    4  C   UNL     1      -6.936  11.217  67.209  1.00  0.00    -0.096 C  
HETATM    5  C   UNL     1      -5.976   6.727  65.264  1.00  0.00    -0.035 A  
HETATM    6  C   UNL     1      -6.862   6.519  66.312  1.00  0.00    -0.057 A  
HETATM    7  C   UNL     1      -6.674  11.521  65.730  1.00  0.00     0.679 C  
HETATM    8  C   UNL     1      -5.686  10.503  65.187  1.00  0.00    -0.137 C  
HETATM    9  F   UNL     1      -5.488   5.674  64.592  1.00  0.00    -0.012 F  
HETATM   10  C   UNL     1      -7.371   7.618  67.008  1.00  0.00    -0.090 A  
HETATM   11  O   UNL     1      -7.552   9.927  67.375  1.00  0.00    -0.091 OA 
HETATM   12  C   UNL     1      -6.102   9.118  65.585  1.00  0.00    -0.055 A  
HETATM   13  C   UNL     1      -6.985   8.911  66.654  1.00  0.00    -0.080 A  
HETATM   14  C   UNL     1      -5.588   8.011  64.896  1.00  0.00    -0.044 A  
ENDBRANCH   2   4
BRANCH   2  15
HETATM   15  C   UNL     1      -8.907  12.842  66.933  1.00  0.00    -0.187 C  
BRANCH  15  16
HETATM   16  N   UNL     1      -9.773  11.781  66.390  1.00  0.00    -0.209 NA 
HETATM   17  H   UNL     1      -9.402  10.848  66.571  1.00  0.00     0.000 HD 
BRANCH  16  18
HETATM   18  C   UNL     1     -11.139  11.952  66.918  1.00  0.00    -0.305 C  
BRANCH  18  19
HETATM   19  C   UNL     1     -11.136  12.073  68.455  1.00  0.00    -0.244 C  
HETATM   20  H   UNL     1     -10.255  11.147  69.946  1.00  0.00     0.000 HD 
HETATM   21  O   UNL     1     -10.256  11.072  68.999  1.00  0.00    -0.210 OA 
BRANCH  19  22
HETATM   22  C   UNL     1     -10.682  13.469  68.942  1.00  0.00    -0.201 C  
HETATM   23  C   UNL     1     -10.788  15.190  70.725  1.00  0.00    -0.193 C  
HETATM   24  C   UNL     1     -11.361  13.865  70.254  1.00  0.00    -0.007 C  
HETATM   25  C   UNL     1     -10.774  16.172  69.591  1.00  0.00    -0.325 A  
HETATM   26  C   UNL     1     -10.847  15.740  68.260  1.00  0.00    -0.305 A  
HETATM   27  O   UNL     1     -10.968  14.424  67.896  1.00  0.00    -0.252 OA 
HETATM   28  C   UNL     1     -10.846  16.668  67.215  1.00  0.00    -0.158 A  
HETATM   29  C   UNL     1     -10.750  18.031  67.491  1.00  0.00    -0.352 A  
HETATM   30  C   UNL     1     -10.659  18.456  68.811  1.00  0.00     0.132 A  
HETATM   31  F   UNL     1     -10.568  19.765  69.080  1.00  0.00    -0.353 F  
HETATM   32  C   UNL     1     -10.667  17.543  69.860  1.00  0.00     0.688 A  
ENDBRANCH  19  22
ENDBRANCH  18  19
ENDBRANCH  16  18
ENDBRANCH  15  16
ENDBRANCH   2  15
TORSDOF 6
ENDMDL
MODEL      324
REMARK 921   NORMALIZED FREE ENERGY PREDICTED BY IDOCK:    5.18 KCAL/MOL
REMARK 922        TOTAL FREE ENERGY PREDICTED BY IDOCK:    5.82 KCAL/MOL
REMARK 923 INTER-LIGAND FREE ENERGY PREDICTED BY IDOCK:    1.95 KCAL/MOL
REMARK 924 INTRA-LIGAND FREE ENERGY PREDICTED BY IDOCK:    3.87 KCAL/MOL
REMARK 927      BINDING AFFINITY PREDICTED BY RF-SCORE:    0.00 PKD
ROOT
HETATM    1  O   UNL     1     -11.299  12.930  71.812  1.00  0.00     2.218 OA 
HETATM    2  C   UNL     1     -11.955  12.596  70.580  1.00  0.00    -0.192 C  
HETATM    3  H   UNL     1     -11.298  12.174  72.387  1.00  0.00     0.000 HD 
ENDROOT
BRANCH   2   4
HETATM    4  C   UNL     1     -11.272  11.365  69.941  1.00  0.00    -0.143 C  
HETATM    5  C   UNL     1      -7.364   8.538  68.675  1.00  0.00    -0.088 A  
HETATM    6  C   UNL     1      -6.939   9.857  68.588  1.00  0.00    -0.062 A  
HETATM    7  C   UNL     1     -11.480  10.087  70.760  1.00  0.00    -0.438 C  
HETATM    8  C   UNL     1     -10.895   8.913  69.995  1.00  0.00    -0.239 C  
HETATM    9  F   UNL     1      -6.530   7.550  68.323  1.00  0.00    -0.042 F  
HETATM   10  C   UNL     1      -7.811  10.884  68.958  1.00  0.00    -0.138 A  
HETATM   11  O   UNL     1      -9.872  11.652  69.768  1.00  0.00     0.733 OA 
HETATM   12  C   UNL     1      -9.518   9.251  69.506  1.00  0.00    -0.178 A  
HETATM   13  C   UNL     1      -9.097  10.583  69.405  1.00  0.00    -0.104 A  
HETATM   14  C   UNL     1      -8.642   8.224  69.125  1.00  0.00    -0.138 A  
ENDBRANCH   2   4
BRANCH   2  15
HETATM   15  C   UNL     1     -11.957  13.824  69.646  1.00  0.00    -0.342 C  
BRANCH  15  16
HETATM   16  N   UNL     1     -11.022  14.869  70.100  1.00  0.00    -0.407 NA 
HETATM   17  H   UNL     1     -10.051  14.557  70.076  1.00  0.00     0.000 HD 
BRANCH  16  18
HETATM   18  C   UNL     1     -11.239  16.091  69.306  1.00  0.00    -0.346 C  
BRANCH  18  19
HETATM   19  C   UNL     1     -10.900  15.862  67.819  1.00  0.00    -0.324 C  
HETATM   20  H   UNL     1      -9.260  15.708  66.749  1.00  0.00     0.000 HD 
HETATM   21  O   UNL     1      -9.469  15.849  67.665  1.00  0.00    -0.217 OA 
BRANCH  19  22
HETATM   22  C   UNL     1     -11.483  14.539  67.272  1.00  0.00    -0.365 C  
HETATM   23  C   UNL     1     -11.256  12.074  67.103  1.00  0.00    -0.374 C  
HETATM   24  C   UNL     1     -10.572  13.347  67.569  1.00  0.00    -0.255 C  
HETATM   25  C   UNL     1     -11.779  12.257  65.709  1.00  0.00    -0.445 A  
HETATM   26  C   UNL     1     -11.981  13.537  65.175  1.00  0.00    -0.368 A  
HETATM   27  O   UNL     1     -11.694  14.695  65.852  1.00  0.00    -0.353 OA 
HETATM   28  C   UNL     1     -12.456  13.692  63.870  1.00  0.00    -0.276 A  
HETATM   29  C   UNL     1     -12.754  12.569  63.098  1.00  0.00    -0.056 A  
HETATM   30  C   UNL     1     -12.569  11.302  63.635  1.00  0.00     0.739 A  
HETATM   31  F   UNL     1     -12.852  10.221  62.895  1.00  0.00     2.918 F  
HETATM   32  C   UNL     1     -12.089  11.135  64.930  1.00  0.00     1.230 A  
ENDBRANCH  19  22
ENDBRANCH  18  19
ENDBRANCH  16  18
ENDBRANCH  15  16
ENDBRANCH   2  15
TORSDOF 6
ENDMDL
MODEL      325
REMARK 921   NORMALIZED FREE ENERGY PREDICTED BY IDOCK:    5.45 KCAL/MOL
REMARK 922        TOTAL FREE ENERGY PREDICTED BY IDOCK:    6.17 KCAL/MOL
REMARK 923 INTER-LIGAND FREE ENERGY PREDICTED BY IDOCK:    4.31 KCAL/MOL
REMARK 924 INTRA-LIGAND FREE ENERGY PREDICTED BY IDOCK:    1.87 KCAL/MOL
REMARK 927      BINDING AFFINITY PREDICTED BY RF-SCORE:    0.00 PKD
ROOT
HETATM    1  O   UNL     1      -6.914  13.756  68.295  1.00  0.00    -0.086 OA 
HETATM    2  C   UNL     1      -7.715  12.901  67.467  1.00  0.00    -0.174 C  
HETATM    3  H   UNL     1      -6.344  13.228  68.841  1.00  0.00     0.000 HD 
ENDROOT
BRANCH   2   4
HETATM    4  C   UNL     1      -6.800  11.966  66.642  1.00  0.00     0.089 C  
HETATM    5  C   UNL     1      -5.839   8.049  63.710  1.00  0.00    -0.058 A  
HETATM    6  C   UNL     1      -6.868   7.661  64.558  1.00  0.00    -0.055 A  
HETATM    7  C   UNL     1      -6.326  12.611  65.336  1.00  0.00     6.085 C  
HETATM    8  C   UNL     1      -5.333  11.681  64.662  1.00  0.00     2.009 C  
HETATM    9  F   UNL     1      -5.326   7.163  62.845  1.00  0.00    -0.030 F  
HETATM   10  C   UNL     1      -7.404   8.589  65.455  1.00  0.00    -0.084 A  
HETATM   11  O   UNL     1      -7.504  10.736  66.392  1.00  0.00    -0.131 OA 
HETATM   12  C   UNL     1      -5.875  10.282  64.631  1.00  0.00    -0.133 A  
HETATM   13  C   UNL     1      -6.902   9.890  65.499  1.00  0.00    -0.105 A  
HETATM   14  C   UNL     1      -5.335   9.345  63.739  1.00  0.00    -0.062 A  
ENDBRANCH   2   4
BRANCH   2  15
HETATM   15  C   UNL     1      -8.640  13.759  66.580  1.00  0.00     0.212 C  
BRANCH  15  16
HETATM   16  N   UNL     1      -9.607  12.939  65.829  1.00  0.00    -0.453 NA 
HETATM   17  H   UNL     1      -9.152  12.337  65.142  1.00  0.00     0.000 HD 
BRANCH  16  18
HETATM   18  C   UNL     1     -10.437  12.177  66.779  1.00  0.00    -0.218 C  
BRANCH  18  19
HETATM   19  C   UNL     1      -9.782  12.114  68.173  1.00  0.00    -0.208 C  
HETATM   20  H   UNL     1     -10.136  12.899  69.939  1.00  0.00     0.000 HD 
HETATM   21  O   UNL     1     -10.539  12.938  69.080  1.00  0.00    -0.167 OA 
BRANCH  19  22
HETATM   22  C   UNL     1      -9.709  10.675  68.733  1.00  0.00    -0.189 C  
HETATM   23  C   UNL     1      -8.310   8.916  69.783  1.00  0.00    -0.125 C  
HETATM   24  C   UNL     1      -8.287  10.294  69.145  1.00  0.00    -0.154 C  
HETATM   25  C   UNL     1      -9.095   7.969  68.924  1.00  0.00    -0.144 A  
HETATM   26  C   UNL     1     -10.004   8.444  67.969  1.00  0.00    -0.182 A  
HETATM   27  O   UNL     1     -10.221   9.775  67.725  1.00  0.00    -0.182 OA 
HETATM   28  C   UNL     1     -10.717   7.549  67.166  1.00  0.00    -0.379 A  
HETATM   29  C   UNL     1     -10.544   6.175  67.328  1.00  0.00    -0.362 A  
HETATM   30  C   UNL     1      -9.655   5.706  68.287  1.00  0.00    -0.121 A  
HETATM   31  F   UNL     1      -9.485   4.387  68.444  1.00  0.00    -0.157 F  
HETATM   32  C   UNL     1      -8.934   6.587  69.086  1.00  0.00    -0.130 A  
ENDBRANCH  19  22
ENDBRANCH  18  19
ENDBRANCH  16  18
ENDBRANCH  15  16
ENDBRANCH   2  15
TORSDOF 6
ENDMDL
MODEL      326
REMARK 921   NORMALIZED FREE ENERGY PREDICTED BY IDOCK:    6.57 KCAL/MOL
REMARK 922        TOTAL FREE ENERGY PREDICTED BY IDOCK:    7.68 KCAL/MOL
REMARK 923 INTER-LIGAND FREE ENERGY PREDICTED BY IDOCK:    7.22 KCAL/MOL
REMARK 924 INTRA-LIGAND FREE ENERGY PREDICTED BY IDOCK:    0.46 KCAL/MOL
REMARK 927      BINDING AFFINITY PREDICTED BY RF-SCORE:    0.00 PKD
ROOT
HETATM    1  O   UNL     1      -5.344  16.962  69.455  1.00  0.00    -0.140 OA 
HETATM    2  C   UNL     1      -6.584  16.240  69.446  1.00  0.00    -0.202 C  
HETATM    3  H   UNL     1      -5.239  17.425  68.633  1.00  0.00     0.000 HD 
ENDROOT
BRANCH   2   4
HETATM    4  C   UNL     1      -7.752  17.212  69.157  1.00  0.00    -0.094 C  
HETATM    5  C   UNL     1     -11.076  19.512  66.237  1.00  0.00    -0.012 A  
HETATM    6  C   UNL     1      -9.929  19.347  65.471  1.00  0.00     0.244 A  
HETATM    7  C   UNL     1      -9.096  16.685  69.669  1.00  0.00     0.459 C  
HETATM    8  C   UNL     1     -10.153  17.756  69.464  1.00  0.00     0.126 C  
HETATM    9  F   UNL     1     -12.126  20.168  65.723  1.00  0.00     0.928 F  
HETATM   10  C   UNL     1      -8.839  18.659  66.010  1.00  0.00     0.008 A  
HETATM   11  O   UNL     1      -7.797  17.471  67.742  1.00  0.00    -0.200 OA 
HETATM   12  C   UNL     1     -10.067  18.306  68.071  1.00  0.00    -0.381 A  
HETATM   13  C   UNL     1      -8.903  18.151  67.307  1.00  0.00    -0.251 A  
HETATM   14  C   UNL     1     -11.155  19.004  67.529  1.00  0.00    -0.188 A  
ENDBRANCH   2   4
BRANCH   2  15
HETATM   15  C   UNL     1      -6.756  15.489  70.782  1.00  0.00     0.747 C  
BRANCH  15  16
HETATM   16  N   UNL     1      -5.464  15.066  71.352  1.00  0.00    -0.054 NA 
HETATM   17  H   UNL     1      -5.457  15.113  72.370  1.00  0.00     0.000 HD 
BRANCH  16  18
HETATM   18  C   UNL     1      -5.129  13.722  70.850  1.00  0.00    -0.119 C  
BRANCH  18  19
HETATM   19  C   UNL     1      -6.280  12.726  71.101  1.00  0.00     1.043 C  
HETATM   20  H   UNL     1      -7.985  12.750  72.075  1.00  0.00     0.000 HD 
HETATM   21  O   UNL     1      -7.276  13.364  71.920  1.00  0.00     3.795 OA 
BRANCH  19  22
HETATM   22  C   UNL     1      -6.937  12.233  69.790  1.00  0.00     0.344 C  
HETATM   23  C   UNL     1      -8.989  12.128  68.401  1.00  0.00    -0.146 C  
HETATM   24  C   UNL     1      -8.435  12.538  69.753  1.00  0.00     2.271 C  
HETATM   25  C   UNL     1      -8.522  10.744  68.057  1.00  0.00    -0.124 A  
HETATM   26  C   UNL     1      -7.406  10.179  68.690  1.00  0.00    -0.082 A  
HETATM   27  O   UNL     1      -6.689  10.815  69.671  1.00  0.00    -0.092 OA 
HETATM   28  C   UNL     1      -6.992   8.884  68.369  1.00  0.00    -0.065 A  
HETATM   29  C   UNL     1      -7.676   8.152  67.399  1.00  0.00    -0.102 A  
HETATM   30  C   UNL     1      -8.771   8.720  66.760  1.00  0.00    -0.124 A  
HETATM   31  F   UNL     1      -9.431   8.019  65.829  1.00  0.00    -0.198 F  
HETATM   32  C   UNL     1      -9.198  10.005  67.077  1.00  0.00    -0.167 A  
ENDBRANCH  19  22
ENDBRANCH  18  19
ENDBRANCH  16  18
ENDBRANCH  15  16
ENDBRANCH   2  15
TORSDOF 6
ENDMDL
MODEL      327
REMARK 921   NORMALIZED FREE ENERGY PREDICTED BY IDOCK:    7.26 KCAL/MOL
REMARK 922        TOTAL FREE ENERGY PREDICTED BY IDOCK:    8.61 KCAL/MOL
REMARK 923 INTER-LIGAND FREE ENERGY PREDICTED BY IDOCK:    8.24 KCAL/MOL
REMARK 924 INTRA-LIGAND FREE ENERGY PREDICTED BY IDOCK:    0.38 KCAL/MOL
REMARK 927      BINDING AFFINITY PREDICTED BY RF-SCORE:    0.00 PKD
ROOT
HETATM    1  O   UNL     1      -5.344  16.962  69.455  1.00  0.00    -0.140 OA 
HETATM    2  C   UNL     1      -6.584  16.240  69.446  1.00  0.00    -0.202 C  
HETATM    3  H   UNL     1      -5.239  17.425  68.633  1.00  0.00     0.000 HD 
ENDROOT
BRANCH   2   4
HETATM    4  C   UNL     1      -7.752  17.212  69.157  1.00  0.00    -0.094 C  
HETATM    5  C   UNL     1     -11.076  19.512  66.237  1.00  0.00    -0.012 A  
HETATM    6  C   UNL     1      -9.929  19.347  65.471  1.00  0.00     0.244 A  
HETATM    7  C   UNL     1      -9.096  16.685  69.669  1.00  0.00     0.459 C  
HETATM    8  C   UNL     1     -10.153  17.756  69.464  1.00  0.00     0.126 C  
HETATM    9  F   UNL     1     -12.126  20.168  65.723  1.00  0.00     0.928 F  
HETATM   10  C   UNL     1      -8.839  18.659  66.010  1.00  0.00     0.008 A  
HETATM   11  O   UNL     1      -7.797  17.471  67.742  1.00  0.00    -0.200 OA 
HETATM   12  C   UNL     1     -10.067  18.306  68.071  1.00  0.00    -0.381 A  
HETATM   13  C   UNL     1      -8.903  18.151  67.307  1.00  0.00    -0.251 A  
HETATM   14  C   UNL     1     -11.155  19.004  67.529  1.00  0.00    -0.188 A  
ENDBRANCH   2   4
BRANCH   2  15
HETATM   15  C   UNL     1      -6.756  15.489  70.782  1.00  0.00     0.747 C  
BRANCH  15  16
HETATM   16  N   UNL     1      -5.464  15.066  71.352  1.00  0.00    -0.054 NA 
HETATM   17  H   UNL     1      -5.457  15.113  72.370  1.00  0.00     0.000 HD 
BRANCH  16  18
HETATM   18  C   UNL     1      -5.129  13.722  70.850  1.00  0.00    -0.119 C  
BRANCH  18  19
HETATM   19  C   UNL     1      -6.280  12.726  71.101  1.00  0.00     1.043 C  
HETATM   20  H   UNL     1      -7.874  12.666  72.246  1.00  0.00     0.000 HD 
HETATM   21  O   UNL     1      -7.166  13.279  72.091  1.00  0.00     4.656 OA 
BRANCH  19  22
HETATM   22  C   UNL     1      -7.084  12.409  69.818  1.00  0.00     0.510 C  
HETATM   23  C   UNL     1      -7.284  12.691  67.362  1.00  0.00    -0.138 C  
HETATM   24  C   UNL     1      -6.517  13.132  68.596  1.00  0.00    -0.087 C  
HETATM   25  C   UNL     1      -8.759  12.761  67.626  1.00  0.00    -0.180 A  
HETATM   26  C   UNL     1      -9.258  12.783  68.935  1.00  0.00     0.316 A  
HETATM   27  O   UNL     1      -8.461  12.776  70.051  1.00  0.00     2.482 OA 
HETATM   28  C   UNL     1     -10.634  12.861  69.165  1.00  0.00     0.009 A  
HETATM   29  C   UNL     1     -11.522  12.896  68.090  1.00  0.00    -0.354 A  
HETATM   30  C   UNL     1     -11.025  12.856  66.793  1.00  0.00    -0.272 A  
HETATM   31  F   UNL     1     -11.874  12.891  65.758  1.00  0.00    -0.361 F  
HETATM   32  C   UNL     1      -9.657  12.786  66.551  1.00  0.00    -0.257 A  
ENDBRANCH  19  22
ENDBRANCH  18  19
ENDBRANCH  16  18
ENDBRANCH  15  16
ENDBRANCH   2  15
TORSDOF 6
ENDMDL
MODEL      328
REMARK 921   NORMALIZED FREE ENERGY PREDICTED BY IDOCK:   11.18 KCAL/MOL
REMARK 922        TOTAL FREE ENERGY PREDICTED BY IDOCK:   13.91 KCAL/MOL
REMARK 923 INTER-LIGAND FREE ENERGY PREDICTED BY IDOCK:   -2.81 KCAL/MOL
REMARK 924 INTRA-LIGAND FREE ENERGY PREDICTED BY IDOCK:   16.72 KCAL/MOL
REMARK 927      BINDING AFFINITY PREDICTED BY RF-SCORE:    0.00 PKD
ROOT
HETATM    1  O   UNL     1      -5.431   5.991  67.589  1.00  0.00    -0.004 OA 
HETATM    2  C   UNL     1      -6.849   5.961  67.369  1.00  0.00    -0.063 C  
HETATM    3  H   UNL     1      -5.019   6.544  66.936  1.00  0.00     0.000 HD 
ENDROOT
BRANCH   2   4
HETATM    4  C   UNL     1      -7.408   7.402  67.374  1.00  0.00    -0.102 C  
HETATM    5  C   UNL     1      -7.084  12.354  67.860  1.00  0.00    -0.109 A  
HETATM    6  C   UNL     1      -6.191  11.811  68.774  1.00  0.00    -0.057 A  
HETATM    7  C   UNL     1      -7.719   7.917  65.965  1.00  0.00    -0.092 C  
HETATM    8  C   UNL     1      -8.385   9.277  66.074  1.00  0.00    -0.117 C  
HETATM    9  F   UNL     1      -7.257  13.683  67.814  1.00  0.00    -0.101 F  
HETATM   10  C   UNL     1      -6.011  10.426  68.816  1.00  0.00    -0.040 A  
HETATM   11  O   UNL     1      -6.469   8.259  68.047  1.00  0.00    -0.054 OA 
HETATM   12  C   UNL     1      -7.615  10.153  67.018  1.00  0.00    -0.092 A  
HETATM   13  C   UNL     1      -6.728   9.600  67.950  1.00  0.00    -0.066 A  
HETATM   14  C   UNL     1      -7.799  11.542  66.986  1.00  0.00    -0.161 A  
ENDBRANCH   2   4
BRANCH   2  15
HETATM   15  C   UNL     1      -7.518   5.062  68.430  1.00  0.00    -0.074 C  
BRANCH  15  16
HETATM   16  N   UNL     1      -7.059   5.377  69.794  1.00  0.00    -0.061 NA 
HETATM   17  H   UNL     1      -6.750   6.345  69.885  1.00  0.00     0.000 HD 
BRANCH  16  18
HETATM   18  C   UNL     1      -8.123   5.036  70.755  1.00  0.00    -0.095 C  
BRANCH  18  19
HETATM   19  C   UNL     1      -9.499   4.958  70.064  1.00  0.00    -0.166 C  
HETATM   20  H   UNL     1     -10.793   6.244  69.335  1.00  0.00     0.000 HD 
HETATM   21  O   UNL     1      -9.945   6.293  69.761  1.00  0.00    -0.162 OA 
BRANCH  19  22
HETATM   22  C   UNL     1      -9.465   4.125  68.760  1.00  0.00    -0.163 C  
HETATM   23  C   UNL     1      -9.049   1.917  67.710  1.00  0.00    -0.197 C  
HETATM   24  C   UNL     1      -8.953   2.705  69.004  1.00  0.00    -0.171 C  
HETATM   25  C   UNL     1      -8.466   2.715  66.582  1.00  0.00    -0.104 A  
HETATM   26  C   UNL     1      -8.309   4.104  66.684  1.00  0.00    -0.101 A  
HETATM   27  O   UNL     1      -8.638   4.823  67.805  1.00  0.00    -0.103 OA 
HETATM   28  C   UNL     1      -7.751   4.832  65.630  1.00  0.00    -0.090 A  
HETATM   29  C   UNL     1      -7.366   4.181  64.458  1.00  0.00    -0.071 A  
HETATM   30  C   UNL     1      -7.538   2.807  64.352  1.00  0.00    -0.075 A  
HETATM   31  F   UNL     1      -7.167   2.178  63.229  1.00  0.00    -0.036 F  
HETATM   32  C   UNL     1      -8.085   2.070  65.397  1.00  0.00    -0.080 A  
ENDBRANCH  19  22
ENDBRANCH  18  19
ENDBRANCH  16  18
ENDBRANCH  15  16
ENDBRANCH   2  15
TORSDOF 6
ENDMDL
MODEL      329
REMARK 921   NORMALIZED FREE ENERGY PREDICTED BY IDOCK:   40.06 KCAL/MOL
REMARK 922        TOTAL FREE ENERGY PREDICTED BY IDOCK:   52.93 KCAL/MOL
REMARK 923 INTER-LIGAND FREE ENERGY PREDICTED BY IDOCK:   44.17 KCAL/MOL
REMARK 924 INTRA-LIGAND FREE ENERGY PREDICTED BY IDOCK:    8.76 KCAL/MOL
REMARK 927      BINDING AFFINITY PREDICTED BY RF-SCORE:    0.00 PKD
ROOT
HETATM    1  O   UNL     1      -6.556  14.487  69.784  1.00  0.00    -0.143 OA 
HETATM    2  C   UNL     1      -7.621  13.604  69.404  1.00  0.00     0.355 C  
HETATM    3  H   UNL     1      -5.784  13.980  70.006  1.00  0.00     0.000 HD 
ENDROOT
BRANCH   2   4
HETATM    4  C   UNL     1      -7.155  12.694  68.244  1.00  0.00    -0.105 C  
HETATM    5  C   UNL     1      -7.756   9.162  64.776  1.00  0.00    -0.111 A  
HETATM    6  C   UNL     1      -8.540   8.786  65.858  1.00  0.00    -0.174 A  
HETATM    7  C   UNL     1      -6.986  13.459  66.928  1.00  0.00     0.811 C  
HETATM    8  C   UNL     1      -6.402  12.521  65.887  1.00  0.00     3.323 C  
HETATM    9  F   UNL     1      -7.672   8.356  63.708  1.00  0.00    -0.112 F  
HETATM   10  C   UNL     1      -8.629   9.632  66.967  1.00  0.00    -0.131 A  
HETATM   11  O   UNL     1      -8.094  11.612  68.102  1.00  0.00    -0.132 OA 
HETATM   12  C   UNL     1      -7.151  11.222  65.885  1.00  0.00     0.219 A  
HETATM   13  C   UNL     1      -7.929  10.838  66.985  1.00  0.00    -0.124 A  
HETATM   14  C   UNL     1      -7.060  10.366  64.778  1.00  0.00    -0.033 A  
ENDBRANCH   2   4
BRANCH   2  15
HETATM   15  C   UNL     1      -8.873  14.429  69.044  1.00  0.00     0.009 C  
BRANCH  15  16
HETATM   16  N   UNL     1     -10.050  13.575  68.803  1.00  0.00    -0.399 NA 
HETATM   17  H   UNL     1      -9.928  12.969  67.992  1.00  0.00     0.000 HD 
BRANCH  16  18
HETATM   18  C   UNL     1     -10.358  12.817  70.028  1.00  0.00     1.877 C  
BRANCH  18  19
HETATM   19  C   UNL     1      -9.238  12.966  71.078  1.00  0.00    10.872 C  
HETATM   20  H   UNL     1      -9.132  13.492  72.968  1.00  0.00     0.000 HD 
HETATM   21  O   UNL     1      -9.822  13.400  72.321  1.00  0.00     9.955 OA 
BRANCH  19  22
HETATM   22  C   UNL     1      -8.461  11.650  71.312  1.00  0.00    10.133 C  
HETATM   23  C   UNL     1      -6.360  10.580  72.082  1.00  0.00     1.711 C  
HETATM   24  C   UNL     1      -7.025  11.908  71.768  1.00  0.00     6.154 C  
HETATM   25  C   UNL     1      -6.602   9.611  70.963  1.00  0.00    -0.035 A  
HETATM   26  C   UNL     1      -7.648   9.807  70.050  1.00  0.00    -0.163 A  
HETATM   27  O   UNL     1      -8.492  10.887  70.086  1.00  0.00     0.639 OA 
HETATM   28  C   UNL     1      -7.853   8.903  69.005  1.00  0.00    -0.091 A  
HETATM   29  C   UNL     1      -7.029   7.785  68.876  1.00  0.00    -0.066 A  
HETATM   30  C   UNL     1      -6.004   7.583  69.792  1.00  0.00    -0.024 A  
HETATM   31  F   UNL     1      -5.209   6.512  69.670  1.00  0.00    -0.011 F  
HETATM   32  C   UNL     1      -5.785   8.480  70.832  1.00  0.00    -0.032 A  
ENDBRANCH  19  22
ENDBRANCH  18  19
ENDBRANCH  16  18
ENDBRANCH  15  16
ENDBRANCH   2  15
TORSDOF 6
ENDMDL
MODEL      330
REMARK 921   NORMALIZED FREE ENERGY PREDICTED BY IDOCK:   56.07 KCAL/MOL
REMARK 922        TOTAL FREE ENERGY PREDICTED BY IDOCK:   74.55 KCAL/MOL
REMARK 923 INTER-LIGAND FREE ENERGY PREDICTED BY IDOCK:   73.67 KCAL/MOL
REMARK 924 INTRA-LIGAND FREE ENERGY PREDICTED BY IDOCK:    0.88 KCAL/MOL
REMARK 927      BINDING AFFINITY PREDICTED BY RF-SCORE:    0.00 PKD
ROOT
HETATM    1  O   UNL     1      -6.603  14.490  69.875  1.00  0.00    -0.149 OA 
HETATM    2  C   UNL     1      -7.794  13.704  69.721  1.00  0.00     1.079 C  
HETATM    3  H   UNL     1      -5.880  13.927  70.125  1.00  0.00     0.000 HD 
ENDROOT
BRANCH   2   4
HETATM    4  C   UNL     1      -7.543  12.570  68.701  1.00  0.00    -0.080 C  
HETATM    5  C   UNL     1      -8.800   9.517  64.964  1.00  0.00    -0.195 A  
HETATM    6  C   UNL     1      -9.952   9.714  65.714  1.00  0.00    -0.342 A  
HETATM    7  C   UNL     1      -6.607  12.997  67.566  1.00  0.00    -0.160 C  
HETATM    8  C   UNL     1      -6.311  11.790  66.693  1.00  0.00    -0.012 C  
HETATM    9  F   UNL     1      -8.827   8.677  63.919  1.00  0.00    -0.131 F  
HETATM   10  C   UNL     1      -9.921  10.593  66.799  1.00  0.00    -0.254 A  
HETATM   11  O   UNL     1      -8.810  12.119  68.191  1.00  0.00    -0.176 OA 
HETATM   12  C   UNL     1      -7.584  11.071  66.358  1.00  0.00    -0.135 A  
HETATM   13  C   UNL     1      -8.740  11.260  67.126  1.00  0.00    -0.151 A  
HETATM   14  C   UNL     1      -7.619  10.182  65.275  1.00  0.00    -0.144 A  
ENDBRANCH   2   4
BRANCH   2  15
HETATM   15  C   UNL     1      -8.968  14.618  69.314  1.00  0.00     0.048 C  
BRANCH  15  16
HETATM   16  N   UNL     1     -10.258  13.905  69.330  1.00  0.00    -0.414 NA 
HETATM   17  H   UNL     1     -10.247  13.071  68.744  1.00  0.00     0.000 HD 
BRANCH  16  18
HETATM   18  C   UNL     1     -10.628  13.604  70.725  1.00  0.00     2.695 C  
BRANCH  18  19
HETATM   19  C   UNL     1      -9.674  14.295  71.720  1.00  0.00     5.968 C  
HETATM   20  H   UNL     1      -9.858  15.574  73.200  1.00  0.00     0.000 HD 
HETATM   21  O   UNL     1     -10.445  15.148  72.587  1.00  0.00     1.205 OA 
BRANCH  19  22
HETATM   22  C   UNL     1      -8.876  13.286  72.579  1.00  0.00    17.262 C  
HETATM   23  C   UNL     1      -6.873  12.871  73.982  1.00  0.00     4.560 C  
HETATM   24  C   UNL     1      -7.548  13.871  73.060  1.00  0.00     7.232 C  
HETATM   25  C   UNL     1      -6.879  11.510  73.350  1.00  0.00     7.686 A  
HETATM   26  C   UNL     1      -7.772  11.198  72.316  1.00  0.00    10.591 A  
HETATM   27  O   UNL     1      -8.667  12.094  71.791  1.00  0.00    14.108 OA 
HETATM   28  C   UNL     1      -7.757   9.930  71.728  1.00  0.00     1.971 A  
HETATM   29  C   UNL     1      -6.864   8.960  72.183  1.00  0.00     0.040 A  
HETATM   30  C   UNL     1      -5.991   9.267  73.219  1.00  0.00     0.178 A  
HETATM   31  F   UNL     1      -5.131   8.338  73.657  1.00  0.00    -0.040 F  
HETATM   32  C   UNL     1      -5.992  10.527  73.807  1.00  0.00     1.429 A  
ENDBRANCH  19  22
ENDBRANCH  18  19
ENDBRANCH  16  18
ENDBRANCH  15  16
ENDBRANCH   2  15
TORSDOF 6
ENDMDL
