MODEL        1
REMARK 921   NORMALIZED FREE ENERGY PREDICTED BY IDOCK:   -7.88 KCAL/MOL
REMARK 922        TOTAL FREE ENERGY PREDICTED BY IDOCK:   -9.74 KCAL/MOL
REMARK 923 INTER-LIGAND FREE ENERGY PREDICTED BY IDOCK:   -9.27 KCAL/MOL
REMARK 924 INTRA-LIGAND FREE ENERGY PREDICTED BY IDOCK:   -0.47 KCAL/MOL
REMARK 927      BINDING AFFINITY PREDICTED BY RF-SCORE:    0.00 PKD
ROOT
HETATM    1  C   UNL     1     -12.209  14.363  64.353  1.00  0.00    -0.481 C  
HETATM    2  C   UNL     1     -12.559  13.893  65.757  1.00  0.00    -0.533 C  
ENDROOT
BRANCH   2   3
HETATM    3  C   UNL     1     -11.311  13.830  66.647  1.00  0.00    -0.340 C  
BRANCH   3   4
HETATM    4  C   UNL     1     -11.371  12.683  67.661  1.00  0.00    -0.362 A  
HETATM    5  C   UNL     1     -11.881  12.705  69.021  1.00  0.00    -0.294 A  
HETATM    6  N   UNL     1     -12.403  13.852  69.789  1.00  0.00    -0.316 NA 
HETATM    7  O   UNL     1     -10.385   7.952  67.832  1.00  0.00    -0.208 OA 
HETATM    8  C   UNL     1     -12.903  13.647  71.114  1.00  0.00    -0.323 C  
HETATM    9  C   UNL     1     -12.964  12.446  71.704  1.00  0.00    -0.409 C  
HETATM   10  O   UNL     1      -9.516  11.576  63.310  1.00  0.00    -0.312 OA 
HETATM   11  C   UNL     1     -13.557  14.689  71.998  1.00  0.00    -0.400 C  
HETATM   12  O   UNL     1     -13.316  14.567  73.330  1.00  0.00    -0.611 OA 
HETATM   13  C   UNL     1     -12.397  11.282  71.050  1.00  0.00    -0.366 C  
HETATM   14  O   UNL     1     -14.308  15.562  71.600  1.00  0.00    -0.479 OA 
HETATM   15  O   UNL     1     -12.374  10.215  71.654  1.00  0.00    -0.387 OA 
HETATM   16  C   UNL     1     -11.875  11.439  69.686  1.00  0.00    -0.431 A  
HETATM   17  C   UNL     1     -11.392  10.251  69.112  1.00  0.00    -0.244 A  
HETATM   18  C   UNL     1     -10.901  10.256  67.826  1.00  0.00    -0.346 A  
HETATM   19  C   UNL     1     -10.894  11.441  67.103  1.00  0.00    -0.268 A  
HETATM   20  O   UNL     1     -10.431  11.454  65.799  1.00  0.00    -0.249 OA 
HETATM   21  C   UNL     1      -9.942  10.280  65.232  1.00  0.00    -0.317 C  
HETATM   22  C   UNL     1      -9.423  10.337  63.837  1.00  0.00    -0.302 C  
HETATM   23  C   UNL     1      -9.902   9.093  65.852  1.00  0.00    -0.305 C  
HETATM   24  O   UNL     1      -8.960   9.386  63.225  1.00  0.00    -0.227 OA 
HETATM   25  C   UNL     1     -10.398   9.013  67.224  1.00  0.00    -0.273 C  
BRANCH   6  26
HETATM   26  C   UNL     1     -12.257  15.144  69.094  1.00  0.00    -0.150 C  
HETATM   27  C   UNL     1     -11.182  16.164  69.380  1.00  0.00    -0.335 C  
ENDBRANCH   6  26
ENDBRANCH   3   4
ENDBRANCH   2   3
TORSDOF 3
ENDMDL
MODEL        2
REMARK 921   NORMALIZED FREE ENERGY PREDICTED BY IDOCK:   -7.83 KCAL/MOL
REMARK 922        TOTAL FREE ENERGY PREDICTED BY IDOCK:   -9.68 KCAL/MOL
REMARK 923 INTER-LIGAND FREE ENERGY PREDICTED BY IDOCK:   -9.17 KCAL/MOL
REMARK 924 INTRA-LIGAND FREE ENERGY PREDICTED BY IDOCK:   -0.51 KCAL/MOL
REMARK 927      BINDING AFFINITY PREDICTED BY RF-SCORE:    0.00 PKD
ROOT
HETATM    1  C   UNL     1     -11.003  16.450  68.446  1.00  0.00    -0.353 C  
HETATM    2  C   UNL     1     -10.657  15.319  67.490  1.00  0.00    -0.273 C  
ENDROOT
BRANCH   2   3
HETATM    3  C   UNL     1     -11.883  14.443  67.200  1.00  0.00    -0.437 C  
BRANCH   3   4
HETATM    4  C   UNL     1     -11.636  12.965  67.516  1.00  0.00    -0.409 A  
HETATM    5  C   UNL     1     -11.057  11.943  66.661  1.00  0.00    -0.310 A  
HETATM    6  N   UNL     1     -10.630  12.056  65.252  1.00  0.00    -0.276 NA 
HETATM    7  O   UNL     1     -12.057   9.948  71.272  1.00  0.00    -0.336 OA 
HETATM    8  C   UNL     1     -10.037  10.929  64.600  1.00  0.00    -0.328 C  
HETATM    9  C   UNL     1      -9.805   9.758  65.211  1.00  0.00    -0.335 C  
HETATM   10  O   UNL     1     -13.586  15.602  71.098  1.00  0.00    -0.582 OA 
HETATM   11  C   UNL     1      -9.460  10.902  63.200  1.00  0.00    -0.341 C  
HETATM   12  O   UNL     1      -9.612   9.734  62.523  1.00  0.00    -0.171 OA 
HETATM   13  C   UNL     1     -10.269   9.539  66.568  1.00  0.00    -0.237 C  
HETATM   14  O   UNL     1      -8.838  11.817  62.690  1.00  0.00    -0.210 OA 
HETATM   15  O   UNL     1     -10.135   8.427  67.067  1.00  0.00    -0.227 OA 
HETATM   16  C   UNL     1     -10.880  10.667  67.282  1.00  0.00    -0.345 A  
HETATM   17  C   UNL     1     -11.253  10.379  68.606  1.00  0.00    -0.305 A  
HETATM   18  C   UNL     1     -11.812  11.360  69.395  1.00  0.00    -0.419 A  
HETATM   19  C   UNL     1     -11.995  12.632  68.873  1.00  0.00    -0.242 A  
HETATM   20  O   UNL     1     -12.528  13.635  69.664  1.00  0.00    -0.251 OA 
HETATM   21  C   UNL     1     -12.909  13.349  70.973  1.00  0.00    -0.251 C  
HETATM   22  C   UNL     1     -13.507  14.444  71.786  1.00  0.00    -0.373 C  
HETATM   23  C   UNL     1     -12.777  12.151  71.560  1.00  0.00    -0.348 C  
HETATM   24  O   UNL     1     -13.889  14.326  72.940  1.00  0.00    -0.615 OA 
HETATM   25  C   UNL     1     -12.200  11.059  70.780  1.00  0.00    -0.380 C  
BRANCH   6  26
HETATM   26  C   UNL     1     -10.962  13.354  64.636  1.00  0.00    -0.377 C  
HETATM   27  C   UNL     1     -12.024  13.566  63.585  1.00  0.00    -0.439 C  
ENDBRANCH   6  26
ENDBRANCH   3   4
ENDBRANCH   2   3
TORSDOF 3
ENDMDL
MODEL        3
REMARK 921   NORMALIZED FREE ENERGY PREDICTED BY IDOCK:   -7.28 KCAL/MOL
REMARK 922        TOTAL FREE ENERGY PREDICTED BY IDOCK:   -9.03 KCAL/MOL
REMARK 923 INTER-LIGAND FREE ENERGY PREDICTED BY IDOCK:   -8.74 KCAL/MOL
REMARK 924 INTRA-LIGAND FREE ENERGY PREDICTED BY IDOCK:   -0.29 KCAL/MOL
REMARK 927      BINDING AFFINITY PREDICTED BY RF-SCORE:    0.00 PKD
ROOT
HETATM    1  C   UNL     1     -13.681   8.790  72.442  1.00  0.00    -0.471 C  
HETATM    2  C   UNL     1     -13.366   9.633  71.215  1.00  0.00    -0.403 C  
ENDROOT
BRANCH   2   3
HETATM    3  C   UNL     1     -11.873   9.985  71.153  1.00  0.00    -0.481 C  
BRANCH   3   4
HETATM    4  C   UNL     1     -11.461  10.555  69.793  1.00  0.00    -0.365 A  
HETATM    5  C   UNL     1     -10.886   9.856  68.657  1.00  0.00    -0.209 A  
HETATM    6  N   UNL     1     -10.489   8.437  68.555  1.00  0.00    -0.194 NA 
HETATM    7  O   UNL     1     -11.634  14.774  67.436  1.00  0.00    -0.353 OA 
HETATM    8  C   UNL     1      -9.978   7.933  67.317  1.00  0.00    -0.215 C  
HETATM    9  C   UNL     1      -9.866   8.674  66.206  1.00  0.00    -0.320 C  
HETATM   10  O   UNL     1     -13.361  13.731  72.938  1.00  0.00    -0.605 OA 
HETATM   11  C   UNL     1      -9.616   6.494  67.014  1.00  0.00    -0.144 C  
HETATM   12  O   UNL     1      -8.564   6.316  66.174  1.00  0.00    -0.131 OA 
HETATM   13  C   UNL     1     -10.158  10.095  66.245  1.00  0.00    -0.238 C  
HETATM   14  O   UNL     1     -10.234   5.525  67.420  1.00  0.00    -0.172 OA 
HETATM   15  O   UNL     1      -9.950  10.770  65.242  1.00  0.00    -0.246 OA 
HETATM   16  C   UNL     1     -10.689  10.660  67.491  1.00  0.00    -0.321 A  
HETATM   17  C   UNL     1     -10.990  12.031  67.422  1.00  0.00    -0.311 A  
HETATM   18  C   UNL     1     -11.522  12.677  68.516  1.00  0.00    -0.349 A  
HETATM   19  C   UNL     1     -11.765  11.960  69.679  1.00  0.00    -0.343 A  
HETATM   20  O   UNL     1     -12.328  12.590  70.776  1.00  0.00    -0.377 OA 
HETATM   21  C   UNL     1     -12.616  13.951  70.713  1.00  0.00    -0.354 C  
HETATM   22  C   UNL     1     -13.193  14.604  71.922  1.00  0.00    -0.349 C  
HETATM   23  C   UNL     1     -12.411  14.725  69.638  1.00  0.00    -0.253 C  
HETATM   24  O   UNL     1     -13.483  15.787  72.004  1.00  0.00    -0.466 OA 
HETATM   25  C   UNL     1     -11.839  14.111  68.443  1.00  0.00    -0.353 C  
BRANCH   6  26
HETATM   26  C   UNL     1     -10.594   7.701  69.828  1.00  0.00    -0.244 C  
HETATM   27  C   UNL     1     -11.544   6.558  70.090  1.00  0.00    -0.466 C  
ENDBRANCH   6  26
ENDBRANCH   3   4
ENDBRANCH   2   3
TORSDOF 3
ENDMDL
MODEL        4
REMARK 921   NORMALIZED FREE ENERGY PREDICTED BY IDOCK:   -7.09 KCAL/MOL
REMARK 922        TOTAL FREE ENERGY PREDICTED BY IDOCK:   -8.81 KCAL/MOL
REMARK 923 INTER-LIGAND FREE ENERGY PREDICTED BY IDOCK:   -8.35 KCAL/MOL
REMARK 924 INTRA-LIGAND FREE ENERGY PREDICTED BY IDOCK:   -0.47 KCAL/MOL
REMARK 927      BINDING AFFINITY PREDICTED BY RF-SCORE:    0.00 PKD
ROOT
HETATM    1  C   UNL     1      -9.457  10.627  64.814  1.00  0.00    -0.306 C  
HETATM    2  C   UNL     1     -10.316  11.376  65.822  1.00  0.00    -0.304 C  
ENDROOT
BRANCH   2   3
HETATM    3  C   UNL     1      -9.601  11.503  67.174  1.00  0.00    -0.189 C  
BRANCH   3   4
HETATM    4  C   UNL     1     -10.573  11.756  68.330  1.00  0.00    -0.236 A  
HETATM    5  C   UNL     1     -11.080  10.810  69.308  1.00  0.00    -0.256 A  
HETATM    6  N   UNL     1     -10.842   9.355  69.389  1.00  0.00    -0.218 NA 
HETATM    7  O   UNL     1     -12.877  15.489  70.367  1.00  0.00    -0.410 OA 
HETATM    8  C   UNL     1     -11.405   8.605  70.470  1.00  0.00    -0.218 C  
HETATM    9  C   UNL     1     -12.123   9.157  71.458  1.00  0.00    -0.422 C  
HETATM   10  O   UNL     1      -9.436  15.628  65.625  1.00  0.00    -0.320 OA 
HETATM   11  C   UNL     1     -11.183   7.135  70.755  1.00  0.00    -0.279 C  
HETATM   12  O   UNL     1     -12.243   6.470  71.285  1.00  0.00    -0.340 OA 
HETATM   13  C   UNL     1     -12.470  10.565  71.409  1.00  0.00    -0.411 C  
HETATM   14  O   UNL     1     -10.125   6.551  70.596  1.00  0.00    -0.183 OA 
HETATM   15  O   UNL     1     -13.213  11.022  72.271  1.00  0.00    -0.405 OA 
HETATM   16  C   UNL     1     -11.913  11.379  70.321  1.00  0.00    -0.460 A  
HETATM   17  C   UNL     1     -12.261  12.739  70.382  1.00  0.00    -0.371 A  
HETATM   18  C   UNL     1     -11.779  13.617  69.436  1.00  0.00    -0.379 A  
HETATM   19  C   UNL     1     -10.944  13.147  68.432  1.00  0.00    -0.262 A  
HETATM   20  O   UNL     1     -10.429  14.023  67.492  1.00  0.00    -0.250 OA 
HETATM   21  C   UNL     1     -10.781  15.370  67.543  1.00  0.00    -0.295 C  
HETATM   22  C   UNL     1     -10.233  16.279  66.499  1.00  0.00    -0.300 C  
HETATM   23  C   UNL     1     -11.584  15.913  68.469  1.00  0.00    -0.351 C  
HETATM   24  O   UNL     1     -10.468  17.476  66.423  1.00  0.00    -0.334 OA 
HETATM   25  C   UNL     1     -12.141  15.040  69.499  1.00  0.00    -0.276 C  
BRANCH   6  26
HETATM   26  C   UNL     1     -10.088   8.815  68.243  1.00  0.00    -0.188 C  
HETATM   27  C   UNL     1     -10.649   7.876  67.204  1.00  0.00    -0.383 C  
ENDBRANCH   6  26
ENDBRANCH   3   4
ENDBRANCH   2   3
TORSDOF 3
ENDMDL
MODEL        5
REMARK 921   NORMALIZED FREE ENERGY PREDICTED BY IDOCK:   -7.08 KCAL/MOL
REMARK 922        TOTAL FREE ENERGY PREDICTED BY IDOCK:   -8.80 KCAL/MOL
REMARK 923 INTER-LIGAND FREE ENERGY PREDICTED BY IDOCK:   -8.36 KCAL/MOL
REMARK 924 INTRA-LIGAND FREE ENERGY PREDICTED BY IDOCK:   -0.44 KCAL/MOL
REMARK 927      BINDING AFFINITY PREDICTED BY RF-SCORE:    0.00 PKD
ROOT
HETATM    1  C   UNL     1      -6.141  13.837  70.006  1.00  0.00    -0.142 C  
HETATM    2  C   UNL     1      -6.569  14.837  68.942  1.00  0.00    -0.091 C  
ENDROOT
BRANCH   2   3
HETATM    3  C   UNL     1      -7.956  15.416  69.252  1.00  0.00    -0.229 C  
BRANCH   3   4
HETATM    4  C   UNL     1      -8.600  16.080  68.031  1.00  0.00    -0.165 A  
HETATM    5  C   UNL     1      -9.517  15.499  67.065  1.00  0.00    -0.225 A  
HETATM    6  N   UNL     1      -9.999  14.106  66.977  1.00  0.00    -0.255 NA 
HETATM    7  O   UNL     1      -8.793  20.451  65.971  1.00  0.00    -0.125 OA 
HETATM    8  C   UNL     1     -10.944  13.748  65.964  1.00  0.00    -0.284 C  
HETATM    9  C   UNL     1     -11.461  14.624  65.091  1.00  0.00    -0.375 C  
HETATM   10  O   UNL     1      -5.693  18.912  70.700  1.00  0.00    -0.219 OA 
HETATM   11  C   UNL     1     -11.610  12.398  65.794  1.00  0.00    -0.398 C  
HETATM   12  O   UNL     1     -11.859  12.022  64.512  1.00  0.00    -0.336 OA 
HETATM   13  C   UNL     1     -10.979  15.992  65.058  1.00  0.00    -0.380 C  
HETATM   14  O   UNL     1     -11.974  11.685  66.712  1.00  0.00    -0.536 OA 
HETATM   15  O   UNL     1     -11.393  16.745  64.184  1.00  0.00    -1.194 OA 
HETATM   16  C   UNL     1     -10.011  16.410  66.080  1.00  0.00    -0.360 A  
HETATM   17  C   UNL     1      -9.638  17.763  66.003  1.00  0.00    -0.112 A  
HETATM   18  C   UNL     1      -8.757  18.290  66.922  1.00  0.00    -0.273 A  
HETATM   19  C   UNL     1      -8.250  17.475  67.925  1.00  0.00    -0.231 A  
HETATM   20  O   UNL     1      -7.388  17.999  68.873  1.00  0.00    -0.274 OA 
HETATM   21  C   UNL     1      -7.008  19.336  68.791  1.00  0.00    -0.330 C  
HETATM   22  C   UNL     1      -6.055  19.860  69.809  1.00  0.00    -0.341 C  
HETATM   23  C   UNL     1      -7.440  20.196  67.858  1.00  0.00    -0.316 C  
HETATM   24  O   UNL     1      -5.637  21.006  69.849  1.00  0.00    -0.494 OA 
HETATM   25  C   UNL     1      -8.369  19.705  66.843  1.00  0.00    -0.301 C  
BRANCH   6  26
HETATM   26  C   UNL     1      -9.350  13.194  67.937  1.00  0.00    -0.215 C  
HETATM   27  C   UNL     1      -8.465  12.031  67.561  1.00  0.00    -0.165 C  
ENDBRANCH   6  26
ENDBRANCH   3   4
ENDBRANCH   2   3
TORSDOF 3
ENDMDL
MODEL        6
REMARK 921   NORMALIZED FREE ENERGY PREDICTED BY IDOCK:   -7.00 KCAL/MOL
REMARK 922        TOTAL FREE ENERGY PREDICTED BY IDOCK:   -8.70 KCAL/MOL
REMARK 923 INTER-LIGAND FREE ENERGY PREDICTED BY IDOCK:   -8.43 KCAL/MOL
REMARK 924 INTRA-LIGAND FREE ENERGY PREDICTED BY IDOCK:   -0.27 KCAL/MOL
REMARK 927      BINDING AFFINITY PREDICTED BY RF-SCORE:    0.00 PKD
ROOT
HETATM    1  C   UNL     1     -12.304  13.367  70.691  1.00  0.00    -0.423 C  
HETATM    2  C   UNL     1     -11.617  12.851  69.436  1.00  0.00    -0.363 C  
ENDROOT
BRANCH   2   3
HETATM    3  C   UNL     1     -12.226  11.519  68.978  1.00  0.00    -0.186 C  
BRANCH   3   4
HETATM    4  C   UNL     1     -11.213  10.627  68.255  1.00  0.00    -0.362 A  
HETATM    5  C   UNL     1     -10.461   9.501  68.782  1.00  0.00    -0.219 A  
HETATM    6  N   UNL     1     -10.432   8.981  70.163  1.00  0.00    -0.204 NA 
HETATM    7  O   UNL     1      -9.421  10.067  63.798  1.00  0.00    -0.280 OA 
HETATM    8  C   UNL     1      -9.651   7.821  70.466  1.00  0.00    -0.167 C  
HETATM    9  C   UNL     1      -8.954   7.138  69.547  1.00  0.00    -0.140 C  
HETATM   10  O   UNL     1     -13.249  14.131  65.577  1.00  0.00    -0.688 OA 
HETATM   11  C   UNL     1      -9.586   7.104  71.798  1.00  0.00    -0.151 C  
HETATM   12  O   UNL     1      -8.383   6.560  72.117  1.00  0.00    -0.108 OA 
HETATM   13  C   UNL     1      -8.864   7.630  68.185  1.00  0.00    -0.125 C  
HETATM   14  O   UNL     1     -10.536   6.943  72.545  1.00  0.00    -0.201 OA 
HETATM   15  O   UNL     1      -8.138   7.044  67.390  1.00  0.00    -0.113 OA 
HETATM   16  C   UNL     1      -9.652   8.816  67.823  1.00  0.00    -0.177 A  
HETATM   17  C   UNL     1      -9.543   9.191  66.473  1.00  0.00    -0.289 A  
HETATM   18  C   UNL     1     -10.255  10.270  65.998  1.00  0.00    -0.298 A  
HETATM   19  C   UNL     1     -11.082  10.975  66.861  1.00  0.00    -0.213 A  
HETATM   20  O   UNL     1     -11.826  12.043  66.389  1.00  0.00    -0.578 OA 
HETATM   21  C   UNL     1     -11.711  12.424  65.054  1.00  0.00    -0.371 C  
HETATM   22  C   UNL     1     -12.503  13.596  64.588  1.00  0.00    -0.314 C  
HETATM   23  C   UNL     1     -10.935  11.810  64.150  1.00  0.00    -0.437 C  
HETATM   24  O   UNL     1     -12.489  14.038  63.449  1.00  0.00    -0.826 OA 
HETATM   25  C   UNL     1     -10.143  10.662  64.586  1.00  0.00    -0.349 C  
BRANCH   6  26
HETATM   26  C   UNL     1     -11.182   9.811  71.124  1.00  0.00    -0.374 C  
HETATM   27  C   UNL     1     -12.543   9.474  71.681  1.00  0.00    -0.476 C  
ENDBRANCH   6  26
ENDBRANCH   3   4
ENDBRANCH   2   3
TORSDOF 3
ENDMDL
MODEL        7
REMARK 921   NORMALIZED FREE ENERGY PREDICTED BY IDOCK:   -6.90 KCAL/MOL
REMARK 922        TOTAL FREE ENERGY PREDICTED BY IDOCK:   -8.58 KCAL/MOL
REMARK 923 INTER-LIGAND FREE ENERGY PREDICTED BY IDOCK:   -8.07 KCAL/MOL
REMARK 924 INTRA-LIGAND FREE ENERGY PREDICTED BY IDOCK:   -0.51 KCAL/MOL
REMARK 927      BINDING AFFINITY PREDICTED BY RF-SCORE:    0.00 PKD
ROOT
HETATM    1  C   UNL     1      -9.734   9.360  65.986  1.00  0.00    -0.345 C  
HETATM    2  C   UNL     1     -10.257  10.715  66.438  1.00  0.00    -0.291 C  
ENDROOT
BRANCH   2   3
HETATM    3  C   UNL     1      -9.516  11.204  67.690  1.00  0.00    -0.173 C  
BRANCH   3   4
HETATM    4  C   UNL     1     -10.449  11.886  68.695  1.00  0.00    -0.231 A  
HETATM    5  C   UNL     1     -10.799  13.293  68.793  1.00  0.00    -0.243 A  
HETATM    6  N   UNL     1     -10.287  14.425  67.996  1.00  0.00    -0.225 NA 
HETATM    7  O   UNL     1     -13.399  10.637  72.318  1.00  0.00    -0.386 OA 
HETATM    8  C   UNL     1     -10.801  15.741  68.225  1.00  0.00    -0.305 C  
HETATM    9  C   UNL     1     -11.766  16.014  69.114  1.00  0.00    -0.310 C  
HETATM   10  O   UNL     1      -9.974   7.075  69.167  1.00  0.00    -0.159 OA 
HETATM   11  C   UNL     1     -10.458  16.989  67.438  1.00  0.00    -0.322 C  
HETATM   12  O   UNL     1     -10.426  18.145  68.151  1.00  0.00    -0.375 OA 
HETATM   13  C   UNL     1     -12.263  14.973  69.993  1.00  0.00    -0.328 C  
HETATM   14  O   UNL     1     -10.276  17.019  66.233  1.00  0.00    -0.311 OA 
HETATM   15  O   UNL     1     -13.072  15.270  70.866  1.00  0.00    -0.435 OA 
HETATM   16  C   UNL     1     -11.770  13.603  69.795  1.00  0.00    -0.364 A  
HETATM   17  C   UNL     1     -12.343  12.653  70.657  1.00  0.00    -0.375 A  
HETATM   18  C   UNL     1     -11.987  11.326  70.555  1.00  0.00    -0.467 A  
HETATM   19  C   UNL     1     -11.067  10.939  69.591  1.00  0.00    -0.266 A  
HETATM   20  O   UNL     1     -10.723   9.605  69.457  1.00  0.00    -0.217 OA 
HETATM   21  C   UNL     1     -11.281   8.663  70.318  1.00  0.00    -0.184 C  
HETATM   22  C   UNL     1     -10.866   7.240  70.167  1.00  0.00    -0.256 C  
HETATM   23  C   UNL     1     -12.171   8.942  71.281  1.00  0.00    -0.351 C  
HETATM   24  O   UNL     1     -11.271   6.318  70.858  1.00  0.00    -0.296 OA 
HETATM   25  C   UNL     1     -12.588  10.331  71.455  1.00  0.00    -0.434 C  
BRANCH   6  26
HETATM   26  C   UNL     1      -9.195  14.055  67.076  1.00  0.00    -0.254 C  
HETATM   27  C   UNL     1      -7.742  14.410  67.272  1.00  0.00    -0.164 C  
ENDBRANCH   6  26
ENDBRANCH   3   4
ENDBRANCH   2   3
TORSDOF 3
ENDMDL
MODEL        8
REMARK 921   NORMALIZED FREE ENERGY PREDICTED BY IDOCK:   -6.67 KCAL/MOL
REMARK 922        TOTAL FREE ENERGY PREDICTED BY IDOCK:   -8.32 KCAL/MOL
REMARK 923 INTER-LIGAND FREE ENERGY PREDICTED BY IDOCK:   -7.85 KCAL/MOL
REMARK 924 INTRA-LIGAND FREE ENERGY PREDICTED BY IDOCK:   -0.46 KCAL/MOL
REMARK 927      BINDING AFFINITY PREDICTED BY RF-SCORE:    0.00 PKD
ROOT
HETATM    1  C   UNL     1      -9.982   8.389  66.646  1.00  0.00    -0.354 C  
HETATM    2  C   UNL     1     -10.194   9.889  66.778  1.00  0.00    -0.301 C  
ENDROOT
BRANCH   2   3
HETATM    3  C   UNL     1      -9.525  10.434  68.047  1.00  0.00    -0.152 C  
BRANCH   3   4
HETATM    4  C   UNL     1     -10.526  11.092  69.002  1.00  0.00    -0.242 A  
HETATM    5  C   UNL     1     -10.947  12.481  69.052  1.00  0.00    -0.188 A  
HETATM    6  N   UNL     1     -10.464  13.618  68.244  1.00  0.00    -0.242 NA 
HETATM    7  O   UNL     1     -13.538   9.782  72.551  1.00  0.00    -0.356 OA 
HETATM    8  C   UNL     1     -11.050  14.912  68.422  1.00  0.00    -0.273 C  
HETATM    9  C   UNL     1     -12.058  15.157  69.270  1.00  0.00    -0.278 C  
HETATM   10  O   UNL     1      -9.831   6.323  69.612  1.00  0.00    -0.158 OA 
HETATM   11  C   UNL     1     -10.741  16.156  67.616  1.00  0.00    -0.318 C  
HETATM   12  O   UNL     1     -10.792  17.329  68.300  1.00  0.00    -0.365 OA 
HETATM   13  C   UNL     1     -12.535  14.113  70.158  1.00  0.00    -0.331 C  
HETATM   14  O   UNL     1     -10.518  16.167  66.418  1.00  0.00    -0.301 OA 
HETATM   15  O   UNL     1     -13.388  14.390  70.994  1.00  0.00    -0.361 OA 
HETATM   16  C   UNL     1     -11.968  12.766  70.011  1.00  0.00    -0.371 A  
HETATM   17  C   UNL     1     -12.524  11.809  70.877  1.00  0.00    -0.416 A  
HETATM   18  C   UNL     1     -12.100  10.499  70.821  1.00  0.00    -0.470 A  
HETATM   19  C   UNL     1     -11.128  10.136  69.900  1.00  0.00    -0.293 A  
HETATM   20  O   UNL     1     -10.714   8.818  69.812  1.00  0.00    -0.228 OA 
HETATM   21  C   UNL     1     -11.255   7.870  70.677  1.00  0.00    -0.263 C  
HETATM   22  C   UNL     1     -10.765   6.467  70.576  1.00  0.00    -0.257 C  
HETATM   23  C   UNL     1     -12.191   8.127  71.601  1.00  0.00    -0.343 C  
HETATM   24  O   UNL     1     -11.148   5.542  71.277  1.00  0.00    -0.186 OA 
HETATM   25  C   UNL     1     -12.682   9.497  71.725  1.00  0.00    -0.404 C  
BRANCH   6  26
HETATM   26  C   UNL     1      -9.323  13.282  67.372  1.00  0.00    -0.217 C  
HETATM   27  C   UNL     1      -7.903  13.741  67.592  1.00  0.00    -0.185 C  
ENDBRANCH   6  26
ENDBRANCH   3   4
ENDBRANCH   2   3
TORSDOF 3
ENDMDL
MODEL        9
REMARK 921   NORMALIZED FREE ENERGY PREDICTED BY IDOCK:   -6.67 KCAL/MOL
REMARK 922        TOTAL FREE ENERGY PREDICTED BY IDOCK:   -8.31 KCAL/MOL
REMARK 923 INTER-LIGAND FREE ENERGY PREDICTED BY IDOCK:   -7.80 KCAL/MOL
REMARK 924 INTRA-LIGAND FREE ENERGY PREDICTED BY IDOCK:   -0.52 KCAL/MOL
REMARK 927      BINDING AFFINITY PREDICTED BY RF-SCORE:    0.00 PKD
ROOT
HETATM    1  C   UNL     1     -10.828  12.158  64.855  1.00  0.00    -0.352 C  
HETATM    2  C   UNL     1     -11.456  12.406  66.218  1.00  0.00    -0.423 C  
ENDROOT
BRANCH   2   3
HETATM    3  C   UNL     1     -10.408  12.316  67.335  1.00  0.00    -0.219 C  
BRANCH   3   4
HETATM    4  C   UNL     1     -10.872  11.446  68.506  1.00  0.00    -0.251 A  
HETATM    5  C   UNL     1     -11.632  11.841  69.680  1.00  0.00    -0.323 A  
HETATM    6  N   UNL     1     -12.082  13.191  70.073  1.00  0.00    -0.326 NA 
HETATM    7  O   UNL     1     -10.803   6.787  69.803  1.00  0.00    -0.238 OA 
HETATM    8  C   UNL     1     -12.866  13.359  71.258  1.00  0.00    -0.323 C  
HETATM    9  C   UNL     1     -13.257  12.340  72.037  1.00  0.00    -0.508 C  
HETATM   10  O   UNL     1      -8.415   9.151  65.001  1.00  0.00    -0.151 OA 
HETATM   11  C   UNL     1     -13.485  14.650  71.750  1.00  0.00    -0.373 C  
HETATM   12  O   UNL     1     -13.540  14.800  73.100  1.00  0.00    -0.552 OA 
HETATM   13  C   UNL     1     -12.788  10.994  71.766  1.00  0.00    -0.391 C  
HETATM   14  O   UNL     1     -13.974  15.502  71.029  1.00  0.00    -0.535 OA 
HETATM   15  O   UNL     1     -13.077  10.097  72.552  1.00  0.00    -0.222 OA 
HETATM   16  C   UNL     1     -11.984  10.769  70.558  1.00  0.00    -0.456 A  
HETATM   17  C   UNL     1     -11.618   9.428  70.350  1.00  0.00    -0.241 A  
HETATM   18  C   UNL     1     -10.886   9.078  69.237  1.00  0.00    -0.131 A  
HETATM   19  C   UNL     1     -10.524  10.058  68.323  1.00  0.00    -0.213 A  
HETATM   20  O   UNL     1      -9.815   9.715  67.184  1.00  0.00    -0.168 OA 
HETATM   21  C   UNL     1      -9.440   8.389  66.982  1.00  0.00    -0.174 C  
HETATM   22  C   UNL     1      -8.652   8.060  65.762  1.00  0.00    -0.153 C  
HETATM   23  C   UNL     1      -9.738   7.378  67.809  1.00  0.00    -0.171 C  
HETATM   24  O   UNL     1      -8.255   6.944  65.468  1.00  0.00    -0.126 OA 
HETATM   25  C   UNL     1     -10.504   7.676  69.017  1.00  0.00    -0.205 C  
BRANCH   6  26
HETATM   26  C   UNL     1     -11.572  14.262  69.197  1.00  0.00    -0.305 C  
HETATM   27  C   UNL     1     -10.453  15.210  69.552  1.00  0.00    -0.268 C  
ENDBRANCH   6  26
ENDBRANCH   3   4
ENDBRANCH   2   3
TORSDOF 3
ENDMDL
MODEL       10
REMARK 921   NORMALIZED FREE ENERGY PREDICTED BY IDOCK:   -6.65 KCAL/MOL
REMARK 922        TOTAL FREE ENERGY PREDICTED BY IDOCK:   -8.30 KCAL/MOL
REMARK 923 INTER-LIGAND FREE ENERGY PREDICTED BY IDOCK:   -8.07 KCAL/MOL
REMARK 924 INTRA-LIGAND FREE ENERGY PREDICTED BY IDOCK:   -0.23 KCAL/MOL
REMARK 927      BINDING AFFINITY PREDICTED BY RF-SCORE:    0.00 PKD
ROOT
HETATM    1  C   UNL     1     -13.190  12.842  71.801  1.00  0.00    -0.479 C  
HETATM    2  C   UNL     1     -12.918  13.182  70.343  1.00  0.00     0.189 C  
ENDROOT
BRANCH   2   3
HETATM    3  C   UNL     1     -11.422  13.074  70.019  1.00  0.00    -0.086 C  
BRANCH   3   4
HETATM    4  C   UNL     1     -11.164  12.495  68.625  1.00  0.00    -0.319 A  
HETATM    5  C   UNL     1     -11.014  13.204  67.366  1.00  0.00    -0.264 A  
HETATM    6  N   UNL     1     -11.145  14.651  67.104  1.00  0.00    -0.316 NA 
HETATM    7  O   UNL     1     -10.317   8.188  66.595  1.00  0.00    -0.304 OA 
HETATM    8  C   UNL     1     -10.912  15.156  65.785  1.00  0.00    -0.349 C  
HETATM    9  C   UNL     1     -10.539  14.385  64.754  1.00  0.00    -0.417 C  
HETATM   10  O   UNL     1     -11.452   9.267  72.242  1.00  0.00    -0.207 OA 
HETATM   11  C   UNL     1     -10.910  16.611  65.368  1.00  0.00    -0.173 C  
HETATM   12  O   UNL     1     -11.378  16.866  64.117  1.00  0.00    -1.208 OA 
HETATM   13  C   UNL     1     -10.467  12.945  64.908  1.00  0.00    -0.331 C  
HETATM   14  O   UNL     1     -10.472  17.525  66.044  1.00  0.00    -0.367 OA 
HETATM   15  O   UNL     1     -10.223  12.255  63.924  1.00  0.00    -0.366 OA 
HETATM   16  C   UNL     1     -10.694  12.378  66.244  1.00  0.00    -0.287 A  
HETATM   17  C   UNL     1     -10.555  10.981  66.310  1.00  0.00    -0.295 A  
HETATM   18  C   UNL     1     -10.714  10.328  67.512  1.00  0.00    -0.348 A  
HETATM   19  C   UNL     1     -11.004  11.062  68.653  1.00  0.00    -0.224 A  
HETATM   20  O   UNL     1     -11.136  10.422  69.873  1.00  0.00    -0.263 OA 
HETATM   21  C   UNL     1     -11.010   9.036  69.939  1.00  0.00    -0.193 C  
HETATM   22  C   UNL     1     -11.189   8.376  71.262  1.00  0.00    -0.259 C  
HETATM   23  C   UNL     1     -10.739   8.245  68.892  1.00  0.00    -0.089 C  
HETATM   24  O   UNL     1     -11.113   7.173  71.458  1.00  0.00    -0.235 OA 
HETATM   25  C   UNL     1     -10.567   8.867  67.581  1.00  0.00    -0.224 C  
BRANCH   6  26
HETATM   26  C   UNL     1     -11.606  15.424  68.273  1.00  0.00    -0.348 C  
HETATM   27  C   UNL     1     -10.734  16.327  69.110  1.00  0.00    -0.305 C  
ENDBRANCH   6  26
ENDBRANCH   3   4
ENDBRANCH   2   3
TORSDOF 3
ENDMDL
MODEL       11
REMARK 921   NORMALIZED FREE ENERGY PREDICTED BY IDOCK:   -6.62 KCAL/MOL
REMARK 922        TOTAL FREE ENERGY PREDICTED BY IDOCK:   -8.25 KCAL/MOL
REMARK 923 INTER-LIGAND FREE ENERGY PREDICTED BY IDOCK:   -7.74 KCAL/MOL
REMARK 924 INTRA-LIGAND FREE ENERGY PREDICTED BY IDOCK:   -0.52 KCAL/MOL
REMARK 927      BINDING AFFINITY PREDICTED BY RF-SCORE:    0.00 PKD
ROOT
HETATM    1  C   UNL     1      -7.675   8.909  65.942  1.00  0.00    -0.098 C  
HETATM    2  C   UNL     1      -8.427   9.996  66.695  1.00  0.00    -0.126 C  
ENDROOT
BRANCH   2   3
HETATM    3  C   UNL     1      -9.945   9.800  66.579  1.00  0.00    -0.304 C  
BRANCH   3   4
HETATM    4  C   UNL     1     -10.700  10.330  67.801  1.00  0.00    -0.324 A  
HETATM    5  C   UNL     1     -11.026   9.635  69.034  1.00  0.00    -0.132 A  
HETATM    6  N   UNL     1     -10.774   8.224  69.388  1.00  0.00    -0.195 NA 
HETATM    7  O   UNL     1     -12.620  14.494  69.341  1.00  0.00    -0.162 OA 
HETATM    8  C   UNL     1     -11.138   7.745  70.687  1.00  0.00    -0.256 C  
HETATM    9  C   UNL     1     -11.673   8.522  71.639  1.00  0.00    -0.369 C  
HETATM   10  O   UNL     1     -10.063  13.487  64.165  1.00  0.00    -0.300 OA 
HETATM   11  C   UNL     1     -10.866   6.363  71.243  1.00  0.00    -0.257 C  
HETATM   12  O   UNL     1     -11.815   5.866  72.078  1.00  0.00    -0.267 OA 
HETATM   13  C   UNL     1     -12.026   9.897  71.345  1.00  0.00    -0.404 C  
HETATM   14  O   UNL     1      -9.851   5.720  71.036  1.00  0.00    -0.169 OA 
HETATM   15  O   UNL     1     -12.607  10.556  72.200  1.00  0.00    -0.243 OA 
HETATM   16  C   UNL     1     -11.670  10.438  70.027  1.00  0.00    -0.366 A  
HETATM   17  C   UNL     1     -12.004  11.791  69.848  1.00  0.00    -0.405 A  
HETATM   18  C   UNL     1     -11.698  12.427  68.665  1.00  0.00    -0.372 A  
HETATM   19  C   UNL     1     -11.051  11.723  67.660  1.00  0.00    -0.252 A  
HETATM   20  O   UNL     1     -10.710  12.358  66.478  1.00  0.00    -0.230 OA 
HETATM   21  C   UNL     1     -11.051  13.696  66.294  1.00  0.00    -0.301 C  
HETATM   22  C   UNL     1     -10.696  14.340  64.999  1.00  0.00    -0.420 C  
HETATM   23  C   UNL     1     -11.680  14.454  67.203  1.00  0.00    -0.424 C  
HETATM   24  O   UNL     1     -10.943  15.499  64.706  1.00  0.00    -0.428 OA 
HETATM   25  C   UNL     1     -12.046  13.843  68.479  1.00  0.00    -0.296 C  
BRANCH   6  26
HETATM   26  C   UNL     1     -10.231   7.423  68.275  1.00  0.00    -0.183 C  
HETATM   27  C   UNL     1     -10.993   6.360  67.523  1.00  0.00    -0.454 C  
ENDBRANCH   6  26
ENDBRANCH   3   4
ENDBRANCH   2   3
TORSDOF 3
ENDMDL
MODEL       12
REMARK 921   NORMALIZED FREE ENERGY PREDICTED BY IDOCK:   -6.62 KCAL/MOL
REMARK 922        TOTAL FREE ENERGY PREDICTED BY IDOCK:   -8.25 KCAL/MOL
REMARK 923 INTER-LIGAND FREE ENERGY PREDICTED BY IDOCK:   -7.83 KCAL/MOL
REMARK 924 INTRA-LIGAND FREE ENERGY PREDICTED BY IDOCK:   -0.42 KCAL/MOL
REMARK 927      BINDING AFFINITY PREDICTED BY RF-SCORE:    0.00 PKD
ROOT
HETATM    1  C   UNL     1     -11.492  14.839  65.751  1.00  0.00    -0.322 C  
HETATM    2  C   UNL     1     -11.954  14.038  66.958  1.00  0.00    -0.472 C  
ENDROOT
BRANCH   2   3
HETATM    3  C   UNL     1     -10.760  13.556  67.793  1.00  0.00    -0.262 C  
BRANCH   3   4
HETATM    4  C   UNL     1     -11.021  12.204  68.464  1.00  0.00    -0.276 A  
HETATM    5  C   UNL     1     -10.534  10.893  68.074  1.00  0.00    -0.191 A  
HETATM    6  N   UNL     1      -9.727  10.525  66.894  1.00  0.00    -0.175 NA 
HETATM    7  O   UNL     1     -13.254  10.489  72.396  1.00  0.00    -0.299 OA 
HETATM    8  C   UNL     1      -9.310   9.168  66.717  1.00  0.00    -0.165 C  
HETATM    9  C   UNL     1      -9.581   8.190  67.592  1.00  0.00    -0.186 C  
HETATM   10  O   UNL     1     -13.074  16.060  70.588  1.00  0.00    -0.338 OA 
HETATM   11  C   UNL     1      -8.405   8.642  65.622  1.00  0.00    -0.145 C  
HETATM   12  O   UNL     1      -8.680   7.386  65.183  1.00  0.00    -0.017 OA 
HETATM   13  C   UNL     1     -10.437   8.451  68.734  1.00  0.00    -0.178 C  
HETATM   14  O   UNL     1      -7.442   9.239  65.173  1.00  0.00    -0.101 OA 
HETATM   15  O   UNL     1     -10.754   7.517  69.463  1.00  0.00    -0.237 OA 
HETATM   16  C   UNL     1     -10.888   9.830  68.963  1.00  0.00    -0.223 A  
HETATM   17  C   UNL     1     -11.670   9.998  70.118  1.00  0.00    -0.285 A  
HETATM   18  C   UNL     1     -12.132  11.249  70.462  1.00  0.00    -0.481 A  
HETATM   19  C   UNL     1     -11.812  12.338  69.663  1.00  0.00    -0.324 A  
HETATM   20  O   UNL     1     -12.245  13.605  70.014  1.00  0.00    -0.330 OA 
HETATM   21  C   UNL     1     -13.030  13.772  71.152  1.00  0.00    -0.298 C  
HETATM   22  C   UNL     1     -13.504  15.145  71.483  1.00  0.00    -0.462 C  
HETATM   23  C   UNL     1     -13.395  12.782  71.979  1.00  0.00    -0.565 C  
HETATM   24  O   UNL     1     -14.202  15.429  72.444  1.00  0.00    -0.537 OA 
HETATM   25  C   UNL     1     -12.949  11.425  71.671  1.00  0.00    -0.418 C  
BRANCH   6  26
HETATM   26  C   UNL     1      -9.511  11.641  65.954  1.00  0.00    -0.228 C  
HETATM   27  C   UNL     1     -10.125  11.745  64.580  1.00  0.00    -0.312 C  
ENDBRANCH   6  26
ENDBRANCH   3   4
ENDBRANCH   2   3
TORSDOF 3
ENDMDL
MODEL       13
REMARK 921   NORMALIZED FREE ENERGY PREDICTED BY IDOCK:   -6.59 KCAL/MOL
REMARK 922        TOTAL FREE ENERGY PREDICTED BY IDOCK:   -8.22 KCAL/MOL
REMARK 923 INTER-LIGAND FREE ENERGY PREDICTED BY IDOCK:   -7.94 KCAL/MOL
REMARK 924 INTRA-LIGAND FREE ENERGY PREDICTED BY IDOCK:   -0.28 KCAL/MOL
REMARK 927      BINDING AFFINITY PREDICTED BY RF-SCORE:    0.00 PKD
ROOT
HETATM    1  C   UNL     1     -10.020   6.469  66.836  1.00  0.00    -0.227 C  
HETATM    2  C   UNL     1     -10.639   7.852  66.973  1.00  0.00    -0.381 C  
ENDROOT
BRANCH   2   3
HETATM    3  C   UNL     1      -9.704   8.804  67.730  1.00  0.00    -0.194 C  
BRANCH   3   4
HETATM    4  C   UNL     1     -10.462   9.935  68.432  1.00  0.00    -0.239 A  
HETATM    5  C   UNL     1     -10.675  11.298  67.977  1.00  0.00    -0.203 A  
HETATM    6  N   UNL     1     -10.155  11.954  66.761  1.00  0.00    -0.200 NA 
HETATM    7  O   UNL     1     -13.104  10.582  72.430  1.00  0.00    -0.287 OA 
HETATM    8  C   UNL     1     -10.526  13.306  66.473  1.00  0.00    -0.281 C  
HETATM    9  C   UNL     1     -11.363  14.022  67.236  1.00  0.00    -0.350 C  
HETATM   10  O   UNL     1     -10.358   5.679  70.770  1.00  0.00    -0.215 OA 
HETATM   11  C   UNL     1     -10.163  14.092  65.230  1.00  0.00    -0.360 C  
HETATM   12  O   UNL     1      -9.954  15.422  65.414  1.00  0.00    -0.344 OA 
HETATM   13  C   UNL     1     -11.852  13.480  68.490  1.00  0.00    -0.362 C  
HETATM   14  O   UNL     1     -10.108  13.623  64.106  1.00  0.00    -0.240 OA 
HETATM   15  O   UNL     1     -12.534  14.193  69.218  1.00  0.00    -0.255 OA 
HETATM   16  C   UNL     1     -11.504  12.094  68.829  1.00  0.00    -0.359 A  
HETATM   17  C   UNL     1     -12.062  11.637  70.035  1.00  0.00    -0.395 A  
HETATM   18  C   UNL     1     -11.835  10.344  70.453  1.00  0.00    -0.418 A  
HETATM   19  C   UNL     1     -11.060   9.500  69.671  1.00  0.00    -0.171 A  
HETATM   20  O   UNL     1     -10.849   8.190  70.064  1.00  0.00    -0.247 OA 
HETATM   21  C   UNL     1     -11.392   7.738  71.265  1.00  0.00    -0.264 C  
HETATM   22  C   UNL     1     -11.120   6.331  71.673  1.00  0.00    -0.274 C  
HETATM   23  C   UNL     1     -12.146   8.480  72.088  1.00  0.00    -0.449 C  
HETATM   24  O   UNL     1     -11.527   5.812  72.701  1.00  0.00    -0.296 OA 
HETATM   25  C   UNL     1     -12.420   9.865  71.713  1.00  0.00    -0.397 C  
BRANCH   6  26
HETATM   26  C   UNL     1      -9.205  11.122  66.001  1.00  0.00    -0.205 C  
HETATM   27  C   UNL     1      -9.519  10.414  64.706  1.00  0.00    -0.329 C  
ENDBRANCH   6  26
ENDBRANCH   3   4
ENDBRANCH   2   3
TORSDOF 3
ENDMDL
MODEL       14
REMARK 921   NORMALIZED FREE ENERGY PREDICTED BY IDOCK:   -6.57 KCAL/MOL
REMARK 922        TOTAL FREE ENERGY PREDICTED BY IDOCK:   -8.20 KCAL/MOL
REMARK 923 INTER-LIGAND FREE ENERGY PREDICTED BY IDOCK:   -8.01 KCAL/MOL
REMARK 924 INTRA-LIGAND FREE ENERGY PREDICTED BY IDOCK:   -0.18 KCAL/MOL
REMARK 927      BINDING AFFINITY PREDICTED BY RF-SCORE:    0.00 PKD
ROOT
HETATM    1  C   UNL     1     -10.986   8.151  72.595  1.00  0.00    -0.440 C  
HETATM    2  C   UNL     1     -10.686   9.337  71.691  1.00  0.00    -0.393 C  
ENDROOT
BRANCH   2   3
HETATM    3  C   UNL     1     -11.767   9.499  70.614  1.00  0.00    -0.330 C  
BRANCH   3   4
HETATM    4  C   UNL     1     -11.271  10.290  69.399  1.00  0.00    -0.292 A  
HETATM    5  C   UNL     1     -10.578   9.796  68.221  1.00  0.00    -0.229 A  
HETATM    6  N   UNL     1     -10.116   8.424  67.933  1.00  0.00    -0.192 NA 
HETATM    7  O   UNL     1     -11.427  14.824  67.724  1.00  0.00    -0.319 OA 
HETATM    8  C   UNL     1      -9.488   8.137  66.680  1.00  0.00    -0.213 C  
HETATM    9  C   UNL     1      -9.318   9.048  65.713  1.00  0.00    -0.302 C  
HETATM   10  O   UNL     1     -13.545  12.872  72.828  1.00  0.00    -0.508 OA 
HETATM   11  C   UNL     1      -9.044   6.775  66.188  1.00  0.00    -0.109 C  
HETATM   12  O   UNL     1      -7.921   6.762  65.424  1.00  0.00    -0.107 OA 
HETATM   13  C   UNL     1      -9.669  10.436  65.947  1.00  0.00    -0.217 C  
HETATM   14  O   UNL     1      -9.652   5.737  66.384  1.00  0.00    -0.154 OA 
HETATM   15  O   UNL     1      -9.410  11.267  65.084  1.00  0.00    -0.219 OA 
HETATM   16  C   UNL     1     -10.322  10.781  67.217  1.00  0.00    -0.262 A  
HETATM   17  C   UNL     1     -10.672  12.137  67.337  1.00  0.00    -0.268 A  
HETATM   18  C   UNL     1     -11.316  12.585  68.468  1.00  0.00    -0.337 A  
HETATM   19  C   UNL     1     -11.622  11.687  69.481  1.00  0.00    -0.331 A  
HETATM   20  O   UNL     1     -12.297  12.118  70.610  1.00  0.00    -0.357 OA 
HETATM   21  C   UNL     1     -12.634  13.463  70.736  1.00  0.00    -0.294 C  
HETATM   22  C   UNL     1     -13.332  13.899  71.978  1.00  0.00    -0.435 C  
HETATM   23  C   UNL     1     -12.375  14.404  69.817  1.00  0.00    -0.333 C  
HETATM   24  O   UNL     1     -13.676  15.046  72.218  1.00  0.00    -0.386 OA 
HETATM   25  C   UNL     1     -11.684  14.003  68.594  1.00  0.00    -0.354 C  
BRANCH   6  26
HETATM   26  C   UNL     1     -10.293   7.492  69.063  1.00  0.00    -0.212 C  
HETATM   27  C   UNL     1     -11.276   6.347  69.094  1.00  0.00    -0.421 C  
ENDBRANCH   6  26
ENDBRANCH   3   4
ENDBRANCH   2   3
TORSDOF 3
ENDMDL
MODEL       15
REMARK 921   NORMALIZED FREE ENERGY PREDICTED BY IDOCK:   -6.55 KCAL/MOL
REMARK 922        TOTAL FREE ENERGY PREDICTED BY IDOCK:   -8.18 KCAL/MOL
REMARK 923 INTER-LIGAND FREE ENERGY PREDICTED BY IDOCK:   -7.74 KCAL/MOL
REMARK 924 INTRA-LIGAND FREE ENERGY PREDICTED BY IDOCK:   -0.44 KCAL/MOL
REMARK 927      BINDING AFFINITY PREDICTED BY RF-SCORE:    0.00 PKD
ROOT
HETATM    1  C   UNL     1     -12.265  12.468  70.452  1.00  0.00    -0.368 C  
HETATM    2  C   UNL     1     -11.438  12.127  69.221  1.00  0.00    -0.363 C  
ENDROOT
BRANCH   2   3
HETATM    3  C   UNL     1     -12.036  10.932  68.466  1.00  0.00    -0.137 C  
BRANCH   3   4
HETATM    4  C   UNL     1     -11.015  10.242  67.557  1.00  0.00    -0.344 A  
HETATM    5  C   UNL     1     -10.221   9.055  67.827  1.00  0.00    -0.230 A  
HETATM    6  N   UNL     1     -10.148   8.260  69.069  1.00  0.00    -0.197 NA 
HETATM    7  O   UNL     1      -9.307  10.674  63.053  1.00  0.00    -0.257 OA 
HETATM    8  C   UNL     1      -9.329   7.087  69.111  1.00  0.00    -0.140 C  
HETATM    9  C   UNL     1      -8.634   6.632  68.060  1.00  0.00    -0.118 C  
HETATM   10  O   UNL     1     -13.204  14.159  65.700  1.00  0.00    -0.615 OA 
HETATM   11  C   UNL     1      -9.215   6.112  70.264  1.00  0.00    -0.156 C  
HETATM   12  O   UNL     1      -7.991   5.552  70.443  1.00  0.00    -0.097 OA 
HETATM   13  C   UNL     1      -8.588   7.399  66.829  1.00  0.00    -0.127 C  
HETATM   14  O   UNL     1     -10.143   5.771  70.976  1.00  0.00    -0.189 OA 
HETATM   15  O   UNL     1      -7.863   7.013  65.918  1.00  0.00    -0.096 OA 
HETATM   16  C   UNL     1      -9.415   8.609  66.734  1.00  0.00    -0.250 A  
HETATM   17  C   UNL     1      -9.346   9.259  65.490  1.00  0.00    -0.303 A  
HETATM   18  C   UNL     1     -10.097  10.390  65.261  1.00  0.00    -0.370 A  
HETATM   19  C   UNL     1     -10.924  10.875  66.264  1.00  0.00    -0.061 A  
HETATM   20  O   UNL     1     -11.707  11.993  66.037  1.00  0.00    -0.460 OA 
HETATM   21  C   UNL     1     -11.632  12.646  64.809  1.00  0.00    -0.331 C  
HETATM   22  C   UNL     1     -12.465  13.864  64.609  1.00  0.00    -0.325 C  
HETATM   23  C   UNL     1     -10.860  12.258  63.785  1.00  0.00    -0.495 C  
HETATM   24  O   UNL     1     -12.488  14.534  63.587  1.00  0.00    -0.782 OA 
HETATM   25  C   UNL     1     -10.027  11.070  63.959  1.00  0.00    -0.335 C  
BRANCH   6  26
HETATM   26  C   UNL     1     -10.899   8.850  70.193  1.00  0.00    -0.231 C  
HETATM   27  C   UNL     1     -10.292   9.282  71.505  1.00  0.00    -0.364 C  
ENDBRANCH   6  26
ENDBRANCH   3   4
ENDBRANCH   2   3
TORSDOF 3
ENDMDL
MODEL       16
REMARK 921   NORMALIZED FREE ENERGY PREDICTED BY IDOCK:   -6.39 KCAL/MOL
REMARK 922        TOTAL FREE ENERGY PREDICTED BY IDOCK:   -7.98 KCAL/MOL
REMARK 923 INTER-LIGAND FREE ENERGY PREDICTED BY IDOCK:   -7.89 KCAL/MOL
REMARK 924 INTRA-LIGAND FREE ENERGY PREDICTED BY IDOCK:   -0.09 KCAL/MOL
REMARK 927      BINDING AFFINITY PREDICTED BY RF-SCORE:    0.00 PKD
ROOT
HETATM    1  C   UNL     1     -10.226   8.002  72.414  1.00  0.00    -0.347 C  
HETATM    2  C   UNL     1     -10.070   9.003  71.278  1.00  0.00    -0.384 C  
ENDROOT
BRANCH   2   3
HETATM    3  C   UNL     1     -11.325   9.040  70.396  1.00  0.00    -0.242 C  
BRANCH   3   4
HETATM    4  C   UNL     1     -11.346  10.249  69.457  1.00  0.00    -0.299 A  
HETATM    5  C   UNL     1     -11.834  11.591  69.723  1.00  0.00    -0.357 A  
HETATM    6  N   UNL     1     -12.496  12.106  70.939  1.00  0.00    -0.342 NA 
HETATM    7  O   UNL     1      -9.849  11.399  65.004  1.00  0.00    -0.242 OA 
HETATM    8  C   UNL     1     -12.862  13.487  71.015  1.00  0.00    -0.267 C  
HETATM    9  C   UNL     1     -12.605  14.374  70.044  1.00  0.00    -0.283 C  
HETATM   10  O   UNL     1      -9.439   6.174  67.627  1.00  0.00    -0.113 OA 
HETATM   11  C   UNL     1     -13.456  14.194  72.215  1.00  0.00    -0.482 C  
HETATM   12  O   UNL     1     -14.347  15.181  71.936  1.00  0.00    -0.500 OA 
HETATM   13  C   UNL     1     -12.032  13.934  68.786  1.00  0.00    -0.358 C  
HETATM   14  O   UNL     1     -13.144  13.974  73.372  1.00  0.00    -0.500 OA 
HETATM   15  O   UNL     1     -11.902  14.748  67.877  1.00  0.00    -0.345 OA 
HETATM   16  C   UNL     1     -11.635  12.526  68.660  1.00  0.00    -0.357 A  
HETATM   17  C   UNL     1     -11.044  12.201  67.427  1.00  0.00    -0.330 A  
HETATM   18  C   UNL     1     -10.601  10.919  67.191  1.00  0.00    -0.302 A  
HETATM   19  C   UNL     1     -10.737   9.957  68.183  1.00  0.00    -0.233 A  
HETATM   20  O   UNL     1     -10.268   8.672  67.970  1.00  0.00    -0.192 OA 
HETATM   21  C   UNL     1      -9.693   8.345  66.745  1.00  0.00    -0.242 C  
HETATM   22  C   UNL     1      -9.226   6.945  66.539  1.00  0.00    -0.163 C  
HETATM   23  C   UNL     1      -9.525   9.202  65.728  1.00  0.00    -0.322 C  
HETATM   24  O   UNL     1      -8.713   6.524  65.514  1.00  0.00    -0.136 OA 
HETATM   25  C   UNL     1      -9.981  10.579  65.902  1.00  0.00    -0.254 C  
BRANCH   6  26
HETATM   26  C   UNL     1     -12.788  11.062  71.939  1.00  0.00    -0.307 C  
HETATM   27  C   UNL     1     -13.930  10.079  71.854  1.00  0.00     0.010 C  
ENDBRANCH   6  26
ENDBRANCH   3   4
ENDBRANCH   2   3
TORSDOF 3
ENDMDL
MODEL       17
REMARK 921   NORMALIZED FREE ENERGY PREDICTED BY IDOCK:   -6.36 KCAL/MOL
REMARK 922        TOTAL FREE ENERGY PREDICTED BY IDOCK:   -7.95 KCAL/MOL
REMARK 923 INTER-LIGAND FREE ENERGY PREDICTED BY IDOCK:   -7.64 KCAL/MOL
REMARK 924 INTRA-LIGAND FREE ENERGY PREDICTED BY IDOCK:   -0.31 KCAL/MOL
REMARK 927      BINDING AFFINITY PREDICTED BY RF-SCORE:    0.00 PKD
ROOT
HETATM    1  C   UNL     1      -6.206  12.003  68.552  1.00  0.00    -0.053 C  
HETATM    2  C   UNL     1      -6.830  13.199  67.850  1.00  0.00    -0.135 C  
ENDROOT
BRANCH   2   3
HETATM    3  C   UNL     1      -8.289  13.397  68.283  1.00  0.00    -0.160 C  
BRANCH   3   4
HETATM    4  C   UNL     1      -9.193  13.824  67.122  1.00  0.00    -0.245 A  
HETATM    5  C   UNL     1      -9.633  15.161  66.765  1.00  0.00    -0.245 A  
HETATM    6  N   UNL     1      -9.381  16.433  67.472  1.00  0.00    -0.213 NA 
HETATM    7  O   UNL     1     -11.400  11.805  63.322  1.00  0.00    -0.359 OA 
HETATM    8  C   UNL     1      -9.873  17.658  66.922  1.00  0.00    -0.306 C  
HETATM    9  C   UNL     1     -10.535  17.734  65.759  1.00  0.00    -0.199 C  
HETATM   10  O   UNL     1      -8.248   9.070  67.437  1.00  0.00    -0.107 OA 
HETATM   11  C   UNL     1      -9.623  19.050  67.463  1.00  0.00    -0.305 C  
HETATM   12  O   UNL     1     -10.645  19.933  67.313  1.00  0.00    -0.430 OA 
HETATM   13  C   UNL     1     -10.895  16.524  65.045  1.00  0.00    -0.229 C  
HETATM   14  O   UNL     1      -8.572  19.424  67.955  1.00  0.00    -0.297 OA 
HETATM   15  O   UNL     1     -11.588  16.615  64.037  1.00  0.00    -1.197 OA 
HETATM   16  C   UNL     1     -10.409  15.240  65.567  1.00  0.00    -0.408 A  
HETATM   17  C   UNL     1     -10.763  14.128  64.784  1.00  0.00    -0.436 A  
HETATM   18  C   UNL     1     -10.345  12.867  65.148  1.00  0.00    -0.320 A  
HETATM   19  C   UNL     1      -9.568  12.709  66.287  1.00  0.00    -0.244 A  
HETATM   20  O   UNL     1      -9.116  11.451  66.648  1.00  0.00    -0.170 OA 
HETATM   21  C   UNL     1      -9.475  10.346  65.881  1.00  0.00    -0.189 C  
HETATM   22  C   UNL     1      -8.996   9.004  66.315  1.00  0.00    -0.162 C  
HETATM   23  C   UNL     1     -10.225  10.399  64.771  1.00  0.00    -0.319 C  
HETATM   24  O   UNL     1      -9.244   7.955  65.740  1.00  0.00    -0.102 OA 
HETATM   25  C   UNL     1     -10.713  11.703  64.329  1.00  0.00    -0.341 C  
BRANCH   6  26
HETATM   26  C   UNL     1      -8.691  16.263  68.765  1.00  0.00    -0.244 C  
HETATM   27  C   UNL     1      -7.247  16.611  69.027  1.00  0.00    -0.222 C  
ENDBRANCH   6  26
ENDBRANCH   3   4
ENDBRANCH   2   3
TORSDOF 3
ENDMDL
MODEL       18
REMARK 921   NORMALIZED FREE ENERGY PREDICTED BY IDOCK:   -6.35 KCAL/MOL
REMARK 922        TOTAL FREE ENERGY PREDICTED BY IDOCK:   -7.94 KCAL/MOL
REMARK 923 INTER-LIGAND FREE ENERGY PREDICTED BY IDOCK:   -7.69 KCAL/MOL
REMARK 924 INTRA-LIGAND FREE ENERGY PREDICTED BY IDOCK:   -0.25 KCAL/MOL
REMARK 927      BINDING AFFINITY PREDICTED BY RF-SCORE:    0.00 PKD
ROOT
HETATM    1  C   UNL     1     -13.193  10.165  72.062  1.00  0.00    -0.534 C  
HETATM    2  C   UNL     1     -13.035  10.675  70.637  1.00  0.00    -0.343 C  
ENDROOT
BRANCH   2   3
HETATM    3  C   UNL     1     -11.561  10.945  70.306  1.00  0.00    -0.426 C  
BRANCH   3   4
HETATM    4  C   UNL     1     -11.152  10.374  68.945  1.00  0.00    -0.296 A  
HETATM    5  C   UNL     1     -11.051  11.062  67.670  1.00  0.00    -0.300 A  
HETATM    6  N   UNL     1     -11.385  12.464  67.352  1.00  0.00    -0.300 NA 
HETATM    7  O   UNL     1      -9.571   6.190  67.105  1.00  0.00    -0.118 OA 
HETATM    8  C   UNL     1     -11.167  12.961  66.028  1.00  0.00    -0.293 C  
HETATM    9  C   UNL     1     -10.633  12.228  65.041  1.00  0.00    -0.322 C  
HETATM   10  O   UNL     1     -11.127   7.241  72.657  1.00  0.00    -0.272 OA 
HETATM   11  C   UNL     1     -11.364  14.388  65.560  1.00  0.00    -0.334 C  
HETATM   12  O   UNL     1     -11.803  14.534  64.283  1.00  0.00    -0.408 OA 
HETATM   13  C   UNL     1     -10.353  10.820  65.248  1.00  0.00    -0.258 C  
HETATM   14  O   UNL     1     -11.101  15.376  66.223  1.00  0.00    -0.311 OA 
HETATM   15  O   UNL     1      -9.961  10.148  64.300  1.00  0.00    -0.298 OA 
HETATM   16  C   UNL     1     -10.556  10.263  66.592  1.00  0.00    -0.232 A  
HETATM   17  C   UNL     1     -10.213   8.905  66.712  1.00  0.00    -0.348 A  
HETATM   18  C   UNL     1     -10.330   8.269  67.928  1.00  0.00    -0.278 A  
HETATM   19  C   UNL     1     -10.780   8.982  69.030  1.00  0.00    -0.141 A  
HETATM   20  O   UNL     1     -10.873   8.364  70.265  1.00  0.00    -0.236 OA 
HETATM   21  C   UNL     1     -10.545   7.016  70.384  1.00  0.00    -0.223 C  
HETATM   22  C   UNL     1     -10.686   6.374  71.721  1.00  0.00    -0.233 C  
HETATM   23  C   UNL     1     -10.108   6.246  69.378  1.00  0.00    -0.215 C  
HETATM   24  O   UNL     1     -10.440   5.202  71.961  1.00  0.00    -0.211 OA 
HETATM   25  C   UNL     1      -9.968   6.850  68.055  1.00  0.00    -0.154 C  
BRANCH   6  26
HETATM   26  C   UNL     1     -12.012  13.191  68.472  1.00  0.00    -0.289 C  
HETATM   27  C   UNL     1     -11.324  14.232  69.320  1.00  0.00    -0.322 C  
ENDBRANCH   6  26
ENDBRANCH   3   4
ENDBRANCH   2   3
TORSDOF 3
ENDMDL
MODEL       19
REMARK 921   NORMALIZED FREE ENERGY PREDICTED BY IDOCK:   -6.35 KCAL/MOL
REMARK 922        TOTAL FREE ENERGY PREDICTED BY IDOCK:   -7.94 KCAL/MOL
REMARK 923 INTER-LIGAND FREE ENERGY PREDICTED BY IDOCK:   -7.51 KCAL/MOL
REMARK 924 INTRA-LIGAND FREE ENERGY PREDICTED BY IDOCK:   -0.43 KCAL/MOL
REMARK 927      BINDING AFFINITY PREDICTED BY RF-SCORE:    0.00 PKD
ROOT
HETATM    1  C   UNL     1      -6.580  15.538  69.646  1.00  0.00    -0.179 C  
HETATM    2  C   UNL     1      -7.087  14.887  68.367  1.00  0.00    -0.113 C  
ENDROOT
BRANCH   2   3
HETATM    3  C   UNL     1      -8.523  14.375  68.539  1.00  0.00    -0.170 C  
BRANCH   3   4
HETATM    4  C   UNL     1      -9.228  14.145  67.198  1.00  0.00    -0.237 A  
HETATM    5  C   UNL     1      -9.442  12.893  66.493  1.00  0.00    -0.251 A  
HETATM    6  N   UNL     1      -8.972  11.541  66.856  1.00  0.00    -0.173 NA 
HETATM    7  O   UNL     1     -11.660  16.715  63.902  1.00  0.00    -1.204 OA 
HETATM    8  C   UNL     1      -9.335  10.424  66.039  1.00  0.00    -0.178 C  
HETATM    9  C   UNL     1     -10.122  10.521  64.959  1.00  0.00    -0.390 C  
HETATM   10  O   UNL     1      -9.076  18.744  68.754  1.00  0.00    -0.337 OA 
HETATM   11  C   UNL     1      -9.021   8.969  66.318  1.00  0.00    -0.162 C  
HETATM   12  O   UNL     1      -8.783   8.198  65.224  1.00  0.00    -0.147 OA 
HETATM   13  C   UNL     1     -10.557  11.823  64.489  1.00  0.00    -0.313 C  
HETATM   14  O   UNL     1      -9.029   8.458  67.424  1.00  0.00    -0.132 OA 
HETATM   15  O   UNL     1     -11.191  11.893  63.441  1.00  0.00    -0.401 OA 
HETATM   16  C   UNL     1     -10.215  13.002  65.295  1.00  0.00    -0.294 A  
HETATM   17  C   UNL     1     -10.720  14.212  64.791  1.00  0.00    -0.436 A  
HETATM   18  C   UNL     1     -10.493  15.389  65.470  1.00  0.00    -0.402 A  
HETATM   19  C   UNL     1      -9.771  15.366  66.654  1.00  0.00    -0.253 A  
HETATM   20  O   UNL     1      -9.562  16.537  67.362  1.00  0.00    -0.234 OA 
HETATM   21  C   UNL     1     -10.052  17.740  66.859  1.00  0.00    -0.342 C  
HETATM   22  C   UNL     1      -9.783  18.986  67.630  1.00  0.00    -0.315 C  
HETATM   23  C   UNL     1     -10.753  17.862  65.723  1.00  0.00    -0.092 C  
HETATM   24  O   UNL     1     -10.147  20.103  67.298  1.00  0.00    -0.410 OA 
HETATM   25  C   UNL     1     -11.023  16.656  64.944  1.00  0.00    -0.150 C  
BRANCH   6  26
HETATM   26  C   UNL     1      -8.073  11.522  68.025  1.00  0.00    -0.136 C  
HETATM   27  C   UNL     1      -6.606  11.173  67.981  1.00  0.00    -0.058 C  
ENDBRANCH   6  26
ENDBRANCH   3   4
ENDBRANCH   2   3
TORSDOF 3
ENDMDL
MODEL       20
REMARK 921   NORMALIZED FREE ENERGY PREDICTED BY IDOCK:   -6.30 KCAL/MOL
REMARK 922        TOTAL FREE ENERGY PREDICTED BY IDOCK:   -7.88 KCAL/MOL
REMARK 923 INTER-LIGAND FREE ENERGY PREDICTED BY IDOCK:   -7.41 KCAL/MOL
REMARK 924 INTRA-LIGAND FREE ENERGY PREDICTED BY IDOCK:   -0.47 KCAL/MOL
REMARK 927      BINDING AFFINITY PREDICTED BY RF-SCORE:    0.00 PKD
ROOT
HETATM    1  C   UNL     1      -9.332   9.572  65.106  1.00  0.00    -0.316 C  
HETATM    2  C   UNL     1     -10.276   9.863  66.264  1.00  0.00    -0.282 C  
ENDROOT
BRANCH   2   3
HETATM    3  C   UNL     1      -9.502  10.050  67.576  1.00  0.00    -0.169 C  
BRANCH   3   4
HETATM    4  C   UNL     1     -10.428  10.233  68.782  1.00  0.00    -0.222 A  
HETATM    5  C   UNL     1     -11.007  11.461  69.299  1.00  0.00    -0.229 A  
HETATM    6  N   UNL     1     -10.790  12.846  68.837  1.00  0.00    -0.230 NA 
HETATM    7  O   UNL     1     -12.708   7.482  72.041  1.00  0.00    -0.286 OA 
HETATM    8  C   UNL     1     -11.500  13.920  69.462  1.00  0.00    -0.274 C  
HETATM    9  C   UNL     1     -12.398  13.742  70.441  1.00  0.00    -0.423 C  
HETATM   10  O   UNL     1      -9.066   5.670  67.822  1.00  0.00    -0.109 OA 
HETATM   11  C   UNL     1     -11.469  15.377  69.050  1.00  0.00    -0.337 C  
HETATM   12  O   UNL     1     -11.565  16.277  70.064  1.00  0.00    -0.283 OA 
HETATM   13  C   UNL     1     -12.607  12.423  71.008  1.00  0.00    -0.254 C  
HETATM   14  O   UNL     1     -11.425  15.770  67.898  1.00  0.00    -0.316 OA 
HETATM   15  O   UNL     1     -13.358  12.304  71.970  1.00  0.00    -0.506 OA 
HETATM   16  C   UNL     1     -11.905  11.286  70.398  1.00  0.00    -0.443 A  
HETATM   17  C   UNL     1     -12.207  10.043  70.978  1.00  0.00    -0.462 A  
HETATM   18  C   UNL     1     -11.636   8.893  70.480  1.00  0.00    -0.189 A  
HETATM   19  C   UNL     1     -10.770   8.974  69.399  1.00  0.00    -0.191 A  
HETATM   20  O   UNL     1     -10.213   7.823  68.868  1.00  0.00    -0.201 OA 
HETATM   21  C   UNL     1     -10.501   6.590  69.449  1.00  0.00    -0.221 C  
HETATM   22  C   UNL     1      -9.861   5.375  68.873  1.00  0.00    -0.166 C  
HETATM   23  C   UNL     1     -11.318   6.414  70.497  1.00  0.00    -0.438 C  
HETATM   24  O   UNL     1     -10.021   4.238  69.290  1.00  0.00    -0.167 OA 
HETATM   25  C   UNL     1     -11.953   7.591  71.085  1.00  0.00    -0.308 C  
BRANCH   6  26
HETATM   26  C   UNL     1      -9.755  12.965  67.793  1.00  0.00    -0.214 C  
HETATM   27  C   UNL     1      -8.415  13.635  67.977  1.00  0.00    -0.174 C  
ENDBRANCH   6  26
ENDBRANCH   3   4
ENDBRANCH   2   3
TORSDOF 3
ENDMDL
MODEL       21
REMARK 921   NORMALIZED FREE ENERGY PREDICTED BY IDOCK:   -6.24 KCAL/MOL
REMARK 922        TOTAL FREE ENERGY PREDICTED BY IDOCK:   -7.81 KCAL/MOL
REMARK 923 INTER-LIGAND FREE ENERGY PREDICTED BY IDOCK:   -7.38 KCAL/MOL
REMARK 924 INTRA-LIGAND FREE ENERGY PREDICTED BY IDOCK:   -0.43 KCAL/MOL
REMARK 927      BINDING AFFINITY PREDICTED BY RF-SCORE:    0.00 PKD
ROOT
HETATM    1  C   UNL     1     -10.736  13.775  64.822  1.00  0.00    -0.429 C  
HETATM    2  C   UNL     1     -11.295  13.262  66.140  1.00  0.00    -0.335 C  
ENDROOT
BRANCH   2   3
HETATM    3  C   UNL     1     -10.172  12.780  67.068  1.00  0.00    -0.245 C  
BRANCH   3   4
HETATM    4  C   UNL     1     -10.603  11.602  67.947  1.00  0.00    -0.225 A  
HETATM    5  C   UNL     1     -10.287  10.193  67.788  1.00  0.00    -0.210 A  
HETATM    6  N   UNL     1      -9.533   9.536  66.701  1.00  0.00    -0.159 NA 
HETATM    7  O   UNL     1     -13.034  10.856  72.060  1.00  0.00    -0.457 OA 
HETATM    8  C   UNL     1      -9.293   8.127  66.759  1.00  0.00    -0.183 C  
HETATM    9  C   UNL     1      -9.686   7.350  67.778  1.00  0.00    -0.171 C  
HETATM   10  O   UNL     1     -12.147  15.983  69.364  1.00  0.00    -0.279 OA 
HETATM   11  C   UNL     1      -8.462   7.317  65.785  1.00  0.00    -0.143 C  
HETATM   12  O   UNL     1      -8.895   6.050  65.553  1.00  0.00    -0.147 OA 
HETATM   13  C   UNL     1     -10.502   7.902  68.843  1.00  0.00    -0.190 C  
HETATM   14  O   UNL     1      -7.431   7.705  65.264  1.00  0.00    -0.075 OA 
HETATM   15  O   UNL     1     -10.934   7.149  69.709  1.00  0.00    -0.244 OA 
HETATM   16  C   UNL     1     -10.773   9.345  68.832  1.00  0.00    -0.203 A  
HETATM   17  C   UNL     1     -11.527   9.800  69.927  1.00  0.00    -0.190 A  
HETATM   18  C   UNL     1     -11.826  11.138  70.051  1.00  0.00    -0.441 A  
HETATM   19  C   UNL     1     -11.370  12.030  69.091  1.00  0.00    -0.281 A  
HETATM   20  O   UNL     1     -11.638  13.382  69.219  1.00  0.00    -0.274 OA 
HETATM   21  C   UNL     1     -12.395  13.834  70.297  1.00  0.00    -0.337 C  
HETATM   22  C   UNL     1     -12.690  15.291  70.388  1.00  0.00    -0.356 C  
HETATM   23  C   UNL     1     -12.882  13.048  71.268  1.00  0.00    -0.370 C  
HETATM   24  O   UNL     1     -13.346  15.815  71.274  1.00  0.00    -0.532 OA 
HETATM   25  C   UNL     1     -12.613  11.614  71.198  1.00  0.00    -0.335 C  
BRANCH   6  26
HETATM   26  C   UNL     1      -9.178  10.445  65.596  1.00  0.00    -0.182 C  
HETATM   27  C   UNL     1      -9.731  10.359  64.194  1.00  0.00    -0.387 C  
ENDBRANCH   6  26
ENDBRANCH   3   4
ENDBRANCH   2   3
TORSDOF 3
ENDMDL
MODEL       22
REMARK 921   NORMALIZED FREE ENERGY PREDICTED BY IDOCK:   -6.19 KCAL/MOL
REMARK 922        TOTAL FREE ENERGY PREDICTED BY IDOCK:   -7.75 KCAL/MOL
REMARK 923 INTER-LIGAND FREE ENERGY PREDICTED BY IDOCK:   -7.51 KCAL/MOL
REMARK 924 INTRA-LIGAND FREE ENERGY PREDICTED BY IDOCK:   -0.23 KCAL/MOL
REMARK 927      BINDING AFFINITY PREDICTED BY RF-SCORE:    0.00 PKD
ROOT
HETATM    1  C   UNL     1      -9.179  11.422  68.113  1.00  0.00    -0.178 C  
HETATM    2  C   UNL     1      -8.867  12.879  68.419  1.00  0.00    -0.120 C  
ENDROOT
BRANCH   2   3
HETATM    3  C   UNL     1      -8.187  13.562  67.225  1.00  0.00    -0.164 C  
BRANCH   3   4
HETATM    4  C   UNL     1      -8.874  14.873  66.830  1.00  0.00    -0.291 A  
HETATM    5  C   UNL     1      -8.558  16.224  67.260  1.00  0.00    -0.179 A  
HETATM    6  N   UNL     1      -7.546  16.664  68.241  1.00  0.00    -0.174 NA 
HETATM    7  O   UNL     1     -12.377  16.366  63.849  1.00  0.00    -0.786 OA 
HETATM    8  C   UNL     1      -7.363  18.061  68.491  1.00  0.00    -0.273 C  
HETATM    9  C   UNL     1      -8.044  19.022  67.851  1.00  0.00    -0.309 C  
HETATM   10  O   UNL     1     -10.653  10.844  64.782  1.00  0.00    -0.315 OA 
HETATM   11  C   UNL     1      -6.312  18.684  69.386  1.00  0.00    -0.267 C  
HETATM   12  O   UNL     1      -6.692  19.809  70.045  1.00  0.00    -0.307 OA 
HETATM   13  C   UNL     1      -9.113  18.672  66.935  1.00  0.00    -0.294 C  
HETATM   14  O   UNL     1      -5.168  18.279  69.495  1.00  0.00    -0.182 OA 
HETATM   15  O   UNL     1      -9.788  19.569  66.441  1.00  0.00    -0.359 OA 
HETATM   16  C   UNL     1      -9.337  17.251  66.641  1.00  0.00    -0.276 A  
HETATM   17  C   UNL     1     -10.357  17.008  65.706  1.00  0.00    -0.275 A  
HETATM   18  C   UNL     1     -10.648  15.718  65.321  1.00  0.00    -0.446 A  
HETATM   19  C   UNL     1      -9.921  14.666  65.860  1.00  0.00    -0.328 A  
HETATM   20  O   UNL     1     -10.183  13.367  65.459  1.00  0.00    -0.288 OA 
HETATM   21  C   UNL     1     -11.201  13.123  64.541  1.00  0.00    -0.354 C  
HETATM   22  C   UNL     1     -11.477  11.711  64.156  1.00  0.00    -0.280 C  
HETATM   23  C   UNL     1     -11.959  14.072  63.973  1.00  0.00    -0.388 C  
HETATM   24  O   UNL     1     -12.343  11.359  63.370  1.00  0.00    -0.209 OA 
HETATM   25  C   UNL     1     -11.714  15.464  64.341  1.00  0.00    -0.258 C  
BRANCH   6  26
HETATM   26  C   UNL     1      -6.874  15.551  68.936  1.00  0.00    -0.123 C  
HETATM   27  C   UNL     1      -5.491  15.040  68.615  1.00  0.00    -0.093 C  
ENDBRANCH   6  26
ENDBRANCH   3   4
ENDBRANCH   2   3
TORSDOF 3
ENDMDL
MODEL       23
REMARK 921   NORMALIZED FREE ENERGY PREDICTED BY IDOCK:   -6.17 KCAL/MOL
REMARK 922        TOTAL FREE ENERGY PREDICTED BY IDOCK:   -7.73 KCAL/MOL
REMARK 923 INTER-LIGAND FREE ENERGY PREDICTED BY IDOCK:   -7.41 KCAL/MOL
REMARK 924 INTRA-LIGAND FREE ENERGY PREDICTED BY IDOCK:   -0.32 KCAL/MOL
REMARK 927      BINDING AFFINITY PREDICTED BY RF-SCORE:    0.00 PKD
ROOT
HETATM    1  C   UNL     1     -13.818   9.077  72.141  1.00  0.00    -0.526 C  
HETATM    2  C   UNL     1     -13.199  10.184  71.300  1.00  0.00    -0.453 C  
ENDROOT
BRANCH   2   3
HETATM    3  C   UNL     1     -11.667  10.094  71.308  1.00  0.00    -0.426 C  
BRANCH   3   4
HETATM    4  C   UNL     1     -11.116   9.356  70.084  1.00  0.00    -0.277 A  
HETATM    5  C   UNL     1     -10.677   7.975  69.984  1.00  0.00    -0.244 A  
HETATM    6  N   UNL     1     -10.584   6.960  71.051  1.00  0.00    -0.218 NA 
HETATM    7  O   UNL     1     -10.353  10.210  65.386  1.00  0.00    -0.257 OA 
HETATM    8  C   UNL     1     -10.165   5.630  70.729  1.00  0.00    -0.227 C  
HETATM    9  C   UNL     1      -9.878   5.227  69.483  1.00  0.00    -0.270 C  
HETATM   10  O   UNL     1     -12.373  13.995  69.378  1.00  0.00    -0.333 OA 
HETATM   11  C   UNL     1     -10.107   4.451  71.678  1.00  0.00    -0.160 C  
HETATM   12  O   UNL     1      -9.098   3.568  71.459  1.00  0.00    -0.098 OA 
HETATM   13  C   UNL     1      -9.865   6.182  68.392  1.00  0.00    -0.126 C  
HETATM   14  O   UNL     1     -10.922   4.229  72.556  1.00  0.00    -0.066 OA 
HETATM   15  O   UNL     1      -9.500   5.810  67.282  1.00  0.00    -0.112 OA 
HETATM   16  C   UNL     1     -10.293   7.560  68.671  1.00  0.00    -0.218 A  
HETATM   17  C   UNL     1     -10.298   8.402  67.546  1.00  0.00    -0.333 A  
HETATM   18  C   UNL     1     -10.705   9.712  67.667  1.00  0.00    -0.324 A  
HETATM   19  C   UNL     1     -11.117  10.186  68.904  1.00  0.00    -0.207 A  
HETATM   20  O   UNL     1     -11.558  11.492  69.034  1.00  0.00    -0.259 OA 
HETATM   21  C   UNL     1     -11.553  12.332  67.923  1.00  0.00    -0.354 C  
HETATM   22  C   UNL     1     -12.005  13.739  68.104  1.00  0.00    -0.358 C  
HETATM   23  C   UNL     1     -11.168  11.966  66.692  1.00  0.00    -0.384 C  
HETATM   24  O   UNL     1     -12.042  14.580  67.218  1.00  0.00    -0.392 OA 
HETATM   25  C   UNL     1     -10.713  10.593  66.490  1.00  0.00    -0.151 C  
BRANCH   6  26
HETATM   26  C   UNL     1     -10.867   7.490  72.398  1.00  0.00    -0.276 C  
HETATM   27  C   UNL     1      -9.836   7.699  73.479  1.00  0.00    -0.357 C  
ENDBRANCH   6  26
ENDBRANCH   3   4
ENDBRANCH   2   3
TORSDOF 3
ENDMDL
MODEL       24
REMARK 921   NORMALIZED FREE ENERGY PREDICTED BY IDOCK:   -6.16 KCAL/MOL
REMARK 922        TOTAL FREE ENERGY PREDICTED BY IDOCK:   -7.72 KCAL/MOL
REMARK 923 INTER-LIGAND FREE ENERGY PREDICTED BY IDOCK:   -7.58 KCAL/MOL
REMARK 924 INTRA-LIGAND FREE ENERGY PREDICTED BY IDOCK:   -0.14 KCAL/MOL
REMARK 927      BINDING AFFINITY PREDICTED BY RF-SCORE:    0.00 PKD
ROOT
HETATM    1  C   UNL     1      -8.597   9.329  64.416  1.00  0.00    -0.216 C  
HETATM    2  C   UNL     1      -8.928  10.121  65.672  1.00  0.00    -0.199 C  
ENDROOT
BRANCH   2   3
HETATM    3  C   UNL     1     -10.436  10.382  65.782  1.00  0.00    -0.187 C  
BRANCH   3   4
HETATM    4  C   UNL     1     -10.798  11.221  67.011  1.00  0.00    -0.332 A  
HETATM    5  C   UNL     1     -10.955  12.662  67.108  1.00  0.00    -0.261 A  
HETATM    6  N   UNL     1     -10.734  13.683  66.065  1.00  0.00    -0.278 NA 
HETATM    7  O   UNL     1     -12.041  10.518  71.632  1.00  0.00    -0.294 OA 
HETATM    8  C   UNL     1     -10.991  15.060  66.357  1.00  0.00    -0.336 C  
HETATM    9  C   UNL     1     -11.465  15.490  67.534  1.00  0.00    -0.184 C  
HETATM   10  O   UNL     1     -10.573   6.419  67.709  1.00  0.00    -0.200 OA 
HETATM   11  C   UNL     1     -10.909  16.216  65.382  1.00  0.00    -0.307 C  
HETATM   12  O   UNL     1     -10.483  17.396  65.902  1.00  0.00    -0.442 OA 
HETATM   13  C   UNL     1     -11.631  14.562  68.637  1.00  0.00    -0.315 C  
HETATM   14  O   UNL     1     -11.249  16.161  64.213  1.00  0.00    -0.660 OA 
HETATM   15  O   UNL     1     -11.969  14.998  69.732  1.00  0.00    -0.296 OA 
HETATM   16  C   UNL     1     -11.384  13.137  68.386  1.00  0.00    -0.324 A  
HETATM   17  C   UNL     1     -11.618  12.306  69.496  1.00  0.00    -0.366 A  
HETATM   18  C   UNL     1     -11.451  10.944  69.385  1.00  0.00    -0.373 A  
HETATM   19  C   UNL     1     -11.058  10.402  68.170  1.00  0.00    -0.285 A  
HETATM   20  O   UNL     1     -10.916   9.031  68.036  1.00  0.00    -0.101 OA 
HETATM   21  C   UNL     1     -11.135   8.207  69.137  1.00  0.00     0.207 C  
HETATM   22  C   UNL     1     -10.944   6.740  68.967  1.00  0.00    -0.233 C  
HETATM   23  C   UNL     1     -11.510   8.639  70.350  1.00  0.00    -0.151 C  
HETATM   24  O   UNL     1     -11.095   5.910  69.849  1.00  0.00    -0.366 OA 
HETATM   25  C   UNL     1     -11.698  10.075  70.545  1.00  0.00    -0.318 C  
BRANCH   6  26
HETATM   26  C   UNL     1     -10.166  13.140  64.817  1.00  0.00    -0.301 C  
HETATM   27  C   UNL     1     -10.973  12.699  63.620  1.00  0.00    -0.464 C  
ENDBRANCH   6  26
ENDBRANCH   3   4
ENDBRANCH   2   3
TORSDOF 3
ENDMDL
MODEL       25
REMARK 921   NORMALIZED FREE ENERGY PREDICTED BY IDOCK:   -6.16 KCAL/MOL
REMARK 922        TOTAL FREE ENERGY PREDICTED BY IDOCK:   -7.71 KCAL/MOL
REMARK 923 INTER-LIGAND FREE ENERGY PREDICTED BY IDOCK:   -7.34 KCAL/MOL
REMARK 924 INTRA-LIGAND FREE ENERGY PREDICTED BY IDOCK:   -0.37 KCAL/MOL
REMARK 927      BINDING AFFINITY PREDICTED BY RF-SCORE:    0.00 PKD
ROOT
HETATM    1  C   UNL     1     -10.644   5.881  66.811  1.00  0.00    -0.368 C  
HETATM    2  C   UNL     1      -9.940   6.058  68.147  1.00  0.00    -0.168 C  
ENDROOT
BRANCH   2   3
HETATM    3  C   UNL     1      -9.036   7.299  68.137  1.00  0.00    -0.134 C  
BRANCH   3   4
HETATM    4  C   UNL     1      -9.835   8.605  68.132  1.00  0.00    -0.192 A  
HETATM    5  C   UNL     1     -10.055   9.526  67.030  1.00  0.00    -0.234 A  
HETATM    6  N   UNL     1      -9.506   9.470  65.661  1.00  0.00    -0.244 NA 
HETATM    7  O   UNL     1     -12.619  11.154  71.156  1.00  0.00    -0.377 OA 
HETATM    8  C   UNL     1      -9.888  10.463  64.704  1.00  0.00    -0.338 C  
HETATM    9  C   UNL     1     -10.761  11.445  64.966  1.00  0.00    -0.340 C  
HETATM   10  O   UNL     1      -9.740   6.190  72.346  1.00  0.00    -0.159 OA 
HETATM   11  C   UNL     1      -9.496  10.499  63.242  1.00  0.00    -0.325 C  
HETATM   12  O   UNL     1      -9.316  11.736  62.710  1.00  0.00    -0.351 OA 
HETATM   13  C   UNL     1     -11.283  11.619  66.309  1.00  0.00    -0.271 C  
HETATM   14  O   UNL     1      -9.397   9.516  62.527  1.00  0.00    -0.227 OA 
HETATM   15  O   UNL     1     -12.000  12.585  66.546  1.00  0.00    -0.522 OA 
HETATM   16  C   UNL     1     -10.924  10.623  67.326  1.00  0.00    -0.348 A  
HETATM   17  C   UNL     1     -11.514  10.842  68.583  1.00  0.00    -0.365 A  
HETATM   18  C   UNL     1     -11.281   9.963  69.617  1.00  0.00    -0.251 A  
HETATM   19  C   UNL     1     -10.467   8.860  69.404  1.00  0.00    -0.222 A  
HETATM   20  O   UNL     1     -10.249   7.952  70.426  1.00  0.00    -0.194 OA 
HETATM   21  C   UNL     1     -10.823   8.174  71.676  1.00  0.00    -0.249 C  
HETATM   22  C   UNL     1     -10.543   7.194  72.762  1.00  0.00    -0.268 C  
HETATM   23  C   UNL     1     -11.616   9.212  71.977  1.00  0.00    -0.371 C  
HETATM   24  O   UNL     1     -10.975   7.273  73.901  1.00  0.00    -0.200 OA 
HETATM   25  C   UNL     1     -11.899  10.191  70.931  1.00  0.00    -0.374 C  
BRANCH   6  26
HETATM   26  C   UNL     1      -8.517   8.393  65.465  1.00  0.00    -0.168 C  
HETATM   27  C   UNL     1      -7.048   8.608  65.195  1.00  0.00    -0.086 C  
ENDBRANCH   6  26
ENDBRANCH   3   4
ENDBRANCH   2   3
TORSDOF 3
ENDMDL
MODEL       26
REMARK 921   NORMALIZED FREE ENERGY PREDICTED BY IDOCK:   -6.10 KCAL/MOL
REMARK 922        TOTAL FREE ENERGY PREDICTED BY IDOCK:   -7.64 KCAL/MOL
REMARK 923 INTER-LIGAND FREE ENERGY PREDICTED BY IDOCK:   -7.24 KCAL/MOL
REMARK 924 INTRA-LIGAND FREE ENERGY PREDICTED BY IDOCK:   -0.40 KCAL/MOL
REMARK 927      BINDING AFFINITY PREDICTED BY RF-SCORE:    0.00 PKD
ROOT
HETATM    1  C   UNL     1      -8.323   7.670  65.912  1.00  0.00    -0.140 C  
HETATM    2  C   UNL     1      -8.755   8.504  67.109  1.00  0.00    -0.134 C  
ENDROOT
BRANCH   2   3
HETATM    3  C   UNL     1     -10.276   8.713  67.118  1.00  0.00    -0.353 C  
BRANCH   3   4
HETATM    4  C   UNL     1     -10.772   9.351  68.419  1.00  0.00    -0.213 A  
HETATM    5  C   UNL     1     -11.200  10.720  68.647  1.00  0.00    -0.274 A  
HETATM    6  N   UNL     1     -11.196  11.855  67.703  1.00  0.00    -0.256 NA 
HETATM    7  O   UNL     1     -11.781   8.007  72.954  1.00  0.00    -0.369 OA 
HETATM    8  C   UNL     1     -11.707  13.125  68.120  1.00  0.00    -0.355 C  
HETATM    9  C   UNL     1     -12.236  13.347  69.332  1.00  0.00    -0.246 C  
HETATM   10  O   UNL     1      -9.620   4.639  68.672  1.00  0.00    -0.146 OA 
HETATM   11  C   UNL     1     -11.864  14.358  67.256  1.00  0.00    -0.405 C  
HETATM   12  O   UNL     1     -11.663  15.547  67.883  1.00  0.00    -0.293 OA 
HETATM   13  C   UNL     1     -12.203  12.309  70.344  1.00  0.00    -0.288 C  
HETATM   14  O   UNL     1     -12.206  14.345  66.086  1.00  0.00    -0.403 OA 
HETATM   15  O   UNL     1     -12.600  12.571  71.474  1.00  0.00    -0.267 OA 
HETATM   16  C   UNL     1     -11.691  10.986  69.964  1.00  0.00    -0.437 A  
HETATM   17  C   UNL     1     -11.744  10.029  70.992  1.00  0.00    -0.479 A  
HETATM   18  C   UNL     1     -11.320   8.740  70.756  1.00  0.00    -0.313 A  
HETATM   19  C   UNL     1     -10.851   8.396  69.497  1.00  0.00    -0.117 A  
HETATM   20  O   UNL     1     -10.451   7.096  69.238  1.00  0.00    -0.201 OA 
HETATM   21  C   UNL     1     -10.491   6.149  70.258  1.00  0.00    -0.229 C  
HETATM   22  C   UNL     1     -10.024   4.768  69.954  1.00  0.00    -0.236 C  
HETATM   23  C   UNL     1     -10.922   6.389  71.505  1.00  0.00    -0.310 C  
HETATM   24  O   UNL     1     -10.000   3.847  70.756  1.00  0.00    -0.179 OA 
HETATM   25  C   UNL     1     -11.377   7.738  71.831  1.00  0.00    -0.270 C  
BRANCH   6  26
HETATM   26  C   UNL     1     -10.555  11.547  66.411  1.00  0.00    -0.259 C  
HETATM   27  C   UNL     1      -9.252  12.136  65.930  1.00  0.00    -0.069 C  
ENDBRANCH   6  26
ENDBRANCH   3   4
ENDBRANCH   2   3
TORSDOF 3
ENDMDL
MODEL       27
REMARK 921   NORMALIZED FREE ENERGY PREDICTED BY IDOCK:   -6.03 KCAL/MOL
REMARK 922        TOTAL FREE ENERGY PREDICTED BY IDOCK:   -7.56 KCAL/MOL
REMARK 923 INTER-LIGAND FREE ENERGY PREDICTED BY IDOCK:   -7.08 KCAL/MOL
REMARK 924 INTRA-LIGAND FREE ENERGY PREDICTED BY IDOCK:   -0.48 KCAL/MOL
REMARK 927      BINDING AFFINITY PREDICTED BY RF-SCORE:    0.00 PKD
ROOT
HETATM    1  C   UNL     1     -10.431   8.080  66.876  1.00  0.00    -0.387 C  
HETATM    2  C   UNL     1     -10.104   9.516  66.492  1.00  0.00    -0.326 C  
ENDROOT
BRANCH   2   3
HETATM    3  C   UNL     1     -10.497  10.491  67.610  1.00  0.00    -0.276 C  
BRANCH   3   4
HETATM    4  C   UNL     1      -9.457  11.596  67.816  1.00  0.00    -0.178 A  
HETATM    5  C   UNL     1      -8.271  11.575  68.655  1.00  0.00    -0.124 A  
HETATM    6  N   UNL     1      -7.812  10.514  69.573  1.00  0.00    -0.151 NA 
HETATM    7  O   UNL     1      -8.485  16.015  66.108  1.00  0.00    -0.323 OA 
HETATM    8  C   UNL     1      -6.579  10.675  70.281  1.00  0.00    -0.125 C  
HETATM    9  C   UNL     1      -5.776  11.738  70.135  1.00  0.00    -0.145 C  
HETATM   10  O   UNL     1     -13.064  12.627  64.731  1.00  0.00    -0.852 OA 
HETATM   11  C   UNL     1      -5.919   9.651  71.180  1.00  0.00    -0.072 C  
HETATM   12  O   UNL     1      -5.245  10.152  72.248  1.00  0.00    -0.225 OA 
HETATM   13  C   UNL     1      -6.193  12.861  69.317  1.00  0.00    -0.104 C  
HETATM   14  O   UNL     1      -5.909   8.450  70.971  1.00  0.00    -0.032 OA 
HETATM   15  O   UNL     1      -5.488  13.864  69.282  1.00  0.00    -0.081 OA 
HETATM   16  C   UNL     1      -7.450  12.742  68.566  1.00  0.00    -0.120 A  
HETATM   17  C   UNL     1      -7.749  13.855  67.762  1.00  0.00    -0.177 A  
HETATM   18  C   UNL     1      -8.886  13.859  66.984  1.00  0.00    -0.231 A  
HETATM   19  C   UNL     1      -9.724  12.753  66.997  1.00  0.00    -0.224 A  
HETATM   20  O   UNL     1     -10.854  12.731  66.197  1.00  0.00    -0.273 OA 
HETATM   21  C   UNL     1     -11.159  13.837  65.408  1.00  0.00    -0.302 C  
HETATM   22  C   UNL     1     -12.398  13.792  64.583  1.00  0.00    -0.372 C  
HETATM   23  C   UNL     1     -10.415  14.950  65.335  1.00  0.00    -0.406 C  
HETATM   24  O   UNL     1     -12.785  14.693  63.856  1.00  0.00    -0.788 OA 
HETATM   25  C   UNL     1      -9.198  15.022  66.141  1.00  0.00    -0.259 C  
BRANCH   6  26
HETATM   26  C   UNL     1      -8.770   9.402  69.717  1.00  0.00    -0.181 C  
HETATM   27  C   UNL     1      -9.602   9.132  70.946  1.00  0.00    -0.347 C  
ENDBRANCH   6  26
ENDBRANCH   3   4
ENDBRANCH   2   3
TORSDOF 3
ENDMDL
MODEL       28
REMARK 921   NORMALIZED FREE ENERGY PREDICTED BY IDOCK:   -6.01 KCAL/MOL
REMARK 922        TOTAL FREE ENERGY PREDICTED BY IDOCK:   -7.54 KCAL/MOL
REMARK 923 INTER-LIGAND FREE ENERGY PREDICTED BY IDOCK:   -7.06 KCAL/MOL
REMARK 924 INTRA-LIGAND FREE ENERGY PREDICTED BY IDOCK:   -0.48 KCAL/MOL
REMARK 927      BINDING AFFINITY PREDICTED BY RF-SCORE:    0.00 PKD
ROOT
HETATM    1  C   UNL     1      -6.125  14.815  70.513  1.00  0.00    -0.142 C  
HETATM    2  C   UNL     1      -7.219  15.439  69.660  1.00  0.00    -0.174 C  
ENDROOT
BRANCH   2   3
HETATM    3  C   UNL     1      -6.895  15.312  68.165  1.00  0.00    -0.137 C  
BRANCH   3   4
HETATM    4  C   UNL     1      -8.145  15.399  67.285  1.00  0.00    -0.228 A  
HETATM    5  C   UNL     1      -8.983  14.317  66.796  1.00  0.00    -0.227 A  
HETATM    6  N   UNL     1      -8.798  12.862  66.964  1.00  0.00    -0.211 NA 
HETATM    7  O   UNL     1     -10.950  18.808  65.311  1.00  0.00    -0.531 OA 
HETATM    8  C   UNL     1      -9.774  11.959  66.436  1.00  0.00    -0.221 C  
HETATM    9  C   UNL     1     -10.891  12.359  65.813  1.00  0.00    -0.312 C  
HETATM   10  O   UNL     1      -6.063  19.633  68.437  1.00  0.00    -0.224 OA 
HETATM   11  C   UNL     1      -9.788  10.454  66.601  1.00  0.00    -0.202 C  
HETATM   12  O   UNL     1     -10.273   9.749  65.546  1.00  0.00    -0.256 OA 
HETATM   13  C   UNL     1     -11.107  13.766  65.535  1.00  0.00    -0.298 C  
HETATM   14  O   UNL     1      -9.455   9.866  67.616  1.00  0.00    -0.145 OA 
HETATM   15  O   UNL     1     -12.086  14.096  64.874  1.00  0.00    -0.387 OA 
HETATM   16  C   UNL     1     -10.136  14.734  66.060  1.00  0.00    -0.327 A  
HETATM   17  C   UNL     1     -10.452  16.076  65.787  1.00  0.00    -0.391 A  
HETATM   18  C   UNL     1      -9.636  17.085  66.249  1.00  0.00    -0.289 A  
HETATM   19  C   UNL     1      -8.509  16.764  66.992  1.00  0.00    -0.199 A  
HETATM   20  O   UNL     1      -7.697  17.769  67.489  1.00  0.00    -0.202 OA 
HETATM   21  C   UNL     1      -8.001  19.099  67.208  1.00  0.00    -0.255 C  
HETATM   22  C   UNL     1      -7.090  20.154  67.733  1.00  0.00    -0.295 C  
HETATM   23  C   UNL     1      -9.062  19.504  66.497  1.00  0.00    -0.416 C  
HETATM   24  O   UNL     1      -7.236  21.353  67.555  1.00  0.00    -0.499 OA 
HETATM   25  C   UNL     1      -9.967  18.488  65.965  1.00  0.00    -0.222 C  
BRANCH   6  26
HETATM   26  C   UNL     1      -7.525  12.500  67.614  1.00  0.00    -0.139 C  
HETATM   27  C   UNL     1      -6.380  11.787  66.936  1.00  0.00    -0.131 C  
ENDBRANCH   6  26
ENDBRANCH   3   4
ENDBRANCH   2   3
TORSDOF 3
ENDMDL
MODEL       29
REMARK 921   NORMALIZED FREE ENERGY PREDICTED BY IDOCK:   -5.97 KCAL/MOL
REMARK 922        TOTAL FREE ENERGY PREDICTED BY IDOCK:   -7.49 KCAL/MOL
REMARK 923 INTER-LIGAND FREE ENERGY PREDICTED BY IDOCK:   -7.10 KCAL/MOL
REMARK 924 INTRA-LIGAND FREE ENERGY PREDICTED BY IDOCK:   -0.39 KCAL/MOL
REMARK 927      BINDING AFFINITY PREDICTED BY RF-SCORE:    0.00 PKD
ROOT
HETATM    1  C   UNL     1      -9.852  10.267  65.178  1.00  0.00    -0.389 C  
HETATM    2  C   UNL     1     -10.533  10.802  66.429  1.00  0.00    -0.293 C  
ENDROOT
BRANCH   2   3
HETATM    3  C   UNL     1      -9.642  10.621  67.665  1.00  0.00    -0.178 C  
BRANCH   3   4
HETATM    4  C   UNL     1     -10.449  10.310  68.929  1.00  0.00    -0.231 A  
HETATM    5  C   UNL     1     -10.529   9.061  69.666  1.00  0.00    -0.222 A  
HETATM    6  N   UNL     1      -9.911   7.760  69.341  1.00  0.00    -0.173 NA 
HETATM    7  O   UNL     1     -13.291  12.642  72.071  1.00  0.00    -0.502 OA 
HETATM    8  C   UNL     1     -10.079   6.654  70.233  1.00  0.00    -0.179 C  
HETATM    9  C   UNL     1     -10.749   6.733  71.391  1.00  0.00    -0.253 C  
HETATM   10  O   UNL     1     -10.807  14.852  67.245  1.00  0.00    -0.291 OA 
HETATM   11  C   UNL     1      -9.439   5.288  70.101  1.00  0.00    -0.160 C  
HETATM   12  O   UNL     1     -10.191   4.241  70.530  1.00  0.00    -0.135 OA 
HETATM   13  C   UNL     1     -11.455   7.950  71.744  1.00  0.00    -0.269 C  
HETATM   14  O   UNL     1      -8.305   5.090  69.701  1.00  0.00    -0.086 OA 
HETATM   15  O   UNL     1     -12.144   7.963  72.758  1.00  0.00    -0.255 OA 
HETATM   16  C   UNL     1     -11.309   9.116  70.863  1.00  0.00    -0.359 A  
HETATM   17  C   UNL     1     -11.985  10.265  71.308  1.00  0.00    -0.457 A  
HETATM   18  C   UNL     1     -11.906  11.435  70.587  1.00  0.00    -0.327 A  
HETATM   19  C   UNL     1     -11.149  11.470  69.425  1.00  0.00    -0.226 A  
HETATM   20  O   UNL     1     -11.036  12.648  68.706  1.00  0.00    -0.240 OA 
HETATM   21  C   UNL     1     -11.715  13.784  69.140  1.00  0.00    -0.334 C  
HETATM   22  C   UNL     1     -11.596  15.026  68.327  1.00  0.00    -0.334 C  
HETATM   23  C   UNL     1     -12.473  13.845  70.243  1.00  0.00    -0.380 C  
HETATM   24  O   UNL     1     -12.143  16.086  68.588  1.00  0.00    -0.207 OA 
HETATM   25  C   UNL     1     -12.612  12.637  71.054  1.00  0.00    -0.262 C  
BRANCH   6  26
HETATM   26  C   UNL     1      -9.234   7.738  68.031  1.00  0.00    -0.138 C  
HETATM   27  C   UNL     1      -9.698   6.949  66.831  1.00  0.00    -0.222 C  
ENDBRANCH   6  26
ENDBRANCH   3   4
ENDBRANCH   2   3
TORSDOF 3
ENDMDL
MODEL       30
REMARK 921   NORMALIZED FREE ENERGY PREDICTED BY IDOCK:   -5.96 KCAL/MOL
REMARK 922        TOTAL FREE ENERGY PREDICTED BY IDOCK:   -7.49 KCAL/MOL
REMARK 923 INTER-LIGAND FREE ENERGY PREDICTED BY IDOCK:   -7.47 KCAL/MOL
REMARK 924 INTRA-LIGAND FREE ENERGY PREDICTED BY IDOCK:   -0.02 KCAL/MOL
REMARK 927      BINDING AFFINITY PREDICTED BY RF-SCORE:    0.00 PKD
ROOT
HETATM    1  C   UNL     1      -8.864  10.251  62.553  1.00  0.00    -0.258 C  
HETATM    2  C   UNL     1      -8.773   9.594  63.923  1.00  0.00    -0.241 C  
ENDROOT
BRANCH   2   3
HETATM    3  C   UNL     1      -9.889  10.092  64.851  1.00  0.00    -0.352 C  
BRANCH   3   4
HETATM    4  C   UNL     1      -9.400  11.156  65.838  1.00  0.00    -0.235 A  
HETATM    5  C   UNL     1      -9.721  12.572  65.873  1.00  0.00    -0.219 A  
HETATM    6  N   UNL     1     -10.540  13.353  64.924  1.00  0.00    -0.362 NA 
HETATM    7  O   UNL     1      -6.711  11.405  69.850  1.00  0.00    -0.122 OA 
HETATM    8  C   UNL     1     -10.772  14.744  65.168  1.00  0.00    -0.415 C  
HETATM    9  C   UNL     1     -10.312  15.392  66.247  1.00  0.00    -0.304 C  
HETATM   10  O   UNL     1      -7.783   6.641  66.609  1.00  0.00    -0.098 OA 
HETATM   11  C   UNL     1     -11.659  15.663  64.355  1.00  0.00    -0.249 C  
HETATM   12  O   UNL     1     -11.238  16.950  64.253  1.00  0.00    -1.204 OA 
HETATM   13  C   UNL     1      -9.433  14.718  67.184  1.00  0.00    -0.227 C  
HETATM   14  O   UNL     1     -12.723  15.336  63.857  1.00  0.00    -0.732 OA 
HETATM   15  O   UNL     1      -8.944  15.362  68.106  1.00  0.00    -0.172 OA 
HETATM   16  C   UNL     1      -9.167  13.288  66.979  1.00  0.00    -0.237 A  
HETATM   17  C   UNL     1      -8.347  12.707  67.961  1.00  0.00    -0.175 A  
HETATM   18  C   UNL     1      -8.045  11.365  67.901  1.00  0.00    -0.126 A  
HETATM   19  C   UNL     1      -8.563  10.594  66.870  1.00  0.00    -0.126 A  
HETATM   20  O   UNL     1      -8.292   9.238  66.815  1.00  0.00    -0.120 OA 
HETATM   21  C   UNL     1      -7.470   8.662  67.780  1.00  0.00    -0.097 C  
HETATM   22  C   UNL     1      -7.174   7.206  67.674  1.00  0.00    -0.091 C  
HETATM   23  C   UNL     1      -6.920   9.325  68.807  1.00  0.00    -0.061 C  
HETATM   24  O   UNL     1      -6.465   6.580  68.446  1.00  0.00    -0.045 OA 
HETATM   25  C   UNL     1      -7.188  10.756  68.929  1.00  0.00    -0.088 C  
BRANCH   6  26
HETATM   26  C   UNL     1     -10.968  12.584  63.740  1.00  0.00    -0.447 C  
HETATM   27  C   UNL     1     -12.354  12.030  63.524  1.00  0.00    -0.661 C  
ENDBRANCH   6  26
ENDBRANCH   3   4
ENDBRANCH   2   3
TORSDOF 3
ENDMDL
MODEL       31
REMARK 921   NORMALIZED FREE ENERGY PREDICTED BY IDOCK:   -5.89 KCAL/MOL
REMARK 922        TOTAL FREE ENERGY PREDICTED BY IDOCK:   -7.40 KCAL/MOL
REMARK 923 INTER-LIGAND FREE ENERGY PREDICTED BY IDOCK:   -6.95 KCAL/MOL
REMARK 924 INTRA-LIGAND FREE ENERGY PREDICTED BY IDOCK:   -0.45 KCAL/MOL
REMARK 927      BINDING AFFINITY PREDICTED BY RF-SCORE:    0.00 PKD
ROOT
HETATM    1  C   UNL     1      -8.141   8.942  65.172  1.00  0.00    -0.133 C  
HETATM    2  C   UNL     1      -8.589   9.185  66.606  1.00  0.00    -0.135 C  
ENDROOT
BRANCH   2   3
HETATM    3  C   UNL     1     -10.093   8.925  66.767  1.00  0.00    -0.350 C  
BRANCH   3   4
HETATM    4  C   UNL     1     -10.570   9.122  68.209  1.00  0.00    -0.223 A  
HETATM    5  C   UNL     1     -10.521   8.179  69.313  1.00  0.00    -0.214 A  
HETATM    6  N   UNL     1     -10.067   6.774  69.304  1.00  0.00    -0.163 NA 
HETATM    7  O   UNL     1     -12.417  12.644  70.961  1.00  0.00    -0.368 OA 
HETATM    8  C   UNL     1     -10.057   6.026  70.524  1.00  0.00    -0.191 C  
HETATM    9  C   UNL     1     -10.410   6.540  71.710  1.00  0.00    -0.229 C  
HETATM   10  O   UNL     1     -11.125  12.935  65.253  1.00  0.00    -0.279 OA 
HETATM   11  C   UNL     1      -9.536   4.616  70.708  1.00  0.00    -0.181 C  
HETATM   12  O   UNL     1     -10.204   3.854  71.613  1.00  0.00    -0.136 OA 
HETATM   13  C   UNL     1     -10.946   7.886  71.791  1.00  0.00    -0.243 C  
HETATM   14  O   UNL     1      -8.549   4.164  70.153  1.00  0.00    -0.067 OA 
HETATM   15  O   UNL     1     -11.356   8.295  72.872  1.00  0.00    -0.342 OA 
HETATM   16  C   UNL     1     -10.972   8.697  70.568  1.00  0.00    -0.266 A  
HETATM   17  C   UNL     1     -11.459  10.002  70.750  1.00  0.00    -0.438 A  
HETATM   18  C   UNL     1     -11.509  10.875  69.686  1.00  0.00    -0.377 A  
HETATM   19  C   UNL     1     -11.067  10.456  68.439  1.00  0.00    -0.268 A  
HETATM   20  O   UNL     1     -11.083  11.333  67.368  1.00  0.00    -0.262 OA 
HETATM   21  C   UNL     1     -11.577  12.623  67.544  1.00  0.00    -0.359 C  
HETATM   22  C   UNL     1     -11.608  13.531  66.364  1.00  0.00    -0.350 C  
HETATM   23  C   UNL     1     -12.029  13.115  68.706  1.00  0.00    -0.316 C  
HETATM   24  O   UNL     1     -12.021  14.680  66.378  1.00  0.00    -0.356 OA 
HETATM   25  C   UNL     1     -12.016  12.241  69.878  1.00  0.00    -0.306 C  
BRANCH   6  26
HETATM   26  C   UNL     1      -9.743   6.267  67.958  1.00  0.00    -0.122 C  
HETATM   27  C   UNL     1     -10.644   5.389  67.125  1.00  0.00    -0.274 C  
ENDBRANCH   6  26
ENDBRANCH   3   4
ENDBRANCH   2   3
TORSDOF 3
ENDMDL
MODEL       32
REMARK 921   NORMALIZED FREE ENERGY PREDICTED BY IDOCK:   -5.79 KCAL/MOL
REMARK 922        TOTAL FREE ENERGY PREDICTED BY IDOCK:   -7.28 KCAL/MOL
REMARK 923 INTER-LIGAND FREE ENERGY PREDICTED BY IDOCK:   -6.98 KCAL/MOL
REMARK 924 INTRA-LIGAND FREE ENERGY PREDICTED BY IDOCK:   -0.30 KCAL/MOL
REMARK 927      BINDING AFFINITY PREDICTED BY RF-SCORE:    0.00 PKD
ROOT
HETATM    1  C   UNL     1     -13.325   9.536  72.408  1.00  0.00    -0.469 C  
HETATM    2  C   UNL     1     -13.044  10.365  71.164  1.00  0.00    -0.474 C  
ENDROOT
BRANCH   2   3
HETATM    3  C   UNL     1     -11.552  10.707  71.053  1.00  0.00    -0.222 C  
BRANCH   3   4
HETATM    4  C   UNL     1     -11.110  10.941  69.606  1.00  0.00    -0.328 A  
HETATM    5  C   UNL     1     -10.967  12.201  68.897  1.00  0.00    -0.224 A  
HETATM    6  N   UNL     1     -11.281  13.564  69.371  1.00  0.00    -0.225 NA 
HETATM    7  O   UNL     1      -9.514   8.351  65.846  1.00  0.00    -0.188 OA 
HETATM    8  C   UNL     1     -11.022  14.686  68.521  1.00  0.00    -0.252 C  
HETATM    9  C   UNL     1     -10.467  14.581  67.306  1.00  0.00    -0.266 C  
HETATM   10  O   UNL     1     -11.213   6.311  71.070  1.00  0.00    -0.288 OA 
HETATM   11  C   UNL     1     -11.194  16.146  68.884  1.00  0.00    -0.351 C  
HETATM   12  O   UNL     1     -11.597  16.961  67.874  1.00  0.00     0.106 OA 
HETATM   13  C   UNL     1     -10.205  13.273  66.734  1.00  0.00    -0.254 C  
HETATM   14  O   UNL     1     -10.942  16.622  69.978  1.00  0.00    -0.333 OA 
HETATM   15  O   UNL     1      -9.793  13.203  65.582  1.00  0.00    -0.246 OA 
HETATM   16  C   UNL     1     -10.450  12.090  67.569  1.00  0.00    -0.234 A  
HETATM   17  C   UNL     1     -10.121  10.871  66.952  1.00  0.00    -0.253 A  
HETATM   18  C   UNL     1     -10.277   9.687  67.638  1.00  0.00    -0.267 A  
HETATM   19  C   UNL     1     -10.752   9.711  68.942  1.00  0.00    -0.206 A  
HETATM   20  O   UNL     1     -10.885   8.532  69.653  1.00  0.00    -0.225 OA 
HETATM   21  C   UNL     1     -10.571   7.321  69.040  1.00  0.00    -0.201 C  
HETATM   22  C   UNL     1     -10.754   6.068  69.824  1.00  0.00    -0.330 C  
HETATM   23  C   UNL     1     -10.112   7.197  67.787  1.00  0.00    -0.215 C  
HETATM   24  O   UNL     1     -10.525   4.944  69.406  1.00  0.00    -0.167 OA 
HETATM   25  C   UNL     1      -9.932   8.411  66.994  1.00  0.00    -0.253 C  
BRANCH   6  26
HETATM   26  C   UNL     1     -11.933  13.594  70.694  1.00  0.00    -0.252 C  
HETATM   27  C   UNL     1     -13.229  14.302  71.003  1.00  0.00    -0.367 C  
ENDBRANCH   6  26
ENDBRANCH   3   4
ENDBRANCH   2   3
TORSDOF 3
ENDMDL
MODEL       33
REMARK 921   NORMALIZED FREE ENERGY PREDICTED BY IDOCK:   -5.78 KCAL/MOL
REMARK 922        TOTAL FREE ENERGY PREDICTED BY IDOCK:   -7.27 KCAL/MOL
REMARK 923 INTER-LIGAND FREE ENERGY PREDICTED BY IDOCK:   -6.84 KCAL/MOL
REMARK 924 INTRA-LIGAND FREE ENERGY PREDICTED BY IDOCK:   -0.43 KCAL/MOL
REMARK 927      BINDING AFFINITY PREDICTED BY RF-SCORE:    0.00 PKD
ROOT
HETATM    1  C   UNL     1      -6.723  15.588  69.140  1.00  0.00    -0.145 C  
HETATM    2  C   UNL     1      -7.119  14.458  68.203  1.00  0.00    -0.126 C  
ENDROOT
BRANCH   2   3
HETATM    3  C   UNL     1      -8.380  13.741  68.702  1.00  0.00    -0.067 C  
BRANCH   3   4
HETATM    4  C   UNL     1      -8.970  12.793  67.653  1.00  0.00    -0.191 A  
HETATM    5  C   UNL     1      -9.812  13.117  66.515  1.00  0.00    -0.265 A  
HETATM    6  N   UNL     1     -10.369  14.428  66.126  1.00  0.00    -0.288 NA 
HETATM    7  O   UNL     1      -8.782   8.099  66.506  1.00  0.00    -0.130 OA 
HETATM    8  C   UNL     1     -11.147  14.539  64.930  1.00  0.00    -0.394 C  
HETATM    9  C   UNL     1     -11.379  13.513  64.100  1.00  0.00    -0.370 C  
HETATM   10  O   UNL     1      -6.206  10.723  71.069  1.00  0.00    -0.350 OA 
HETATM   11  C   UNL     1     -11.708  15.816  64.339  1.00  0.00    -0.201 C  
HETATM   12  O   UNL     1     -12.908  15.698  63.714  1.00  0.00    -0.536 OA 
HETATM   13  C   UNL     1     -10.937  12.177  64.451  1.00  0.00    -0.326 C  
HETATM   14  O   UNL     1     -11.133  16.891  64.341  1.00  0.00    -1.128 OA 
HETATM   15  O   UNL     1     -11.251  11.239  63.726  1.00  0.00    -0.359 OA 
HETATM   16  C   UNL     1     -10.131  12.010  65.667  1.00  0.00    -0.272 A  
HETATM   17  C   UNL     1      -9.705  10.692  65.902  1.00  0.00    -0.273 A  
HETATM   18  C   UNL     1      -8.918  10.405  66.995  1.00  0.00    -0.150 A  
HETATM   19  C   UNL     1      -8.545  11.429  67.854  1.00  0.00    -0.140 A  
HETATM   20  O   UNL     1      -7.729  11.161  68.939  1.00  0.00    -0.131 OA 
HETATM   21  C   UNL     1      -7.315   9.853  69.180  1.00  0.00    -0.083 C  
HETATM   22  C   UNL     1      -6.462   9.594  70.373  1.00  0.00    -0.088 C  
HETATM   23  C   UNL     1      -7.628   8.800  68.412  1.00  0.00    -0.095 C  
HETATM   24  O   UNL     1      -6.039   8.497  70.704  1.00  0.00    -0.031 OA 
HETATM   25  C   UNL     1      -8.470   9.027  67.239  1.00  0.00    -0.114 C  
BRANCH   6  26
HETATM   26  C   UNL     1     -10.114  15.494  67.112  1.00  0.00    -0.254 C  
HETATM   27  C   UNL     1     -11.091  15.947  68.169  1.00  0.00    -0.338 C  
ENDBRANCH   6  26
ENDBRANCH   3   4
ENDBRANCH   2   3
TORSDOF 3
ENDMDL
MODEL       34
REMARK 921   NORMALIZED FREE ENERGY PREDICTED BY IDOCK:   -5.78 KCAL/MOL
REMARK 922        TOTAL FREE ENERGY PREDICTED BY IDOCK:   -7.26 KCAL/MOL
REMARK 923 INTER-LIGAND FREE ENERGY PREDICTED BY IDOCK:   -6.85 KCAL/MOL
REMARK 924 INTRA-LIGAND FREE ENERGY PREDICTED BY IDOCK:   -0.41 KCAL/MOL
REMARK 927      BINDING AFFINITY PREDICTED BY RF-SCORE:    0.00 PKD
ROOT
HETATM    1  C   UNL     1     -10.328   8.674  69.819  1.00  0.00    -0.212 C  
HETATM    2  C   UNL     1     -10.557  10.174  69.709  1.00  0.00    -0.298 C  
ENDROOT
BRANCH   2   3
HETATM    3  C   UNL     1     -11.595  10.498  68.626  1.00  0.00    -0.241 C  
BRANCH   3   4
HETATM    4  C   UNL     1     -11.359  11.865  67.977  1.00  0.00    -0.352 A  
HETATM    5  C   UNL     1     -10.828  12.159  66.657  1.00  0.00    -0.268 A  
HETATM    6  N   UNL     1     -10.317  11.219  65.641  1.00  0.00    -0.249 NA 
HETATM    7  O   UNL     1     -12.117  16.531  68.995  1.00  0.00     0.103 OA 
HETATM    8  C   UNL     1      -9.876  11.717  64.374  1.00  0.00    -0.223 C  
HETATM    9  C   UNL     1      -9.932  13.010  64.028  1.00  0.00     0.136 C  
HETATM   10  O   UNL     1     -13.243  11.936  72.453  1.00  0.00    -0.329 OA 
HETATM   11  C   UNL     1      -9.417  10.888  63.193  1.00  0.00    -0.341 C  
HETATM   12  O   UNL     1      -8.433  11.437  62.435  1.00  0.00    -0.269 OA 
HETATM   13  C   UNL     1     -10.343  14.008  64.998  1.00  0.00    -0.409 C  
HETATM   14  O   UNL     1      -9.907   9.821  62.863  1.00  0.00     0.215 OA 
HETATM   15  O   UNL     1     -10.287  15.193  64.689  1.00  0.00    -0.242 OA 
HETATM   16  C   UNL     1     -10.809  13.547  66.312  1.00  0.00    -0.291 A  
HETATM   17  C   UNL     1     -11.235  14.576  67.168  1.00  0.00    -0.341 A  
HETATM   18  C   UNL     1     -11.723  14.275  68.420  1.00  0.00    -0.373 A  
HETATM   19  C   UNL     1     -11.795  12.949  68.823  1.00  0.00    -0.315 A  
HETATM   20  O   UNL     1     -12.312  12.630  70.067  1.00  0.00    -0.208 OA 
HETATM   21  C   UNL     1     -12.723  13.650  70.921  1.00  0.00    -0.310 C  
HETATM   22  C   UNL     1     -13.245  13.273  72.264  1.00  0.00    -0.467 C  
HETATM   23  C   UNL     1     -12.685  14.956  70.623  1.00  0.00    -0.422 C  
HETATM   24  O   UNL     1     -13.631  14.065  73.110  1.00  0.00    -0.551 OA 
HETATM   25  C   UNL     1     -12.170  15.352  69.315  1.00  0.00    -0.188 C  
BRANCH   6  26
HETATM   26  C   UNL     1     -10.241   9.823  66.112  1.00  0.00    -0.208 C  
HETATM   27  C   UNL     1      -8.967   9.028  66.259  1.00  0.00    -0.199 C  
ENDBRANCH   6  26
ENDBRANCH   3   4
ENDBRANCH   2   3
TORSDOF 3
ENDMDL
MODEL       35
REMARK 921   NORMALIZED FREE ENERGY PREDICTED BY IDOCK:   -5.76 KCAL/MOL
REMARK 922        TOTAL FREE ENERGY PREDICTED BY IDOCK:   -7.24 KCAL/MOL
REMARK 923 INTER-LIGAND FREE ENERGY PREDICTED BY IDOCK:   -7.00 KCAL/MOL
REMARK 924 INTRA-LIGAND FREE ENERGY PREDICTED BY IDOCK:   -0.24 KCAL/MOL
REMARK 927      BINDING AFFINITY PREDICTED BY RF-SCORE:    0.00 PKD
ROOT
HETATM    1  C   UNL     1     -12.558  12.266  63.337  1.00  0.00    -0.545 C  
HETATM    2  C   UNL     1     -11.944  12.915  64.568  1.00  0.00    -0.452 C  
ENDROOT
BRANCH   2   3
HETATM    3  C   UNL     1     -10.415  12.985  64.454  1.00  0.00    -0.426 C  
BRANCH   3   4
HETATM    4  C   UNL     1      -9.720  12.884  65.814  1.00  0.00    -0.155 A  
HETATM    5  C   UNL     1      -9.145  11.711  66.450  1.00  0.00    -0.206 A  
HETATM    6  N   UNL     1      -9.151  10.313  65.978  1.00  0.00    -0.156 NA 
HETATM    7  O   UNL     1      -8.337  15.822  69.398  1.00  0.00    -0.244 OA 
HETATM    8  C   UNL     1      -8.481   9.305  66.741  1.00  0.00    -0.127 C  
HETATM    9  C   UNL     1      -7.802   9.560  67.868  1.00  0.00    -0.091 C  
HETATM   10  O   UNL     1     -11.265  17.310  64.545  1.00  0.00    -1.083 OA 
HETATM   11  C   UNL     1      -8.309   7.851  66.355  1.00  0.00    -0.129 C  
HETATM   12  O   UNL     1      -8.328   6.962  67.382  1.00  0.00    -0.120 OA 
HETATM   13  C   UNL     1      -7.816  10.892  68.443  1.00  0.00    -0.123 C  
HETATM   14  O   UNL     1      -8.103   7.455  65.221  1.00  0.00    -0.121 OA 
HETATM   15  O   UNL     1      -7.273  11.075  69.527  1.00  0.00    -0.130 OA 
HETATM   16  C   UNL     1      -8.487  11.963  67.694  1.00  0.00    -0.156 A  
HETATM   17  C   UNL     1      -8.407  13.228  68.301  1.00  0.00    -0.154 A  
HETATM   18  C   UNL     1      -8.971  14.324  67.687  1.00  0.00    -0.194 A  
HETATM   19  C   UNL     1      -9.609  14.167  66.464  1.00  0.00    -0.296 A  
HETATM   20  O   UNL     1     -10.153  15.266  65.821  1.00  0.00    -0.304 OA 
HETATM   21  C   UNL     1     -10.086  16.519  66.425  1.00  0.00    -0.312 C  
HETATM   22  C   UNL     1     -10.709  17.673  65.720  1.00  0.00    -0.110 C  
HETATM   23  C   UNL     1      -9.498  16.766  67.604  1.00  0.00    -0.234 C  
HETATM   24  O   UNL     1     -10.728  18.820  66.141  1.00  0.00    -0.393 OA 
HETATM   25  C   UNL     1      -8.887  15.648  68.320  1.00  0.00    -0.180 C  
BRANCH   6  26
HETATM   26  C   UNL     1      -9.958  10.104  64.761  1.00  0.00    -0.264 C  
HETATM   27  C   UNL     1      -9.403  10.020  63.360  1.00  0.00    -0.300 C  
ENDBRANCH   6  26
ENDBRANCH   3   4
ENDBRANCH   2   3
TORSDOF 3
ENDMDL
MODEL       36
REMARK 921   NORMALIZED FREE ENERGY PREDICTED BY IDOCK:   -5.75 KCAL/MOL
REMARK 922        TOTAL FREE ENERGY PREDICTED BY IDOCK:   -7.23 KCAL/MOL
REMARK 923 INTER-LIGAND FREE ENERGY PREDICTED BY IDOCK:   -6.84 KCAL/MOL
REMARK 924 INTRA-LIGAND FREE ENERGY PREDICTED BY IDOCK:   -0.39 KCAL/MOL
REMARK 927      BINDING AFFINITY PREDICTED BY RF-SCORE:    0.00 PKD
ROOT
HETATM    1  C   UNL     1      -6.261  12.485  69.194  1.00  0.00    -0.094 C  
HETATM    2  C   UNL     1      -6.917  13.848  69.032  1.00  0.00    -0.109 C  
ENDROOT
BRANCH   2   3
HETATM    3  C   UNL     1      -6.796  14.354  67.588  1.00  0.00    -0.202 C  
BRANCH   3   4
HETATM    4  C   UNL     1      -8.037  15.125  67.131  1.00  0.00    -0.245 A  
HETATM    5  C   UNL     1      -8.185  16.555  66.919  1.00  0.00    -0.215 A  
HETATM    6  N   UNL     1      -7.200  17.627  67.161  1.00  0.00    -0.175 NA 
HETATM    7  O   UNL     1     -12.547  14.180  65.664  1.00  0.00    -0.487 OA 
HETATM    8  C   UNL     1      -7.535  18.981  66.840  1.00  0.00    -0.219 C  
HETATM    9  C   UNL     1      -8.701  19.343  66.288  1.00  0.00    -0.364 C  
HETATM   10  O   UNL     1      -8.543  10.307  67.485  1.00  0.00    -0.119 OA 
HETATM   11  C   UNL     1      -6.616  20.181  66.935  1.00  0.00    -0.217 C  
HETATM   12  O   UNL     1      -7.208  21.350  67.291  1.00  0.00    -0.538 OA 
HETATM   13  C   UNL     1      -9.753  18.363  66.095  1.00  0.00    -0.229 C  
HETATM   14  O   UNL     1      -5.428  20.166  66.660  1.00  0.00    -0.170 OA 
HETATM   15  O   UNL     1     -10.845  18.739  65.683  1.00  0.00    -0.424 OA 
HETATM   16  C   UNL     1      -9.457  16.958  66.405  1.00  0.00    -0.306 A  
HETATM   17  C   UNL     1     -10.515  16.073  66.140  1.00  0.00    -0.334 A  
HETATM   18  C   UNL     1     -10.357  14.723  66.360  1.00  0.00    -0.297 A  
HETATM   19  C   UNL     1      -9.144  14.248  66.837  1.00  0.00    -0.252 A  
HETATM   20  O   UNL     1      -8.961  12.890  67.034  1.00  0.00    -0.213 OA 
HETATM   21  C   UNL     1     -10.012  12.011  66.784  1.00  0.00    -0.201 C  
HETATM   22  C   UNL     1      -9.791  10.560  67.035  1.00  0.00    -0.183 C  
HETATM   23  C   UNL     1     -11.219  12.377  66.329  1.00  0.00    -0.361 C  
HETATM   24  O   UNL     1     -10.628   9.687  66.865  1.00  0.00    -0.228 OA 
HETATM   25  C   UNL     1     -11.463  13.796  66.081  1.00  0.00    -0.338 C  
BRANCH   6  26
HETATM   26  C   UNL     1      -5.964  17.158  67.814  1.00  0.00    -0.127 C  
HETATM   27  C   UNL     1      -5.619  17.373  69.267  1.00  0.00    -0.193 C  
ENDBRANCH   6  26
ENDBRANCH   3   4
ENDBRANCH   2   3
TORSDOF 3
ENDMDL
MODEL       37
REMARK 921   NORMALIZED FREE ENERGY PREDICTED BY IDOCK:   -5.69 KCAL/MOL
REMARK 922        TOTAL FREE ENERGY PREDICTED BY IDOCK:   -7.17 KCAL/MOL
REMARK 923 INTER-LIGAND FREE ENERGY PREDICTED BY IDOCK:   -6.71 KCAL/MOL
REMARK 924 INTRA-LIGAND FREE ENERGY PREDICTED BY IDOCK:   -0.46 KCAL/MOL
REMARK 927      BINDING AFFINITY PREDICTED BY RF-SCORE:    0.00 PKD
ROOT
HETATM    1  C   UNL     1      -7.195  15.863  67.504  1.00  0.00    -0.204 C  
HETATM    2  C   UNL     1      -7.185  14.343  67.438  1.00  0.00    -0.148 C  
ENDROOT
BRANCH   2   3
HETATM    3  C   UNL     1      -8.406  13.750  68.154  1.00  0.00    -0.165 C  
BRANCH   3   4
HETATM    4  C   UNL     1      -8.988  12.541  67.417  1.00  0.00    -0.188 A  
HETATM    5  C   UNL     1      -8.818  11.130  67.718  1.00  0.00    -0.135 A  
HETATM    6  N   UNL     1      -7.984  10.508  68.766  1.00  0.00    -0.118 NA 
HETATM    7  O   UNL     1     -11.998  11.653  63.737  1.00  0.00    -0.384 OA 
HETATM    8  C   UNL     1      -7.992   9.085  68.925  1.00  0.00    -0.100 C  
HETATM    9  C   UNL     1      -8.753   8.264  68.190  1.00  0.00    -0.136 C  
HETATM   10  O   UNL     1     -10.203  16.896  65.643  1.00  0.00    -0.542 OA 
HETATM   11  C   UNL     1      -7.276   8.298  70.002  1.00  0.00    -0.059 C  
HETATM   12  O   UNL     1      -6.804   7.080  69.626  1.00  0.00    -0.048 OA 
HETATM   13  C   UNL     1      -9.538   8.787  67.087  1.00  0.00    -0.175 C  
HETATM   14  O   UNL     1      -7.156   8.658  71.160  1.00  0.00    -0.065 OA 
HETATM   15  O   UNL     1     -10.145   8.002  66.367  1.00  0.00    -0.227 OA 
HETATM   16  C   UNL     1      -9.566  10.241  66.885  1.00  0.00    -0.211 A  
HETATM   17  C   UNL     1     -10.390  10.661  65.827  1.00  0.00    -0.287 A  
HETATM   18  C   UNL     1     -10.527  12.003  65.551  1.00  0.00    -0.307 A  
HETATM   19  C   UNL     1      -9.851  12.932  66.329  1.00  0.00    -0.273 A  
HETATM   20  O   UNL     1     -10.004  14.286  66.081  1.00  0.00    -0.290 OA 
HETATM   21  C   UNL     1     -10.811  14.704  65.026  1.00  0.00    -0.417 C  
HETATM   22  C   UNL     1     -10.928  16.166  64.768  1.00  0.00    -0.313 C  
HETATM   23  C   UNL     1     -11.496  13.883  64.218  1.00  0.00    -0.336 C  
HETATM   24  O   UNL     1     -11.594  16.666  63.874  1.00  0.00    -1.204 OA 
HETATM   25  C   UNL     1     -11.391  12.444  64.446  1.00  0.00    -0.340 C  
BRANCH   6  26
HETATM   26  C   UNL     1      -7.139  11.470  69.498  1.00  0.00     0.018 C  
HETATM   27  C   UNL     1      -5.636  11.548  69.403  1.00  0.00    -0.056 C  
ENDBRANCH   6  26
ENDBRANCH   3   4
ENDBRANCH   2   3
TORSDOF 3
ENDMDL
MODEL       38
REMARK 921   NORMALIZED FREE ENERGY PREDICTED BY IDOCK:   -5.68 KCAL/MOL
REMARK 922        TOTAL FREE ENERGY PREDICTED BY IDOCK:   -7.15 KCAL/MOL
REMARK 923 INTER-LIGAND FREE ENERGY PREDICTED BY IDOCK:   -6.86 KCAL/MOL
REMARK 924 INTRA-LIGAND FREE ENERGY PREDICTED BY IDOCK:   -0.29 KCAL/MOL
REMARK 927      BINDING AFFINITY PREDICTED BY RF-SCORE:    0.00 PKD
ROOT
HETATM    1  C   UNL     1      -7.564   7.319  65.371  1.00  0.00    -0.100 C  
HETATM    2  C   UNL     1      -8.177   7.830  66.666  1.00  0.00    -0.123 C  
ENDROOT
BRANCH   2   3
HETATM    3  C   UNL     1      -9.699   7.633  66.674  1.00  0.00    -0.283 C  
BRANCH   3   4
HETATM    4  C   UNL     1     -10.403   8.540  67.688  1.00  0.00    -0.317 A  
HETATM    5  C   UNL     1     -10.756   8.250  69.067  1.00  0.00    -0.079 A  
HETATM    6  N   UNL     1     -10.592   6.987  69.812  1.00  0.00    -0.226 NA 
HETATM    7  O   UNL     1     -12.032  13.086  67.955  1.00  0.00    -0.350 OA 
HETATM    8  C   UNL     1     -10.968   6.925  71.192  1.00  0.00    -0.251 C  
HETATM    9  C   UNL     1     -11.440   7.976  71.877  1.00  0.00    -0.341 C  
HETATM   10  O   UNL     1      -9.612  10.472  63.302  1.00  0.00    -0.292 OA 
HETATM   11  C   UNL     1     -10.778   5.746  72.123  1.00  0.00    -0.231 C  
HETATM   12  O   UNL     1     -11.746   5.573  73.060  1.00  0.00    -0.242 OA 
HETATM   13  C   UNL     1     -11.708   9.229  71.198  1.00  0.00    -0.325 C  
HETATM   14  O   UNL     1      -9.809   5.007  72.115  1.00  0.00    -0.159 OA 
HETATM   15  O   UNL     1     -12.235  10.142  71.825  1.00  0.00    -0.374 OA 
HETATM   16  C   UNL     1     -11.335   9.345  69.782  1.00  0.00    -0.071 A  
HETATM   17  C   UNL     1     -11.585  10.608  69.221  1.00  0.00    -0.346 A  
HETATM   18  C   UNL     1     -11.254  10.857  67.907  1.00  0.00    -0.387 A  
HETATM   19  C   UNL     1     -10.666   9.853  67.150  1.00  0.00    -0.207 A  
HETATM   20  O   UNL     1     -10.300  10.099  65.838  1.00  0.00    -0.229 OA 
HETATM   21  C   UNL     1     -10.557  11.346  65.275  1.00  0.00    -0.277 C  
HETATM   22  C   UNL     1     -10.179  11.567  63.852  1.00  0.00    -0.362 C  
HETATM   23  C   UNL     1     -11.125  12.373  65.924  1.00  0.00    -0.349 C  
HETATM   24  O   UNL     1     -10.355  12.607  63.237  1.00  0.00    -0.308 OA 
HETATM   25  C   UNL     1     -11.513  12.179  67.320  1.00  0.00    -0.345 C  
BRANCH   6  26
HETATM   26  C   UNL     1     -10.115   5.867  68.980  1.00  0.00    -0.185 C  
HETATM   27  C   UNL     1      -8.769   5.199  69.118  1.00  0.00    -0.103 C  
ENDBRANCH   6  26
ENDBRANCH   3   4
ENDBRANCH   2   3
TORSDOF 3
ENDMDL
MODEL       39
REMARK 921   NORMALIZED FREE ENERGY PREDICTED BY IDOCK:   -5.67 KCAL/MOL
REMARK 922        TOTAL FREE ENERGY PREDICTED BY IDOCK:   -7.14 KCAL/MOL
REMARK 923 INTER-LIGAND FREE ENERGY PREDICTED BY IDOCK:   -6.71 KCAL/MOL
REMARK 924 INTRA-LIGAND FREE ENERGY PREDICTED BY IDOCK:   -0.43 KCAL/MOL
REMARK 927      BINDING AFFINITY PREDICTED BY RF-SCORE:    0.00 PKD
ROOT
HETATM    1  C   UNL     1     -10.122  11.015  63.413  1.00  0.00    -0.424 C  
HETATM    2  C   UNL     1      -9.753  10.329  64.720  1.00  0.00    -0.397 C  
ENDROOT
BRANCH   2   3
HETATM    3  C   UNL     1     -10.458  10.992  65.911  1.00  0.00    -0.300 C  
BRANCH   3   4
HETATM    4  C   UNL     1      -9.501  11.820  66.773  1.00  0.00    -0.202 A  
HETATM    5  C   UNL     1      -8.535  11.354  67.753  1.00  0.00    -0.128 A  
HETATM    6  N   UNL     1      -8.286   9.974  68.215  1.00  0.00    -0.109 NA 
HETATM    7  O   UNL     1      -8.203  16.447  67.315  1.00  0.00    -0.155 OA 
HETATM    8  C   UNL     1      -7.246   9.722  69.165  1.00  0.00    -0.073 C  
HETATM    9  C   UNL     1      -6.440  10.677  69.649  1.00  0.00    -0.096 C  
HETATM   10  O   UNL     1     -12.325  14.335  63.725  1.00  0.00    -0.735 OA 
HETATM   11  C   UNL     1      -6.798   8.366  69.669  1.00  0.00    -0.044 C  
HETATM   12  O   UNL     1      -6.387   8.325  70.963  1.00  0.00    -0.036 OA 
HETATM   13  C   UNL     1      -6.671  12.069  69.309  1.00  0.00    -0.093 C  
HETATM   14  O   UNL     1      -6.732   7.361  68.984  1.00  0.00    -0.049 OA 
HETATM   15  O   UNL     1      -5.984  12.931  69.845  1.00  0.00    -0.118 OA 
HETATM   16  C   UNL     1      -7.724  12.378  68.333  1.00  0.00    -0.144 A  
HETATM   17  C   UNL     1      -7.843  13.744  68.026  1.00  0.00    -0.152 A  
HETATM   18  C   UNL     1      -8.774  14.165  67.104  1.00  0.00    -0.239 A  
HETATM   19  C   UNL     1      -9.585  13.229  66.477  1.00  0.00    -0.264 A  
HETATM   20  O   UNL     1     -10.505  13.635  65.526  1.00  0.00    -0.287 OA 
HETATM   21  C   UNL     1     -10.633  14.990  65.228  1.00  0.00    -0.397 C  
HETATM   22  C   UNL     1     -11.653  15.395  64.222  1.00  0.00    -0.191 C  
HETATM   23  C   UNL     1      -9.900  15.965  65.784  1.00  0.00    -0.380 C  
HETATM   24  O   UNL     1     -11.873  16.546  63.875  1.00  0.00    -1.059 OA 
HETATM   25  C   UNL     1      -8.898  15.594  66.780  1.00  0.00    -0.272 C  
BRANCH   6  26
HETATM   26  C   UNL     1      -9.243   8.989  67.677  1.00  0.00    -0.136 C  
HETATM   27  C   UNL     1     -10.298   8.277  68.487  1.00  0.00    -0.230 C  
ENDBRANCH   6  26
ENDBRANCH   3   4
ENDBRANCH   2   3
TORSDOF 3
ENDMDL
MODEL       40
REMARK 921   NORMALIZED FREE ENERGY PREDICTED BY IDOCK:   -5.66 KCAL/MOL
REMARK 922        TOTAL FREE ENERGY PREDICTED BY IDOCK:   -7.13 KCAL/MOL
REMARK 923 INTER-LIGAND FREE ENERGY PREDICTED BY IDOCK:   -6.66 KCAL/MOL
REMARK 924 INTRA-LIGAND FREE ENERGY PREDICTED BY IDOCK:   -0.47 KCAL/MOL
REMARK 927      BINDING AFFINITY PREDICTED BY RF-SCORE:    0.00 PKD
ROOT
HETATM    1  C   UNL     1     -12.766  11.064  71.195  1.00  0.00    -0.521 C  
HETATM    2  C   UNL     1     -12.244  12.128  70.241  1.00  0.00    -0.344 C  
ENDROOT
BRANCH   2   3
HETATM    3  C   UNL     1     -11.796  11.508  68.910  1.00  0.00    -0.406 C  
BRANCH   3   4
HETATM    4  C   UNL     1     -10.303  11.712  68.642  1.00  0.00    -0.229 A  
HETATM    5  C   UNL     1      -9.635  12.878  68.089  1.00  0.00    -0.223 A  
HETATM    6  N   UNL     1     -10.235  14.127  67.583  1.00  0.00    -0.239 NA 
HETATM    7  O   UNL     1      -6.146   9.337  69.328  1.00  0.00    -0.040 OA 
HETATM    8  C   UNL     1      -9.387  15.182  67.118  1.00  0.00    -0.212 C  
HETATM    9  C   UNL     1      -8.049  15.121  67.145  1.00  0.00    -0.245 C  
HETATM   10  O   UNL     1     -11.545   7.435  70.580  1.00  0.00    -0.291 OA 
HETATM   11  C   UNL     1      -9.831  16.555  66.659  1.00  0.00    -0.268 C  
HETATM   12  O   UNL     1      -9.099  17.106  65.655  1.00  0.00    -0.500 OA 
HETATM   13  C   UNL     1      -7.382  13.899  67.551  1.00  0.00    -0.166 C  
HETATM   14  O   UNL     1     -10.738  17.195  67.163  1.00  0.00    -0.284 OA 
HETATM   15  O   UNL     1      -6.160  13.835  67.470  1.00  0.00    -0.306 OA 
HETATM   16  C   UNL     1      -8.209  12.788  68.041  1.00  0.00    -0.168 A  
HETATM   17  C   UNL     1      -7.476  11.664  68.459  1.00  0.00    -0.113 A  
HETATM   18  C   UNL     1      -8.131  10.564  68.968  1.00  0.00    -0.143 A  
HETATM   19  C   UNL     1      -9.515  10.581  69.069  1.00  0.00    -0.201 A  
HETATM   20  O   UNL     1     -10.183   9.495  69.607  1.00  0.00    -0.193 OA 
HETATM   21  C   UNL     1      -9.461   8.375  70.011  1.00  0.00    -0.164 C  
HETATM   22  C   UNL     1     -10.214   7.211  70.556  1.00  0.00    -0.196 C  
HETATM   23  C   UNL     1      -8.126   8.264  69.945  1.00  0.00    -0.117 C  
HETATM   24  O   UNL     1      -9.706   6.168  70.938  1.00  0.00    -0.174 OA 
HETATM   25  C   UNL     1      -7.365   9.389  69.407  1.00  0.00    -0.078 C  
BRANCH   6  26
HETATM   26  C   UNL     1     -11.709  14.099  67.538  1.00  0.00    -0.386 C  
HETATM   27  C   UNL     1     -12.532  13.882  66.292  1.00  0.00    -0.454 C  
ENDBRANCH   6  26
ENDBRANCH   3   4
ENDBRANCH   2   3
TORSDOF 3
ENDMDL
MODEL       41
REMARK 921   NORMALIZED FREE ENERGY PREDICTED BY IDOCK:   -5.66 KCAL/MOL
REMARK 922        TOTAL FREE ENERGY PREDICTED BY IDOCK:   -7.13 KCAL/MOL
REMARK 923 INTER-LIGAND FREE ENERGY PREDICTED BY IDOCK:   -6.83 KCAL/MOL
REMARK 924 INTRA-LIGAND FREE ENERGY PREDICTED BY IDOCK:   -0.30 KCAL/MOL
REMARK 927      BINDING AFFINITY PREDICTED BY RF-SCORE:    0.00 PKD
ROOT
HETATM    1  C   UNL     1      -9.637   8.989  71.476  1.00  0.00    -0.340 C  
HETATM    2  C   UNL     1      -9.361   9.388  70.034  1.00  0.00    -0.253 C  
ENDROOT
BRANCH   2   3
HETATM    3  C   UNL     1     -10.497   8.935  69.107  1.00  0.00    -0.236 C  
BRANCH   3   4
HETATM    4  C   UNL     1     -10.165   9.142  67.627  1.00  0.00    -0.293 A  
HETATM    5  C   UNL     1     -10.529  10.254  66.766  1.00  0.00    -0.214 A  
HETATM    6  N   UNL     1     -11.371  11.425  67.083  1.00  0.00    -0.432 NA 
HETATM    7  O   UNL     1      -7.605   6.958  64.154  1.00  0.00    -0.097 OA 
HETATM    8  C   UNL     1     -11.572  12.440  66.095  1.00  0.00    -0.396 C  
HETATM    9  C   UNL     1     -11.003  12.414  64.882  1.00  0.00    -0.341 C  
HETATM   10  O   UNL     1      -8.422   5.082  69.645  1.00  0.00    -0.087 OA 
HETATM   11  C   UNL     1     -12.322  13.742  66.284  1.00  0.00    -0.433 C  
HETATM   12  O   UNL     1     -13.002  14.194  65.198  1.00  0.00    -0.729 OA 
HETATM   13  C   UNL     1     -10.229  11.261  64.463  1.00  0.00    -0.314 C  
HETATM   14  O   UNL     1     -12.299  14.413  67.302  1.00  0.00    -0.322 OA 
HETATM   15  O   UNL     1      -9.805  11.217  63.313  1.00  0.00    -0.318 OA 
HETATM   16  C   UNL     1      -9.990  10.193  65.443  1.00  0.00    -0.377 A  
HETATM   17  C   UNL     1      -9.190   9.141  64.967  1.00  0.00    -0.180 A  
HETATM   18  C   UNL     1      -8.868   8.090  65.797  1.00  0.00    -0.170 A  
HETATM   19  C   UNL     1      -9.333   8.086  67.104  1.00  0.00    -0.149 A  
HETATM   20  O   UNL     1      -8.991   7.051  67.958  1.00  0.00    -0.127 OA 
HETATM   21  C   UNL     1      -8.208   6.001  67.485  1.00  0.00    -0.106 C  
HETATM   22  C   UNL     1      -7.884   4.889  68.422  1.00  0.00    -0.082 C  
HETATM   23  C   UNL     1      -7.719   5.915  66.240  1.00  0.00    -0.102 C  
HETATM   24  O   UNL     1      -7.216   3.908  68.135  1.00  0.00    -0.057 OA 
HETATM   25  C   UNL     1      -8.029   6.990  65.300  1.00  0.00    -0.127 C  
BRANCH   6  26
HETATM   26  C   UNL     1     -12.001  11.357  68.415  1.00  0.00    -0.200 C  
HETATM   27  C   UNL     1     -11.644  12.240  69.585  1.00  0.00    -0.348 C  
ENDBRANCH   6  26
ENDBRANCH   3   4
ENDBRANCH   2   3
TORSDOF 3
ENDMDL
MODEL       42
REMARK 921   NORMALIZED FREE ENERGY PREDICTED BY IDOCK:   -5.64 KCAL/MOL
REMARK 922        TOTAL FREE ENERGY PREDICTED BY IDOCK:   -7.11 KCAL/MOL
REMARK 923 INTER-LIGAND FREE ENERGY PREDICTED BY IDOCK:   -6.69 KCAL/MOL
REMARK 924 INTRA-LIGAND FREE ENERGY PREDICTED BY IDOCK:   -0.42 KCAL/MOL
REMARK 927      BINDING AFFINITY PREDICTED BY RF-SCORE:    0.00 PKD
ROOT
HETATM    1  C   UNL     1      -7.640  12.255  67.291  1.00  0.00    -0.152 C  
HETATM    2  C   UNL     1      -7.622  13.700  67.768  1.00  0.00    -0.167 C  
ENDROOT
BRANCH   2   3
HETATM    3  C   UNL     1      -8.635  14.552  66.992  1.00  0.00    -0.241 C  
BRANCH   3   4
HETATM    4  C   UNL     1      -9.305  15.612  67.871  1.00  0.00    -0.195 A  
HETATM    5  C   UNL     1      -9.078  17.047  67.889  1.00  0.00    -0.232 A  
HETATM    6  N   UNL     1      -8.095  17.832  67.116  1.00  0.00    -0.210 NA 
HETATM    7  O   UNL     1     -12.805  15.866  71.199  1.00  0.00    -0.467 OA 
HETATM    8  C   UNL     1      -8.066  19.256  67.249  1.00  0.00    -0.265 C  
HETATM    9  C   UNL     1      -8.917  19.944  68.023  1.00  0.00    -0.352 C  
HETATM   10  O   UNL     1     -10.809  11.042  68.537  1.00  0.00    -0.184 OA 
HETATM   11  C   UNL     1      -7.193  20.214  66.465  1.00  0.00    -0.262 C  
HETATM   12  O   UNL     1      -6.768  21.313  67.142  1.00  0.00    -0.455 OA 
HETATM   13  C   UNL     1      -9.857  19.243  68.876  1.00  0.00    -0.446 C  
HETATM   14  O   UNL     1      -6.912  20.087  65.286  1.00  0.00    -0.307 OA 
HETATM   15  O   UNL     1     -10.554  19.892  69.649  1.00  0.00     0.134 OA 
HETATM   16  C   UNL     1      -9.930  17.780  68.773  1.00  0.00    -0.367 A  
HETATM   17  C   UNL     1     -10.902  17.190  69.598  1.00  0.00     0.156 A  
HETATM   18  C   UNL     1     -11.091  15.826  69.575  1.00  0.00    -0.306 A  
HETATM   19  C   UNL     1     -10.320  15.045  68.726  1.00  0.00    -0.240 A  
HETATM   20  O   UNL     1     -10.521  13.677  68.670  1.00  0.00    -0.240 OA 
HETATM   21  C   UNL     1     -11.476  13.089  69.495  1.00  0.00    -0.222 C  
HETATM   22  C   UNL     1     -11.645  11.610  69.432  1.00  0.00    -0.327 C  
HETATM   23  C   UNL     1     -12.262  13.759  70.350  1.00  0.00    -0.433 C  
HETATM   24  O   UNL     1     -12.438  10.969  70.105  1.00  0.00    -0.306 OA 
HETATM   25  C   UNL     1     -12.110  15.209  70.436  1.00  0.00    -0.328 C  
BRANCH   6  26
HETATM   26  C   UNL     1      -7.164  17.002  66.328  1.00  0.00    -0.234 C  
HETATM   27  C   UNL     1      -5.703  16.801  66.648  1.00  0.00    -0.043 C  
ENDBRANCH   6  26
ENDBRANCH   3   4
ENDBRANCH   2   3
TORSDOF 3
ENDMDL
MODEL       43
REMARK 921   NORMALIZED FREE ENERGY PREDICTED BY IDOCK:   -5.63 KCAL/MOL
REMARK 922        TOTAL FREE ENERGY PREDICTED BY IDOCK:   -7.09 KCAL/MOL
REMARK 923 INTER-LIGAND FREE ENERGY PREDICTED BY IDOCK:   -6.75 KCAL/MOL
REMARK 924 INTRA-LIGAND FREE ENERGY PREDICTED BY IDOCK:   -0.35 KCAL/MOL
REMARK 927      BINDING AFFINITY PREDICTED BY RF-SCORE:    0.00 PKD
ROOT
HETATM    1  C   UNL     1     -11.524  10.878  68.323  1.00  0.00    -0.376 C  
HETATM    2  C   UNL     1     -10.767   9.732  67.668  1.00  0.00    -0.334 C  
ENDROOT
BRANCH   2   3
HETATM    3  C   UNL     1      -9.768  10.252  66.625  1.00  0.00    -0.233 C  
BRANCH   3   4
HETATM    4  C   UNL     1      -9.131  11.582  67.037  1.00  0.00    -0.175 A  
HETATM    5  C   UNL     1      -9.483  12.924  66.606  1.00  0.00    -0.255 A  
HETATM    6  N   UNL     1     -10.493  13.336  65.612  1.00  0.00    -0.276 NA 
HETATM    7  O   UNL     1      -5.726  13.174  70.080  1.00  0.00    -0.109 OA 
HETATM    8  C   UNL     1     -10.717  14.728  65.364  1.00  0.00    -0.371 C  
HETATM    9  C   UNL     1     -10.077  15.707  66.019  1.00  0.00    -0.355 C  
HETATM   10  O   UNL     1      -7.255   7.603  69.097  1.00  0.00    -0.075 OA 
HETATM   11  C   UNL     1     -11.773  15.320  64.455  1.00  0.00    -0.305 C  
HETATM   12  O   UNL     1     -11.419  16.460  63.806  1.00  0.00    -1.002 OA 
HETATM   13  C   UNL     1      -9.013  15.388  66.951  1.00  0.00    -0.247 C  
HETATM   14  O   UNL     1     -12.902  14.879  64.326  1.00  0.00    -0.607 OA 
HETATM   15  O   UNL     1      -8.375  16.304  67.459  1.00  0.00    -0.154 OA 
HETATM   16  C   UNL     1      -8.748  13.973  67.243  1.00  0.00    -0.227 A  
HETATM   17  C   UNL     1      -7.736  13.759  68.193  1.00  0.00    -0.140 A  
HETATM   18  C   UNL     1      -7.409  12.478  68.577  1.00  0.00    -0.115 A  
HETATM   19  C   UNL     1      -8.093  11.405  68.023  1.00  0.00    -0.134 A  
HETATM   20  O   UNL     1      -7.796  10.113  68.422  1.00  0.00    -0.090 OA 
HETATM   21  C   UNL     1      -6.785   9.898  69.356  1.00  0.00    -0.057 C  
HETATM   22  C   UNL     1      -6.470   8.494  69.740  1.00  0.00    -0.035 C  
HETATM   23  C   UNL     1      -6.067  10.868  69.939  1.00  0.00    -0.105 C  
HETATM   24  O   UNL     1      -5.606   8.166  70.538  1.00  0.00    -0.029 OA 
HETATM   25  C   UNL     1      -6.352  12.254  69.573  1.00  0.00    -0.121 C  
BRANCH   6  26
HETATM   26  C   UNL     1     -11.118  12.205  64.901  1.00  0.00    -0.319 C  
HETATM   27  C   UNL     1     -10.863  11.844  63.458  1.00  0.00    -0.502 C  
ENDBRANCH   6  26
ENDBRANCH   3   4
ENDBRANCH   2   3
TORSDOF 3
ENDMDL
MODEL       44
REMARK 921   NORMALIZED FREE ENERGY PREDICTED BY IDOCK:   -5.59 KCAL/MOL
REMARK 922        TOTAL FREE ENERGY PREDICTED BY IDOCK:   -7.05 KCAL/MOL
REMARK 923 INTER-LIGAND FREE ENERGY PREDICTED BY IDOCK:   -7.07 KCAL/MOL
REMARK 924 INTRA-LIGAND FREE ENERGY PREDICTED BY IDOCK:    0.02 KCAL/MOL
REMARK 927      BINDING AFFINITY PREDICTED BY RF-SCORE:    0.00 PKD
ROOT
HETATM    1  C   UNL     1      -7.324  11.761  66.884  1.00  0.00    -0.104 C  
HETATM    2  C   UNL     1      -8.079  11.042  67.993  1.00  0.00    -0.121 C  
ENDROOT
BRANCH   2   3
HETATM    3  C   UNL     1      -9.520  10.729  67.568  1.00  0.00    -0.168 C  
BRANCH   3   4
HETATM    4  C   UNL     1     -10.533  11.011  68.681  1.00  0.00    -0.214 A  
HETATM    5  C   UNL     1     -11.043  10.099  69.691  1.00  0.00    -0.263 A  
HETATM    6  N   UNL     1     -10.769   8.658  69.852  1.00  0.00    -0.229 NA 
HETATM    7  O   UNL     1     -13.000  14.771  70.460  1.00  0.00    -0.350 OA 
HETATM    8  C   UNL     1     -11.344   7.947  70.953  1.00  0.00    -0.277 C  
HETATM    9  C   UNL     1     -12.106   8.526  71.890  1.00  0.00    -0.411 C  
HETATM   10  O   UNL     1      -9.421  14.774  65.819  1.00  0.00    -0.290 OA 
HETATM   11  C   UNL     1     -11.090   6.499  71.318  1.00  0.00    -0.273 C  
HETATM   12  O   UNL     1     -12.147   5.831  71.850  1.00  0.00    -0.057 OA 
HETATM   13  C   UNL     1     -12.490   9.919  71.760  1.00  0.00    -0.397 C  
HETATM   14  O   UNL     1     -10.012   5.939  71.220  1.00  0.00    -0.179 OA 
HETATM   15  O   UNL     1     -13.271  10.397  72.576  1.00  0.00    -0.163 OA 
HETATM   16  C   UNL     1     -11.923  10.694  70.649  1.00  0.00    -0.466 A  
HETATM   17  C   UNL     1     -12.309  12.045  70.631  1.00  0.00    -0.394 A  
HETATM   18  C   UNL     1     -11.823  12.888  69.656  1.00  0.00    -0.387 A  
HETATM   19  C   UNL     1     -10.946  12.393  68.702  1.00  0.00    -0.247 A  
HETATM   20  O   UNL     1     -10.426  13.236  67.735  1.00  0.00    -0.232 OA 
HETATM   21  C   UNL     1     -10.817  14.573  67.708  1.00  0.00    -0.264 C  
HETATM   22  C   UNL     1     -10.262  15.445  66.636  1.00  0.00    -0.277 C  
HETATM   23  C   UNL     1     -11.662  15.138  68.581  1.00  0.00    -0.364 C  
HETATM   24  O   UNL     1     -10.527  16.629  66.493  1.00  0.00    -0.302 OA 
HETATM   25  C   UNL     1     -12.226  14.301  69.638  1.00  0.00    -0.323 C  
BRANCH   6  26
HETATM   26  C   UNL     1      -9.965   8.083  68.757  1.00  0.00    -0.189 C  
HETATM   27  C   UNL     1      -8.737   7.226  68.944  1.00  0.00    -0.128 C  
ENDBRANCH   6  26
ENDBRANCH   3   4
ENDBRANCH   2   3
TORSDOF 3
ENDMDL
MODEL       45
REMARK 921   NORMALIZED FREE ENERGY PREDICTED BY IDOCK:   -5.59 KCAL/MOL
REMARK 922        TOTAL FREE ENERGY PREDICTED BY IDOCK:   -7.05 KCAL/MOL
REMARK 923 INTER-LIGAND FREE ENERGY PREDICTED BY IDOCK:   -7.28 KCAL/MOL
REMARK 924 INTRA-LIGAND FREE ENERGY PREDICTED BY IDOCK:    0.24 KCAL/MOL
REMARK 927      BINDING AFFINITY PREDICTED BY RF-SCORE:    0.00 PKD
ROOT
HETATM    1  C   UNL     1     -14.392   7.688  71.713  1.00  0.00    -0.586 C  
HETATM    2  C   UNL     1     -14.004   9.115  72.070  1.00  0.00    -0.434 C  
ENDROOT
BRANCH   2   3
HETATM    3  C   UNL     1     -12.508   9.216  72.401  1.00  0.00    -0.350 C  
BRANCH   3   4
HETATM    4  C   UNL     1     -11.645   9.432  71.155  1.00  0.00    -0.415 A  
HETATM    5  C   UNL     1     -10.794   8.476  70.468  1.00  0.00    -0.228 A  
HETATM    6  N   UNL     1     -10.491   7.080  70.842  1.00  0.00    -0.213 NA 
HETATM    7  O   UNL     1     -10.750  12.928  67.936  1.00  0.00    -0.212 OA 
HETATM    8  C   UNL     1      -9.653   6.287  69.996  1.00  0.00    -0.158 C  
HETATM    9  C   UNL     1      -9.141   6.728  68.839  1.00  0.00    -0.133 C  
HETATM   10  O   UNL     1     -14.202  13.278  72.658  1.00  0.00    -0.724 OA 
HETATM   11  C   UNL     1      -9.322   4.820  70.179  1.00  0.00    -0.155 C  
HETATM   12  O   UNL     1      -8.074   4.446  69.795  1.00  0.00    -0.060 OA 
HETATM   13  C   UNL     1      -9.323   8.111  68.441  1.00  0.00    -0.135 C  
HETATM   14  O   UNL     1     -10.106   3.978  70.581  1.00  0.00    -0.143 OA 
HETATM   15  O   UNL     1      -8.759   8.516  67.430  1.00  0.00    -0.132 OA 
HETATM   16  C   UNL     1     -10.179   8.966  69.274  1.00  0.00    -0.214 A  
HETATM   17  C   UNL     1     -10.339  10.274  68.786  1.00  0.00    -0.211 A  
HETATM   18  C   UNL     1     -11.141  11.168  69.460  1.00  0.00    -0.311 A  
HETATM   19  C   UNL     1     -11.793  10.762  70.616  1.00  0.00    -0.360 A  
HETATM   20  O   UNL     1     -12.626  11.641  71.287  1.00  0.00    -0.373 OA 
HETATM   21  C   UNL     1     -12.777  12.942  70.812  1.00  0.00    -0.149 C  
HETATM   22  C   UNL     1     -13.657  13.871  71.574  1.00  0.00    -0.279 C  
HETATM   23  C   UNL     1     -12.185  13.425  69.710  1.00  0.00    -0.307 C  
HETATM   24  O   UNL     1     -13.869  15.035  71.273  1.00  0.00    -0.432 OA 
HETATM   25  C   UNL     1     -11.311  12.535  68.949  1.00  0.00    -0.297 C  
BRANCH   6  26
HETATM   26  C   UNL     1     -11.048   6.684  72.149  1.00  0.00    -0.254 C  
HETATM   27  C   UNL     1     -12.134   5.655  72.350  1.00  0.00    -0.019 C  
ENDBRANCH   6  26
ENDBRANCH   3   4
ENDBRANCH   2   3
TORSDOF 3
ENDMDL
MODEL       46
REMARK 921   NORMALIZED FREE ENERGY PREDICTED BY IDOCK:   -5.59 KCAL/MOL
REMARK 922        TOTAL FREE ENERGY PREDICTED BY IDOCK:   -7.04 KCAL/MOL
REMARK 923 INTER-LIGAND FREE ENERGY PREDICTED BY IDOCK:   -6.90 KCAL/MOL
REMARK 924 INTRA-LIGAND FREE ENERGY PREDICTED BY IDOCK:   -0.14 KCAL/MOL
REMARK 927      BINDING AFFINITY PREDICTED BY RF-SCORE:    0.00 PKD
ROOT
HETATM    1  C   UNL     1     -13.408   8.780  72.292  1.00  0.00    -0.460 C  
HETATM    2  C   UNL     1     -13.089   9.892  71.303  1.00  0.00    -0.487 C  
ENDROOT
BRANCH   2   3
HETATM    3  C   UNL     1     -11.580   9.985  71.042  1.00  0.00    -0.476 C  
BRANCH   3   4
HETATM    4  C   UNL     1     -11.200   9.532  69.630  1.00  0.00    -0.138 A  
HETATM    5  C   UNL     1     -11.146  10.321  68.411  1.00  0.00    -0.247 A  
HETATM    6  N   UNL     1     -11.512  11.738  68.216  1.00  0.00    -0.281 NA 
HETATM    7  O   UNL     1      -9.602   5.539  67.419  1.00  0.00    -0.114 OA 
HETATM    8  C   UNL     1     -11.340  12.343  66.931  1.00  0.00    -0.333 C  
HETATM    9  C   UNL     1     -10.822  11.701  65.875  1.00  0.00    -0.339 C  
HETATM   10  O   UNL     1     -11.017   6.114  73.076  1.00  0.00    -0.251 OA 
HETATM   11  C   UNL     1     -11.574  13.799  66.585  1.00  0.00    -0.369 C  
HETATM   12  O   UNL     1     -12.051  14.038  65.335  1.00  0.00    -0.362 OA 
HETATM   13  C   UNL     1     -10.513  10.286  65.961  1.00  0.00    -0.111 C  
HETATM   14  O   UNL     1     -11.309  14.736  67.318  1.00  0.00    -0.335 OA 
HETATM   15  O   UNL     1     -10.136   9.700  64.952  1.00  0.00    -0.075 OA 
HETATM   16  C   UNL     1     -10.669   9.620  67.260  1.00  0.00    -0.284 A  
HETATM   17  C   UNL     1     -10.299   8.264  67.262  1.00  0.00    -0.372 A  
HETATM   18  C   UNL     1     -10.371   7.531  68.426  1.00  0.00    -0.226 A  
HETATM   19  C   UNL     1     -10.803   8.145  69.593  1.00  0.00    -0.158 A  
HETATM   20  O   UNL     1     -10.850   7.429  70.776  1.00  0.00    -0.233 OA 
HETATM   21  C   UNL     1     -10.496   6.082  70.778  1.00  0.00    -0.239 C  
HETATM   22  C   UNL     1     -10.588   5.333  72.062  1.00  0.00    -0.216 C  
HETATM   23  C   UNL     1     -10.074   5.403  69.702  1.00  0.00    -0.319 C  
HETATM   24  O   UNL     1     -10.316   4.150  72.201  1.00  0.00    -0.172 OA 
HETATM   25  C   UNL     1      -9.983   6.114  68.429  1.00  0.00    -0.140 C  
BRANCH   6  26
HETATM   26  C   UNL     1     -12.120  12.361  69.407  1.00  0.00    -0.180 C  
HETATM   27  C   UNL     1     -11.447  13.389  70.283  1.00  0.00     0.015 C  
ENDBRANCH   6  26
ENDBRANCH   3   4
ENDBRANCH   2   3
TORSDOF 3
ENDMDL
MODEL       47
REMARK 921   NORMALIZED FREE ENERGY PREDICTED BY IDOCK:   -5.48 KCAL/MOL
REMARK 922        TOTAL FREE ENERGY PREDICTED BY IDOCK:   -6.92 KCAL/MOL
REMARK 923 INTER-LIGAND FREE ENERGY PREDICTED BY IDOCK:   -6.45 KCAL/MOL
REMARK 924 INTRA-LIGAND FREE ENERGY PREDICTED BY IDOCK:   -0.47 KCAL/MOL
REMARK 927      BINDING AFFINITY PREDICTED BY RF-SCORE:    0.00 PKD
ROOT
HETATM    1  C   UNL     1      -8.829   9.151  70.459  1.00  0.00    -0.263 C  
HETATM    2  C   UNL     1      -9.069  10.246  69.429  1.00  0.00    -0.203 C  
ENDROOT
BRANCH   2   3
HETATM    3  C   UNL     1     -10.173   9.845  68.442  1.00  0.00    -0.203 C  
BRANCH   3   4
HETATM    4  C   UNL     1     -10.096  10.626  67.127  1.00  0.00    -0.248 A  
HETATM    5  C   UNL     1      -9.547  10.198  65.852  1.00  0.00    -0.218 A  
HETATM    6  N   UNL     1      -8.861   8.932  65.525  1.00  0.00    -0.189 NA 
HETATM    7  O   UNL     1     -11.541  14.891  65.363  1.00  0.00    -0.339 OA 
HETATM    8  C   UNL     1      -8.431   8.687  64.182  1.00  0.00    -0.076 C  
HETATM    9  C   UNL     1      -8.647   9.537  63.170  1.00  0.00    -0.218 C  
HETATM   10  O   UNL     1     -12.192  12.938  70.850  1.00  0.00    -0.347 OA 
HETATM   11  C   UNL     1      -7.804   7.412  63.659  1.00  0.00    -0.108 C  
HETATM   12  O   UNL     1      -6.868   7.571  62.687  1.00  0.00    -0.068 OA 
HETATM   13  C   UNL     1      -9.240  10.837  63.422  1.00  0.00    -0.268 C  
HETATM   14  O   UNL     1      -8.125   6.288  64.007  1.00  0.00    -0.116 OA 
HETATM   15  O   UNL     1      -9.333  11.636  62.497  1.00  0.00    -0.267 OA 
HETATM   16  C   UNL     1      -9.702  11.135  64.784  1.00  0.00    -0.303 A  
HETATM   17  C   UNL     1     -10.308  12.395  64.925  1.00  0.00    -0.319 A  
HETATM   18  C   UNL     1     -10.811  12.786  66.146  1.00  0.00    -0.303 A  
HETATM   19  C   UNL     1     -10.720  11.923  67.229  1.00  0.00    -0.236 A  
HETATM   20  O   UNL     1     -11.248  12.291  68.455  1.00  0.00    -0.226 OA 
HETATM   21  C   UNL     1     -11.838  13.544  68.600  1.00  0.00    -0.369 C  
HETATM   22  C   UNL     1     -12.369  13.920  69.940  1.00  0.00    -0.300 C  
HETATM   23  C   UNL     1     -11.966  14.445  67.616  1.00  0.00    -0.378 C  
HETATM   24  O   UNL     1     -12.902  14.986  70.205  1.00  0.00    -0.309 OA 
HETATM   25  C   UNL     1     -11.447  14.103  66.294  1.00  0.00    -0.352 C  
BRANCH   6  26
HETATM   26  C   UNL     1      -8.617   8.072  66.698  1.00  0.00    -0.136 C  
HETATM   27  C   UNL     1      -7.256   7.747  67.264  1.00  0.00    -0.090 C  
ENDBRANCH   6  26
ENDBRANCH   3   4
ENDBRANCH   2   3
TORSDOF 3
ENDMDL
MODEL       48
REMARK 921   NORMALIZED FREE ENERGY PREDICTED BY IDOCK:   -5.47 KCAL/MOL
REMARK 922        TOTAL FREE ENERGY PREDICTED BY IDOCK:   -6.90 KCAL/MOL
REMARK 923 INTER-LIGAND FREE ENERGY PREDICTED BY IDOCK:   -6.42 KCAL/MOL
REMARK 924 INTRA-LIGAND FREE ENERGY PREDICTED BY IDOCK:   -0.48 KCAL/MOL
REMARK 927      BINDING AFFINITY PREDICTED BY RF-SCORE:    0.00 PKD
ROOT
HETATM    1  C   UNL     1     -11.967  14.680  64.441  1.00  0.00    -0.454 C  
HETATM    2  C   UNL     1     -10.710  15.119  65.177  1.00  0.00    -0.442 C  
ENDROOT
BRANCH   2   3
HETATM    3  C   UNL     1     -10.951  15.187  66.691  1.00  0.00    -0.318 C  
BRANCH   3   4
HETATM    4  C   UNL     1      -9.655  15.057  67.497  1.00  0.00    -0.203 A  
HETATM    5  C   UNL     1      -8.962  13.848  67.905  1.00  0.00    -0.191 A  
HETATM    6  N   UNL     1      -9.371  12.443  67.708  1.00  0.00    -0.189 NA 
HETATM    7  O   UNL     1      -6.269  17.944  69.393  1.00  0.00    -0.233 OA 
HETATM    8  C   UNL     1      -8.512  11.387  68.153  1.00  0.00    -0.152 C  
HETATM    9  C   UNL     1      -7.316  11.596  68.718  1.00  0.00    -0.118 C  
HETATM   10  O   UNL     1     -11.144  19.591  66.588  1.00  0.00    -0.346 OA 
HETATM   11  C   UNL     1      -8.732   9.903  67.945  1.00  0.00    -0.129 C  
HETATM   12  O   UNL     1      -8.300   9.098  68.950  1.00  0.00    -0.120 OA 
HETATM   13  C   UNL     1      -6.877  12.945  69.021  1.00  0.00    -0.080 C  
HETATM   14  O   UNL     1      -9.204   9.408  66.936  1.00  0.00    -0.135 OA 
HETATM   15  O   UNL     1      -5.825  13.103  69.631  1.00  0.00    -0.093 OA 
HETATM   16  C   UNL     1      -7.721  14.064  68.582  1.00  0.00    -0.135 A  
HETATM   17  C   UNL     1      -7.194  15.333  68.873  1.00  0.00    -0.137 A  
HETATM   18  C   UNL     1      -7.874  16.467  68.488  1.00  0.00    -0.210 A  
HETATM   19  C   UNL     1      -9.076  16.343  67.805  1.00  0.00    -0.199 A  
HETATM   20  O   UNL     1      -9.755  17.474  67.386  1.00  0.00    -0.263 OA 
HETATM   21  C   UNL     1      -9.241  18.733  67.683  1.00  0.00    -0.285 C  
HETATM   22  C   UNL     1     -10.013  19.929  67.244  1.00  0.00    -0.421 C  
HETATM   23  C   UNL     1      -8.094  18.953  68.342  1.00  0.00    -0.376 C  
HETATM   24  O   UNL     1      -9.680  21.087  67.446  1.00  0.00    -0.416 OA 
HETATM   25  C   UNL     1      -7.323  17.796  68.790  1.00  0.00    -0.271 C  
BRANCH   6  26
HETATM   26  C   UNL     1     -10.718  12.295  67.126  1.00  0.00    -0.233 C  
HETATM   27  C   UNL     1     -11.903  11.684  67.833  1.00  0.00    -0.273 C  
ENDBRANCH   6  26
ENDBRANCH   3   4
ENDBRANCH   2   3
TORSDOF 3
ENDMDL
MODEL       49
REMARK 921   NORMALIZED FREE ENERGY PREDICTED BY IDOCK:   -5.47 KCAL/MOL
REMARK 922        TOTAL FREE ENERGY PREDICTED BY IDOCK:   -6.90 KCAL/MOL
REMARK 923 INTER-LIGAND FREE ENERGY PREDICTED BY IDOCK:   -6.66 KCAL/MOL
REMARK 924 INTRA-LIGAND FREE ENERGY PREDICTED BY IDOCK:   -0.24 KCAL/MOL
REMARK 927      BINDING AFFINITY PREDICTED BY RF-SCORE:    0.00 PKD
ROOT
HETATM    1  C   UNL     1     -13.288  10.115  72.043  1.00  0.00    -0.492 C  
HETATM    2  C   UNL     1     -12.763   9.777  70.656  1.00  0.00    -0.157 C  
ENDROOT
BRANCH   2   3
HETATM    3  C   UNL     1     -11.320  10.265  70.475  1.00  0.00    -0.422 C  
BRANCH   3   4
HETATM    4  C   UNL     1     -10.993  10.603  69.018  1.00  0.00    -0.295 A  
HETATM    5  C   UNL     1     -10.472   9.728  67.982  1.00  0.00    -0.226 A  
HETATM    6  N   UNL     1     -10.060   8.315  68.094  1.00  0.00    -0.192 NA 
HETATM    7  O   UNL     1     -11.361  14.370  66.007  1.00  0.00    -0.324 OA 
HETATM    8  C   UNL     1      -9.611   7.614  66.930  1.00  0.00    -0.193 C  
HETATM    9  C   UNL     1      -9.574   8.160  65.707  1.00  0.00     0.111 C  
HETATM   10  O   UNL     1     -12.761  14.249  71.696  1.00  0.00    -0.321 OA 
HETATM   11  C   UNL     1      -9.246   6.147  66.849  1.00  0.00    -0.128 C  
HETATM   12  O   UNL     1      -8.240   5.836  65.991  1.00  0.00    -0.107 OA 
HETATM   13  C   UNL     1      -9.883   9.566  65.526  1.00  0.00    -0.234 C  
HETATM   14  O   UNL     1      -9.825   5.255  67.446  1.00  0.00    -0.140 OA 
HETATM   15  O   UNL     1      -9.742  10.066  64.415  1.00  0.00    -0.305 OA 
HETATM   16  C   UNL     1     -10.353  10.328  66.690  1.00  0.00    -0.283 A  
HETATM   17  C   UNL     1     -10.677  11.667  66.411  1.00  0.00    -0.316 A  
HETATM   18  C   UNL     1     -11.157  12.483  67.412  1.00  0.00    -0.317 A  
HETATM   19  C   UNL     1     -11.324  11.969  68.690  1.00  0.00    -0.277 A  
HETATM   20  O   UNL     1     -11.834  12.769  69.697  1.00  0.00    -0.311 OA 
HETATM   21  C   UNL     1     -12.145  14.100  69.427  1.00  0.00    -0.328 C  
HETATM   22  C   UNL     1     -12.663  14.941  70.541  1.00  0.00    -0.347 C  
HETATM   23  C   UNL     1     -12.012  14.685  68.228  1.00  0.00    -0.282 C  
HETATM   24  O   UNL     1     -12.966  16.120  70.442  1.00  0.00    -0.091 OA 
HETATM   25  C   UNL     1     -11.498  13.883  67.120  1.00  0.00    -0.347 C  
BRANCH   6  26
HETATM   26  C   UNL     1     -10.082   7.800  69.476  1.00  0.00    -0.194 C  
HETATM   27  C   UNL     1      -8.973   7.005  70.121  1.00  0.00    -0.145 C  
ENDBRANCH   6  26
ENDBRANCH   3   4
ENDBRANCH   2   3
TORSDOF 3
ENDMDL
MODEL       50
REMARK 921   NORMALIZED FREE ENERGY PREDICTED BY IDOCK:   -5.46 KCAL/MOL
REMARK 922        TOTAL FREE ENERGY PREDICTED BY IDOCK:   -6.90 KCAL/MOL
REMARK 923 INTER-LIGAND FREE ENERGY PREDICTED BY IDOCK:   -6.50 KCAL/MOL
REMARK 924 INTRA-LIGAND FREE ENERGY PREDICTED BY IDOCK:   -0.40 KCAL/MOL
REMARK 927      BINDING AFFINITY PREDICTED BY RF-SCORE:    0.00 PKD
ROOT
HETATM    1  C   UNL     1     -12.396  10.637  70.928  1.00  0.00    -0.502 C  
HETATM    2  C   UNL     1     -12.366  11.891  70.066  1.00  0.00    -0.202 C  
ENDROOT
BRANCH   2   3
HETATM    3  C   UNL     1     -10.924  12.327  69.773  1.00  0.00     0.214 C  
BRANCH   3   4
HETATM    4  C   UNL     1     -10.713  12.703  68.303  1.00  0.00    -0.248 A  
HETATM    5  C   UNL     1     -10.611  14.027  67.715  1.00  0.00    -0.242 A  
HETATM    6  N   UNL     1     -10.757  15.340  68.374  1.00  0.00    -0.243 NA 
HETATM    7  O   UNL     1      -9.920  10.484  64.080  1.00  0.00    -0.320 OA 
HETATM    8  C   UNL     1     -10.573  16.538  67.613  1.00  0.00    -0.321 C  
HETATM    9  C   UNL     1     -10.232  16.546  66.317  1.00  0.00    -0.343 C  
HETATM   10  O   UNL     1     -10.861   7.946  69.277  1.00  0.00    -0.179 OA 
HETATM   11  C   UNL     1     -10.591  17.954  68.149  1.00  0.00    -0.340 C  
HETATM   12  O   UNL     1     -11.103  18.894  67.312  1.00  0.00    -0.349 OA 
HETATM   13  C   UNL     1     -10.149  15.301  65.577  1.00  0.00    -0.375 C  
HETATM   14  O   UNL     1     -10.134  18.293  69.227  1.00  0.00    -0.281 OA 
HETATM   15  O   UNL     1      -9.937  15.342  64.370  1.00  0.00     0.196 OA 
HETATM   16  C   UNL     1     -10.327  14.043  66.314  1.00  0.00    -0.294 A  
HETATM   17  C   UNL     1     -10.180  12.887  65.527  1.00  0.00    -0.299 A  
HETATM   18  C   UNL     1     -10.294  11.642  66.104  1.00  0.00    -0.280 A  
HETATM   19  C   UNL     1     -10.546  11.541  67.464  1.00  0.00    -0.206 A  
HETATM   20  O   UNL     1     -10.633  10.295  68.062  1.00  0.00    -0.198 OA 
HETATM   21  C   UNL     1     -10.499   9.148  67.283  1.00  0.00    -0.265 C  
HETATM   22  C   UNL     1     -10.628   7.825  67.953  1.00  0.00    -0.156 C  
HETATM   23  C   UNL     1     -10.262   9.147  65.964  1.00  0.00    -0.093 C  
HETATM   24  O   UNL     1     -10.541   6.745  67.388  1.00  0.00    -0.223 OA 
HETATM   25  C   UNL     1     -10.139  10.433  65.282  1.00  0.00    -0.300 C  
BRANCH   6  26
HETATM   26  C   UNL     1     -11.180  15.249  69.784  1.00  0.00    -0.286 C  
HETATM   27  C   UNL     1     -12.560  15.581  70.296  1.00  0.00    -0.362 C  
ENDBRANCH   6  26
ENDBRANCH   3   4
ENDBRANCH   2   3
TORSDOF 3
ENDMDL
MODEL       51
REMARK 921   NORMALIZED FREE ENERGY PREDICTED BY IDOCK:   -5.46 KCAL/MOL
REMARK 922        TOTAL FREE ENERGY PREDICTED BY IDOCK:   -6.89 KCAL/MOL
REMARK 923 INTER-LIGAND FREE ENERGY PREDICTED BY IDOCK:   -6.77 KCAL/MOL
REMARK 924 INTRA-LIGAND FREE ENERGY PREDICTED BY IDOCK:   -0.12 KCAL/MOL
REMARK 927      BINDING AFFINITY PREDICTED BY RF-SCORE:    0.00 PKD
ROOT
HETATM    1  C   UNL     1     -13.385   9.549  72.208  1.00  0.00    -0.526 C  
HETATM    2  C   UNL     1     -12.817  10.263  70.991  1.00  0.00    -0.490 C  
ENDROOT
BRANCH   2   3
HETATM    3  C   UNL     1     -11.293  10.107  70.918  1.00  0.00    -0.420 C  
BRANCH   3   4
HETATM    4  C   UNL     1     -10.789   9.935  69.482  1.00  0.00    -0.274 A  
HETATM    5  C   UNL     1     -10.275   8.736  68.841  1.00  0.00    -0.207 A  
HETATM    6  N   UNL     1     -10.043   7.404  69.434  1.00  0.00    -0.181 NA 
HETATM    7  O   UNL     1     -10.423  12.562  65.438  1.00  0.00    -0.270 OA 
HETATM    8  C   UNL     1      -9.568   6.336  68.610  1.00  0.00    -0.123 C  
HETATM    9  C   UNL     1      -9.349   6.459  67.294  1.00  0.00    -0.125 C  
HETATM   10  O   UNL     1     -12.373  14.373  70.659  1.00  0.00    -0.306 OA 
HETATM   11  C   UNL     1      -9.370   4.895  69.032  1.00  0.00    -0.129 C  
HETATM   12  O   UNL     1      -8.328   4.248  68.448  1.00  0.00    -0.090 OA 
HETATM   13  C   UNL     1      -9.474   7.753  66.651  1.00  0.00    -0.205 C  
HETATM   14  O   UNL     1     -10.104   4.290  69.794  1.00  0.00    -0.182 OA 
HETATM   15  O   UNL     1      -9.169   7.860  65.468  1.00  0.00     0.017 OA 
HETATM   16  C   UNL     1      -9.963   8.882  67.454  1.00  0.00    -0.267 A  
HETATM   17  C   UNL     1     -10.101  10.083  66.738  1.00  0.00    -0.286 A  
HETATM   18  C   UNL     1     -10.577  11.211  67.368  1.00  0.00    -0.272 A  
HETATM   19  C   UNL     1     -10.926  11.146  68.710  1.00  0.00    -0.219 A  
HETATM   20  O   UNL     1     -11.435  12.264  69.348  1.00  0.00    -0.271 OA 
HETATM   21  C   UNL     1     -11.561  13.459  68.644  1.00  0.00    -0.327 C  
HETATM   22  C   UNL     1     -12.084  14.650  69.369  1.00  0.00    -0.280 C  
HETATM   23  C   UNL     1     -11.246  13.619  67.351  1.00  0.00    -0.323 C  
HETATM   24  O   UNL     1     -12.236  15.757  68.875  1.00  0.00    -0.258 OA 
HETATM   25  C   UNL     1     -10.724  12.467  66.619  1.00  0.00    -0.236 C  
BRANCH   6  26
HETATM   26  C   UNL     1     -10.259   7.361  70.893  1.00  0.00    -0.192 C  
HETATM   27  C   UNL     1     -11.379   6.618  71.579  1.00  0.00    -0.326 C  
ENDBRANCH   6  26
ENDBRANCH   3   4
ENDBRANCH   2   3
TORSDOF 3
ENDMDL
MODEL       52
REMARK 921   NORMALIZED FREE ENERGY PREDICTED BY IDOCK:   -5.45 KCAL/MOL
REMARK 922        TOTAL FREE ENERGY PREDICTED BY IDOCK:   -6.88 KCAL/MOL
REMARK 923 INTER-LIGAND FREE ENERGY PREDICTED BY IDOCK:   -6.66 KCAL/MOL
REMARK 924 INTRA-LIGAND FREE ENERGY PREDICTED BY IDOCK:   -0.22 KCAL/MOL
REMARK 927      BINDING AFFINITY PREDICTED BY RF-SCORE:    0.00 PKD
ROOT
HETATM    1  C   UNL     1     -11.852  13.830  68.323  1.00  0.00    -0.413 C  
HETATM    2  C   UNL     1     -11.007  12.598  68.609  1.00  0.00    -0.292 C  
ENDROOT
BRANCH   2   3
HETATM    3  C   UNL     1     -11.736  11.316  68.186  1.00  0.00    -0.323 C  
BRANCH   3   4
HETATM    4  C   UNL     1     -10.803  10.102  68.130  1.00  0.00    -0.310 A  
HETATM    5  C   UNL     1     -10.534   9.121  69.167  1.00  0.00    -0.217 A  
HETATM    6  N   UNL     1     -11.036   9.088  70.555  1.00  0.00    -0.248 NA 
HETATM    7  O   UNL     1      -7.983   7.852  64.910  1.00  0.00    -0.125 OA 
HETATM    8  C   UNL     1     -10.682   7.997  71.410  1.00  0.00    -0.229 C  
HETATM    9  C   UNL     1      -9.935   6.958  71.012  1.00  0.00    -0.199 C  
HETATM   10  O   UNL     1     -11.059  12.770  64.079  1.00  0.00    -0.363 OA 
HETATM   11  C   UNL     1     -11.184   7.760  72.819  1.00  0.00    -0.398 C  
HETATM   12  O   UNL     1     -10.295   7.189  73.673  1.00  0.00    -0.330 OA 
HETATM   13  C   UNL     1      -9.336   6.954  69.691  1.00  0.00    -0.145 C  
HETATM   14  O   UNL     1     -12.319   7.991  73.198  1.00  0.00    -0.016 OA 
HETATM   15  O   UNL     1      -8.575   6.042  69.388  1.00  0.00    -0.120 OA 
HETATM   16  C   UNL     1      -9.672   8.050  68.774  1.00  0.00    -0.157 A  
HETATM   17  C   UNL     1      -9.088   7.938  67.501  1.00  0.00    -0.141 A  
HETATM   18  C   UNL     1      -9.346   8.887  66.537  1.00  0.00    -0.252 A  
HETATM   19  C   UNL     1     -10.192   9.947  66.833  1.00  0.00    -0.240 A  
HETATM   20  O   UNL     1     -10.485  10.891  65.864  1.00  0.00    -0.254 OA 
HETATM   21  C   UNL     1      -9.897  10.789  64.605  1.00  0.00    -0.307 C  
HETATM   22  C   UNL     1     -10.210  11.839  63.596  1.00  0.00    -0.428 C  
HETATM   23  C   UNL     1      -9.065   9.807  64.230  1.00  0.00    -0.293 C  
HETATM   24  O   UNL     1      -9.758  11.873  62.462  1.00  0.00     0.026 OA 
HETATM   25  C   UNL     1      -8.736   8.769  65.205  1.00  0.00    -0.167 C  
BRANCH   6  26
HETATM   26  C   UNL     1     -11.808  10.287  70.933  1.00  0.00    -0.377 C  
HETATM   27  C   UNL     1     -13.306  10.329  71.115  1.00  0.00    -0.339 C  
ENDBRANCH   6  26
ENDBRANCH   3   4
ENDBRANCH   2   3
TORSDOF 3
ENDMDL
MODEL       53
REMARK 921   NORMALIZED FREE ENERGY PREDICTED BY IDOCK:   -5.39 KCAL/MOL
REMARK 922        TOTAL FREE ENERGY PREDICTED BY IDOCK:   -6.81 KCAL/MOL
REMARK 923 INTER-LIGAND FREE ENERGY PREDICTED BY IDOCK:   -6.74 KCAL/MOL
REMARK 924 INTRA-LIGAND FREE ENERGY PREDICTED BY IDOCK:   -0.07 KCAL/MOL
REMARK 927      BINDING AFFINITY PREDICTED BY RF-SCORE:    0.00 PKD
ROOT
HETATM    1  C   UNL     1     -14.241   7.544  71.830  1.00  0.00    -0.548 C  
HETATM    2  C   UNL     1     -13.862   8.999  71.597  1.00  0.00    -0.422 C  
ENDROOT
BRANCH   2   3
HETATM    3  C   UNL     1     -12.400   9.259  71.984  1.00  0.00    -0.433 C  
BRANCH   3   4
HETATM    4  C   UNL     1     -11.472   9.312  70.768  1.00  0.00    -0.351 A  
HETATM    5  C   UNL     1     -11.203  10.433  69.884  1.00  0.00    -0.306 A  
HETATM    6  N   UNL     1     -11.811  11.778  69.894  1.00  0.00    -0.335 NA 
HETATM    7  O   UNL     1      -8.317   6.435  68.496  1.00  0.00    -0.112 OA 
HETATM    8  C   UNL     1     -11.368  12.762  68.954  1.00  0.00    -0.296 C  
HETATM    9  C   UNL     1     -10.388  12.548  68.066  1.00  0.00    -0.226 C  
HETATM   10  O   UNL     1     -11.641   5.068  73.125  1.00  0.00    -0.328 OA 
HETATM   11  C   UNL     1     -11.814  14.208  68.890  1.00  0.00    -0.347 C  
HETATM   12  O   UNL     1     -11.888  14.747  67.645  1.00  0.00    -0.358 OA 
HETATM   13  C   UNL     1      -9.796  11.230  67.936  1.00  0.00    -0.176 C  
HETATM   14  O   UNL     1     -12.043  14.906  69.862  1.00  0.00    -0.305 OA 
HETATM   15  O   UNL     1      -8.974  11.034  67.047  1.00  0.00    -0.145 OA 
HETATM   16  C   UNL     1     -10.214  10.186  68.881  1.00  0.00    -0.213 A  
HETATM   17  C   UNL     1      -9.553   8.957  68.714  1.00  0.00    -0.159 A  
HETATM   18  C   UNL     1      -9.833   7.903  69.555  1.00  0.00    -0.176 A  
HETATM   19  C   UNL     1     -10.765   8.070  70.570  1.00  0.00    -0.229 A  
HETATM   20  O   UNL     1     -11.033   7.029  71.442  1.00  0.00    -0.235 OA 
HETATM   21  C   UNL     1     -10.388   5.806  71.270  1.00  0.00    -0.223 C  
HETATM   22  C   UNL     1     -10.723   4.698  72.207  1.00  0.00    -0.078 C  
HETATM   23  C   UNL     1      -9.480   5.550  70.318  1.00  0.00    -0.211 C  
HETATM   24  O   UNL     1     -10.238   3.577  72.164  1.00  0.00    -0.156 OA 
HETATM   25  C   UNL     1      -9.140   6.619  69.382  1.00  0.00    -0.143 C  
BRANCH   6  26
HETATM   26  C   UNL     1     -12.913  11.921  70.864  1.00  0.00    -0.010 C  
HETATM   27  C   UNL     1     -12.845  12.729  72.137  1.00  0.00    -0.219 C  
ENDBRANCH   6  26
ENDBRANCH   3   4
ENDBRANCH   2   3
TORSDOF 3
ENDMDL
MODEL       54
REMARK 921   NORMALIZED FREE ENERGY PREDICTED BY IDOCK:   -5.36 KCAL/MOL
REMARK 922        TOTAL FREE ENERGY PREDICTED BY IDOCK:   -6.78 KCAL/MOL
REMARK 923 INTER-LIGAND FREE ENERGY PREDICTED BY IDOCK:   -6.49 KCAL/MOL
REMARK 924 INTRA-LIGAND FREE ENERGY PREDICTED BY IDOCK:   -0.29 KCAL/MOL
REMARK 927      BINDING AFFINITY PREDICTED BY RF-SCORE:    0.00 PKD
ROOT
HETATM    1  C   UNL     1     -11.209  15.287  70.417  1.00  0.00    -0.325 C  
HETATM    2  C   UNL     1     -11.776  15.759  69.086  1.00  0.00    -0.398 C  
ENDROOT
BRANCH   2   3
HETATM    3  C   UNL     1     -11.480  14.749  67.969  1.00  0.00    -0.351 C  
BRANCH   3   4
HETATM    4  C   UNL     1     -10.001  14.356  67.911  1.00  0.00    -0.228 A  
HETATM    5  C   UNL     1      -9.399  13.062  68.179  1.00  0.00    -0.217 A  
HETATM    6  N   UNL     1     -10.052  11.822  68.644  1.00  0.00    -0.212 NA 
HETATM    7  O   UNL     1      -5.770  16.361  66.699  1.00  0.00    -0.323 OA 
HETATM    8  C   UNL     1      -9.276  10.631  68.805  1.00  0.00    -0.180 C  
HETATM    9  C   UNL     1      -7.969  10.556  68.520  1.00  0.00    -0.118 C  
HETATM   10  O   UNL     1     -11.018  18.968  66.773  1.00  0.00    -0.325 OA 
HETATM   11  C   UNL     1      -9.801   9.260  69.178  1.00  0.00    -0.167 C  
HETATM   12  O   UNL     1      -8.975   8.502  69.945  1.00  0.00    -0.141 OA 
HETATM   13  C   UNL     1      -7.236  11.748  68.137  1.00  0.00    -0.086 C  
HETATM   14  O   UNL     1     -10.859   8.795  68.791  1.00  0.00    -0.127 OA 
HETATM   15  O   UNL     1      -6.022  11.673  67.982  1.00  0.00    -0.046 OA 
HETATM   16  C   UNL     1      -7.989  12.995  67.954  1.00  0.00    -0.157 A  
HETATM   17  C   UNL     1      -7.207  14.085  67.534  1.00  0.00    -0.183 A  
HETATM   18  C   UNL     1      -7.797  15.307  67.299  1.00  0.00    -0.240 A  
HETATM   19  C   UNL     1      -9.166  15.448  67.472  1.00  0.00    -0.199 A  
HETATM   20  O   UNL     1      -9.777  16.662  67.209  1.00  0.00    -0.238 OA 
HETATM   21  C   UNL     1      -9.002  17.747  66.804  1.00  0.00    -0.259 C  
HETATM   22  C   UNL     1      -9.687  19.047  66.559  1.00  0.00    -0.357 C  
HETATM   23  C   UNL     1      -7.676  17.709  66.617  1.00  0.00    -0.284 C  
HETATM   24  O   UNL     1      -9.128  20.075  66.210  1.00  0.00    -0.357 OA 
HETATM   25  C   UNL     1      -6.980  16.447  66.858  1.00  0.00    -0.212 C  
BRANCH   6  26
HETATM   26  C   UNL     1     -11.477  11.996  68.982  1.00  0.00    -0.300 C  
HETATM   27  C   UNL     1     -12.086  11.712  70.334  1.00  0.00    -0.462 C  
ENDBRANCH   6  26
ENDBRANCH   3   4
ENDBRANCH   2   3
TORSDOF 3
ENDMDL
MODEL       55
REMARK 921   NORMALIZED FREE ENERGY PREDICTED BY IDOCK:   -5.23 KCAL/MOL
REMARK 922        TOTAL FREE ENERGY PREDICTED BY IDOCK:   -6.63 KCAL/MOL
REMARK 923 INTER-LIGAND FREE ENERGY PREDICTED BY IDOCK:   -6.22 KCAL/MOL
REMARK 924 INTRA-LIGAND FREE ENERGY PREDICTED BY IDOCK:   -0.40 KCAL/MOL
REMARK 927      BINDING AFFINITY PREDICTED BY RF-SCORE:    0.00 PKD
ROOT
HETATM    1  C   UNL     1      -9.218   7.086  70.504  1.00  0.00    -0.159 C  
HETATM    2  C   UNL     1      -9.121   8.267  69.550  1.00  0.00    -0.154 C  
ENDROOT
BRANCH   2   3
HETATM    3  C   UNL     1     -10.219   8.205  68.479  1.00  0.00    -0.233 C  
BRANCH   3   4
HETATM    4  C   UNL     1     -10.251   9.459  67.600  1.00  0.00    -0.281 A  
HETATM    5  C   UNL     1      -9.697   9.645  66.270  1.00  0.00    -0.240 A  
HETATM    6  N   UNL     1      -8.903   8.697  65.464  1.00  0.00    -0.189 NA 
HETATM    7  O   UNL     1     -12.143  13.909  67.713  1.00  0.00    -0.371 OA 
HETATM    8  C   UNL     1      -8.487   9.065  64.145  1.00  0.00    -0.170 C  
HETATM    9  C   UNL     1      -8.810  10.229  63.566  1.00  0.00    -0.232 C  
HETATM   10  O   UNL     1     -12.459   9.831  71.911  1.00  0.00    -0.381 OA 
HETATM   11  C   UNL     1      -7.755   8.183  63.156  1.00  0.00    -0.139 C  
HETATM   12  O   UNL     1      -6.865   8.816  62.348  1.00  0.00    -0.095 OA 
HETATM   13  C   UNL     1      -9.518  11.247  64.319  1.00  0.00    -0.178 C  
HETATM   14  O   UNL     1      -7.958   6.990  63.009  1.00  0.00    -0.119 OA 
HETATM   15  O   UNL     1      -9.711  12.341  63.800  1.00  0.00    -0.230 OA 
HETATM   16  C   UNL     1      -9.970  10.917  65.677  1.00  0.00    -0.305 A  
HETATM   17  C   UNL     1     -10.690  11.943  66.312  1.00  0.00    -0.309 A  
HETATM   18  C   UNL     1     -11.195  11.750  67.578  1.00  0.00    -0.354 A  
HETATM   19  C   UNL     1     -10.993  10.533  68.215  1.00  0.00    -0.263 A  
HETATM   20  O   UNL     1     -11.522  10.315  69.475  1.00  0.00    -0.242 OA 
HETATM   21  C   UNL     1     -12.225  11.335  70.111  1.00  0.00    -0.330 C  
HETATM   22  C   UNL     1     -12.754  11.077  71.479  1.00  0.00    -0.415 C  
HETATM   23  C   UNL     1     -12.464  12.542  69.580  1.00  0.00     0.129 C  
HETATM   24  O   UNL     1     -13.378  11.884  72.150  1.00  0.00    -0.503 OA 
HETATM   25  C   UNL     1     -11.949  12.823  68.242  1.00  0.00    -0.229 C  
BRANCH   6  26
HETATM   26  C   UNL     1      -8.547   7.461  66.186  1.00  0.00    -0.146 C  
HETATM   27  C   UNL     1      -7.177   7.144  66.735  1.00  0.00    -0.083 C  
ENDBRANCH   6  26
ENDBRANCH   3   4
ENDBRANCH   2   3
TORSDOF 3
ENDMDL
MODEL       56
REMARK 921   NORMALIZED FREE ENERGY PREDICTED BY IDOCK:   -5.22 KCAL/MOL
REMARK 922        TOTAL FREE ENERGY PREDICTED BY IDOCK:   -6.61 KCAL/MOL
REMARK 923 INTER-LIGAND FREE ENERGY PREDICTED BY IDOCK:   -6.65 KCAL/MOL
REMARK 924 INTRA-LIGAND FREE ENERGY PREDICTED BY IDOCK:    0.03 KCAL/MOL
REMARK 927      BINDING AFFINITY PREDICTED BY RF-SCORE:    0.00 PKD
ROOT
HETATM    1  C   UNL     1     -10.459   5.506  66.784  1.00  0.00    -0.355 C  
HETATM    2  C   UNL     1     -10.914   6.955  66.695  1.00  0.00     0.009 C  
ENDROOT
BRANCH   2   3
HETATM    3  C   UNL     1      -9.840   7.907  67.239  1.00  0.00    -0.256 C  
BRANCH   3   4
HETATM    4  C   UNL     1     -10.428   9.231  67.736  1.00  0.00    -0.313 A  
HETATM    5  C   UNL     1     -11.029   9.526  69.025  1.00  0.00    -0.100 A  
HETATM    6  N   UNL     1     -11.289   8.607  70.150  1.00  0.00    -0.148 NA 
HETATM    7  O   UNL     1     -10.892  13.790  66.188  1.00  0.00    -0.279 OA 
HETATM    8  C   UNL     1     -11.855   9.115  71.363  1.00  0.00    -0.345 C  
HETATM    9  C   UNL     1     -12.139  10.409  71.561  1.00  0.00    -0.364 C  
HETATM   10  O   UNL     1      -8.585   9.280  63.242  1.00  0.00    -0.201 OA 
HETATM   11  C   UNL     1     -12.095   8.334  72.638  1.00  0.00    -0.263 C  
HETATM   12  O   UNL     1     -13.195   8.693  73.350  1.00  0.00     0.191 OA 
HETATM   13  C   UNL     1     -11.990  11.363  70.478  1.00  0.00    -0.356 C  
HETATM   14  O   UNL     1     -11.349   7.475  73.074  1.00  0.00    -0.341 OA 
HETATM   15  O   UNL     1     -12.354  12.521  70.653  1.00  0.00    -0.355 OA 
HETATM   16  C   UNL     1     -11.409  10.892  69.214  1.00  0.00    -0.345 A  
HETATM   17  C   UNL     1     -11.255  11.893  68.240  1.00  0.00    -0.317 A  
HETATM   18  C   UNL     1     -10.695  11.588  67.019  1.00  0.00    -0.300 A  
HETATM   19  C   UNL     1     -10.279  10.289  66.766  1.00  0.00    -0.228 A  
HETATM   20  O   UNL     1      -9.686   9.976  65.555  1.00  0.00    -0.247 OA 
HETATM   21  C   UNL     1      -9.544  10.964  64.583  1.00  0.00    -0.257 C  
HETATM   22  C   UNL     1      -8.930  10.585  63.280  1.00  0.00    -0.229 C  
HETATM   23  C   UNL     1      -9.921  12.241  64.734  1.00  0.00    -0.215 C  
HETATM   24  O   UNL     1      -8.754  11.349  62.344  1.00  0.00    -0.300 OA 
HETATM   25  C   UNL     1     -10.533  12.636  66.001  1.00  0.00    -0.268 C  
BRANCH   6  26
HETATM   26  C   UNL     1     -10.997   7.195  69.840  1.00  0.00    -0.253 C  
HETATM   27  C   UNL     1      -9.978   6.345  70.559  1.00  0.00    -0.214 C  
ENDBRANCH   6  26
ENDBRANCH   3   4
ENDBRANCH   2   3
TORSDOF 3
ENDMDL
MODEL       57
REMARK 921   NORMALIZED FREE ENERGY PREDICTED BY IDOCK:   -5.20 KCAL/MOL
REMARK 922        TOTAL FREE ENERGY PREDICTED BY IDOCK:   -6.58 KCAL/MOL
REMARK 923 INTER-LIGAND FREE ENERGY PREDICTED BY IDOCK:   -6.24 KCAL/MOL
REMARK 924 INTRA-LIGAND FREE ENERGY PREDICTED BY IDOCK:   -0.35 KCAL/MOL
REMARK 927      BINDING AFFINITY PREDICTED BY RF-SCORE:    0.00 PKD
ROOT
HETATM    1  C   UNL     1     -11.984  13.304  65.772  1.00  0.00    -0.463 C  
HETATM    2  C   UNL     1     -11.122  13.972  66.834  1.00  0.00    -0.310 C  
ENDROOT
BRANCH   2   3
HETATM    3  C   UNL     1      -9.642  13.969  66.429  1.00  0.00    -0.299 C  
BRANCH   3   4
HETATM    4  C   UNL     1      -8.737  14.568  67.509  1.00  0.00    -0.195 A  
HETATM    5  C   UNL     1      -7.863  13.878  68.441  1.00  0.00    -0.138 A  
HETATM    6  N   UNL     1      -7.684  12.424  68.629  1.00  0.00    -0.101 NA 
HETATM    7  O   UNL     1      -7.382  18.938  69.076  1.00  0.00    -0.319 OA 
HETATM    8  C   UNL     1      -6.729  11.947  69.582  1.00  0.00    -0.009 C  
HETATM    9  C   UNL     1      -5.942  12.753  70.308  1.00  0.00    -0.127 C  
HETATM   10  O   UNL     1     -11.253  17.753  64.840  1.00  0.00    -0.705 OA 
HETATM   11  C   UNL     1      -6.353  10.501  69.830  1.00  0.00    -0.104 C  
HETATM   12  O   UNL     1      -6.047  10.184  71.115  1.00  0.00    -0.261 OA 
HETATM   13  C   UNL     1      -6.113  14.192  70.242  1.00  0.00    -0.164 C  
HETATM   14  O   UNL     1      -6.256   9.652  68.961  1.00  0.00    -0.041 OA 
HETATM   15  O   UNL     1      -5.451  14.902  70.992  1.00  0.00    -0.133 OA 
HETATM   16  C   UNL     1      -7.078  14.732  69.276  1.00  0.00    -0.154 A  
HETATM   17  C   UNL     1      -7.141  16.136  69.246  1.00  0.00    -0.220 A  
HETATM   18  C   UNL     1      -7.986  16.770  68.363  1.00  0.00    -0.224 A  
HETATM   19  C   UNL     1      -8.766  16.011  67.502  1.00  0.00    -0.182 A  
HETATM   20  O   UNL     1      -9.597  16.635  66.588  1.00  0.00    -0.240 OA 
HETATM   21  C   UNL     1      -9.670  18.026  66.564  1.00  0.00    -0.338 C  
HETATM   22  C   UNL     1     -10.598  18.664  65.589  1.00  0.00    -0.132 C  
HETATM   23  C   UNL     1      -8.962  18.840  67.359  1.00  0.00    -0.288 C  
HETATM   24  O   UNL     1     -10.763  19.869  65.470  1.00  0.00    -0.461 OA 
HETATM   25  C   UNL     1      -8.051  18.238  68.330  1.00  0.00    -0.297 C  
BRANCH   6  26
HETATM   26  C   UNL     1      -8.617  11.606  67.834  1.00  0.00    -0.150 C  
HETATM   27  C   UNL     1      -9.889  10.987  68.360  1.00  0.00    -0.186 C  
ENDBRANCH   6  26
ENDBRANCH   3   4
ENDBRANCH   2   3
TORSDOF 3
ENDMDL
MODEL       58
REMARK 921   NORMALIZED FREE ENERGY PREDICTED BY IDOCK:   -5.17 KCAL/MOL
REMARK 922        TOTAL FREE ENERGY PREDICTED BY IDOCK:   -6.55 KCAL/MOL
REMARK 923 INTER-LIGAND FREE ENERGY PREDICTED BY IDOCK:   -6.18 KCAL/MOL
REMARK 924 INTRA-LIGAND FREE ENERGY PREDICTED BY IDOCK:   -0.37 KCAL/MOL
REMARK 927      BINDING AFFINITY PREDICTED BY RF-SCORE:    0.00 PKD
ROOT
HETATM    1  C   UNL     1     -12.264  15.051  69.656  1.00  0.00    -0.293 C  
HETATM    2  C   UNL     1     -12.006  13.672  70.243  1.00  0.00    -0.397 C  
ENDROOT
BRANCH   2   3
HETATM    3  C   UNL     1     -11.963  12.601  69.144  1.00  0.00    -0.293 C  
BRANCH   3   4
HETATM    4  C   UNL     1     -10.689  11.753  69.201  1.00  0.00    -0.169 A  
HETATM    5  C   UNL     1     -10.509  10.428  69.769  1.00  0.00    -0.240 A  
HETATM    6  N   UNL     1     -11.490   9.599  70.496  1.00  0.00    -0.272 NA 
HETATM    7  O   UNL     1      -6.122  11.977  67.624  1.00  0.00    -0.068 OA 
HETATM    8  C   UNL     1     -11.120   8.290  70.939  1.00  0.00    -0.261 C  
HETATM    9  C   UNL     1      -9.921   7.739  70.699  1.00  0.00    -0.186 C  
HETATM   10  O   UNL     1     -10.270  16.072  67.017  1.00  0.00    -0.270 OA 
HETATM   11  C   UNL     1     -12.026   7.278  71.609  1.00  0.00    -0.308 C  
HETATM   12  O   UNL     1     -11.436   6.487  72.543  1.00  0.00    -0.268 OA 
HETATM   13  C   UNL     1      -8.875   8.518  70.063  1.00  0.00    -0.141 C  
HETATM   14  O   UNL     1     -13.197   7.102  71.324  1.00  0.00    -0.377 OA 
HETATM   15  O   UNL     1      -7.758   8.026  69.948  1.00  0.00    -0.095 OA 
HETATM   16  C   UNL     1      -9.207   9.867  69.587  1.00  0.00    -0.246 A  
HETATM   17  C   UNL     1      -8.149  10.527  68.939  1.00  0.00    -0.138 A  
HETATM   18  C   UNL     1      -8.338  11.788  68.420  1.00  0.00    -0.153 A  
HETATM   19  C   UNL     1      -9.581  12.394  68.535  1.00  0.00    -0.118 A  
HETATM   20  O   UNL     1      -9.793  13.649  67.991  1.00  0.00    -0.228 OA 
HETATM   21  C   UNL     1      -8.743  14.310  67.359  1.00  0.00    -0.209 C  
HETATM   22  C   UNL     1      -8.997  15.672  66.811  1.00  0.00    -0.261 C  
HETATM   23  C   UNL     1      -7.509  13.809  67.205  1.00  0.00    -0.048 C  
HETATM   24  O   UNL     1      -8.165  16.362  66.243  1.00  0.00    -0.308 OA 
HETATM   25  C   UNL     1      -7.232  12.479  67.741  1.00  0.00    -0.125 C  
BRANCH   6  26
HETATM   26  C   UNL     1     -12.765  10.290  70.764  1.00  0.00    -0.346 C  
HETATM   27  C   UNL     1     -13.226  10.758  72.123  1.00  0.00    -0.360 C  
ENDBRANCH   6  26
ENDBRANCH   3   4
ENDBRANCH   2   3
TORSDOF 3
ENDMDL
MODEL       59
REMARK 921   NORMALIZED FREE ENERGY PREDICTED BY IDOCK:   -5.15 KCAL/MOL
REMARK 922        TOTAL FREE ENERGY PREDICTED BY IDOCK:   -6.52 KCAL/MOL
REMARK 923 INTER-LIGAND FREE ENERGY PREDICTED BY IDOCK:   -6.13 KCAL/MOL
REMARK 924 INTRA-LIGAND FREE ENERGY PREDICTED BY IDOCK:   -0.39 KCAL/MOL
REMARK 927      BINDING AFFINITY PREDICTED BY RF-SCORE:    0.00 PKD
ROOT
HETATM    1  C   UNL     1     -13.104  10.558  71.678  1.00  0.00    -0.551 C  
HETATM    2  C   UNL     1     -12.716  11.527  70.571  1.00  0.00    -0.193 C  
ENDROOT
BRANCH   2   3
HETATM    3  C   UNL     1     -11.193  11.576  70.386  1.00  0.00     0.307 C  
BRANCH   3   4
HETATM    4  C   UNL     1     -10.771  11.334  68.934  1.00  0.00    -0.246 A  
HETATM    5  C   UNL     1     -10.463  10.074  68.280  1.00  0.00    -0.213 A  
HETATM    6  N   UNL     1     -10.411   8.721  68.869  1.00  0.00    -0.214 NA 
HETATM    7  O   UNL     1     -10.159  13.886  64.872  1.00  0.00    -0.369 OA 
HETATM    8  C   UNL     1     -10.129   7.595  68.031  1.00  0.00    -0.187 C  
HETATM    9  C   UNL     1      -9.940   7.687  66.708  1.00  0.00    -0.317 C  
HETATM   10  O   UNL     1     -11.636  15.956  70.151  1.00  0.00    -0.324 OA 
HETATM   11  C   UNL     1     -10.133   6.140  68.451  1.00  0.00    -0.158 C  
HETATM   12  O   UNL     1      -9.219   5.347  67.833  1.00  0.00    -0.108 OA 
HETATM   13  C   UNL     1      -9.893   8.987  66.066  1.00  0.00    -0.242 C  
HETATM   14  O   UNL     1     -10.921   5.649  69.240  1.00  0.00    -0.304 OA 
HETATM   15  O   UNL     1      -9.617   9.050  64.873  1.00  0.00     0.066 OA 
HETATM   16  C   UNL     1     -10.181  10.174  66.882  1.00  0.00    -0.295 A  
HETATM   17  C   UNL     1     -10.163  11.384  66.168  1.00  0.00    -0.282 A  
HETATM   18  C   UNL     1     -10.445  12.569  66.811  1.00  0.00    -0.243 A  
HETATM   19  C   UNL     1     -10.752  12.554  68.164  1.00  0.00    -0.227 A  
HETATM   20  O   UNL     1     -11.067  13.734  68.816  1.00  0.00    -0.246 OA 
HETATM   21  C   UNL     1     -11.039  14.936  68.113  1.00  0.00    -0.283 C  
HETATM   22  C   UNL     1     -11.354  16.190  68.852  1.00  0.00    -0.350 C  
HETATM   23  C   UNL     1     -10.748  15.050  66.809  1.00  0.00    -0.308 C  
HETATM   24  O   UNL     1     -11.357  17.308  68.360  1.00  0.00    -0.047 OA 
HETATM   25  C   UNL     1     -10.429  13.835  66.064  1.00  0.00    -0.297 C  
BRANCH   6  26
HETATM   26  C   UNL     1     -10.581   8.707  70.334  1.00  0.00    -0.220 C  
HETATM   27  C   UNL     1      -9.463   8.529  71.332  1.00  0.00    -0.279 C  
ENDBRANCH   6  26
ENDBRANCH   3   4
ENDBRANCH   2   3
TORSDOF 3
ENDMDL
MODEL       60
REMARK 921   NORMALIZED FREE ENERGY PREDICTED BY IDOCK:   -5.11 KCAL/MOL
REMARK 922        TOTAL FREE ENERGY PREDICTED BY IDOCK:   -6.49 KCAL/MOL
REMARK 923 INTER-LIGAND FREE ENERGY PREDICTED BY IDOCK:   -6.29 KCAL/MOL
REMARK 924 INTRA-LIGAND FREE ENERGY PREDICTED BY IDOCK:   -0.19 KCAL/MOL
REMARK 927      BINDING AFFINITY PREDICTED BY RF-SCORE:    0.00 PKD
ROOT
HETATM    1  C   UNL     1     -10.570   8.824  67.701  1.00  0.00    -0.281 C  
HETATM    2  C   UNL     1      -9.430   9.780  68.018  1.00  0.00    -0.144 C  
ENDROOT
BRANCH   2   3
HETATM    3  C   UNL     1      -8.997   9.659  69.485  1.00  0.00    -0.203 C  
BRANCH   3   4
HETATM    4  C   UNL     1      -9.984   8.839  70.322  1.00  0.00    -0.210 A  
HETATM    5  C   UNL     1      -9.890   7.446  70.722  1.00  0.00    -0.178 A  
HETATM    6  N   UNL     1      -8.858   6.453  70.362  1.00  0.00    -0.150 NA 
HETATM    7  O   UNL     1     -14.106   9.528  72.756  1.00  0.00    -0.333 OA 
HETATM    8  C   UNL     1      -8.929   5.131  70.905  1.00  0.00    -0.135 C  
HETATM    9  C   UNL     1      -9.874   4.736  71.768  1.00  0.00    -0.242 C  
HETATM   10  O   UNL     1     -11.184  13.486  69.571  1.00  0.00    -0.222 OA 
HETATM   11  C   UNL     1      -7.909   4.028  70.718  1.00  0.00    -0.051 C  
HETATM   12  O   UNL     1      -8.410   2.767  70.654  1.00  0.00    -0.051 OA 
HETATM   13  C   UNL     1     -10.969   5.624  72.108  1.00  0.00    -0.250 C  
HETATM   14  O   UNL     1      -6.702   4.198  70.682  1.00  0.00    -0.031 OA 
HETATM   15  O   UNL     1     -11.875   5.203  72.819  1.00  0.00    -0.219 OA 
HETATM   16  C   UNL     1     -10.941   6.994  71.580  1.00  0.00    -0.260 A  
HETATM   17  C   UNL     1     -12.013   7.798  72.001  1.00  0.00    -0.350 A  
HETATM   18  C   UNL     1     -12.089   9.113  71.599  1.00  0.00    -0.432 A  
HETATM   19  C   UNL     1     -11.095   9.635  70.783  1.00  0.00    -0.334 A  
HETATM   20  O   UNL     1     -11.142  10.963  70.397  1.00  0.00    -0.225 OA 
HETATM   21  C   UNL     1     -12.211  11.759  70.803  1.00  0.00    -0.326 C  
HETATM   22  C   UNL     1     -12.247  13.176  70.344  1.00  0.00    -0.316 C  
HETATM   23  C   UNL     1     -13.218  11.343  71.583  1.00  0.00    -0.413 C  
HETATM   24  O   UNL     1     -13.127  13.976  70.620  1.00  0.00    -0.260 OA 
HETATM   25  C   UNL     1     -13.210   9.955  72.041  1.00  0.00    -0.456 C  
BRANCH   6  26
HETATM   26  C   UNL     1      -7.883   6.947  69.372  1.00  0.00    -0.113 C  
HETATM   27  C   UNL     1      -7.812   6.503  67.932  1.00  0.00    -0.108 C  
ENDBRANCH   6  26
ENDBRANCH   3   4
ENDBRANCH   2   3
TORSDOF 3
ENDMDL
MODEL       61
REMARK 921   NORMALIZED FREE ENERGY PREDICTED BY IDOCK:   -5.09 KCAL/MOL
REMARK 922        TOTAL FREE ENERGY PREDICTED BY IDOCK:   -6.46 KCAL/MOL
REMARK 923 INTER-LIGAND FREE ENERGY PREDICTED BY IDOCK:   -6.37 KCAL/MOL
REMARK 924 INTRA-LIGAND FREE ENERGY PREDICTED BY IDOCK:   -0.09 KCAL/MOL
REMARK 927      BINDING AFFINITY PREDICTED BY RF-SCORE:    0.00 PKD
ROOT
HETATM    1  C   UNL     1     -10.984  12.497  63.843  1.00  0.00    -0.471 C  
HETATM    2  C   UNL     1     -10.374  11.154  64.218  1.00  0.00    -0.413 C  
ENDROOT
BRANCH   2   3
HETATM    3  C   UNL     1      -9.458  11.286  65.443  1.00  0.00    -0.251 C  
BRANCH   3   4
HETATM    4  C   UNL     1      -9.991  10.522  66.658  1.00  0.00    -0.260 A  
HETATM    5  C   UNL     1      -9.880   9.104  66.955  1.00  0.00    -0.217 A  
HETATM    6  N   UNL     1      -9.290   8.034  66.126  1.00  0.00    -0.178 NA 
HETATM    7  O   UNL     1     -12.249  11.479  70.827  1.00  0.00    -0.374 OA 
HETATM    8  C   UNL     1      -9.241   6.695  66.628  1.00  0.00    -0.157 C  
HETATM    9  C   UNL     1      -9.674   6.347  67.847  1.00  0.00    -0.124 C  
HETATM   10  O   UNL     1     -10.837  15.305  66.619  1.00  0.00    -0.308 OA 
HETATM   11  C   UNL     1      -8.589   5.507  65.954  1.00  0.00    -0.141 C  
HETATM   12  O   UNL     1      -9.203   4.310  66.146  1.00  0.00    -0.129 OA 
HETATM   13  C   UNL     1     -10.341   7.320  68.691  1.00  0.00    -0.193 C  
HETATM   14  O   UNL     1      -7.548   5.554  65.321  1.00  0.00    -0.075 OA 
HETATM   15  O   UNL     1     -10.819   6.951  69.758  1.00  0.00    -0.234 OA 
HETATM   16  C   UNL     1     -10.413   8.710  68.221  1.00  0.00    -0.234 A  
HETATM   17  C   UNL     1     -11.031   9.593  69.124  1.00  0.00    -0.177 A  
HETATM   18  C   UNL     1     -11.137  10.931  68.816  1.00  0.00    -0.310 A  
HETATM   19  C   UNL     1     -10.623  11.397  67.615  1.00  0.00    -0.202 A  
HETATM   20  O   UNL     1     -10.696  12.745  67.307  1.00  0.00    -0.234 OA 
HETATM   21  C   UNL     1     -11.318  13.620  68.194  1.00  0.00    -0.288 C  
HETATM   22  C   UNL     1     -11.406  15.058  67.818  1.00  0.00    -0.330 C  
HETATM   23  C   UNL     1     -11.848  13.262  69.372  1.00  0.00    -0.386 C  
HETATM   24  O   UNL     1     -11.930  15.927  68.498  1.00  0.00    -0.306 OA 
HETATM   25  C   UNL     1     -11.781  11.855  69.761  1.00  0.00    -0.331 C  
BRANCH   6  26
HETATM   26  C   UNL     1      -8.881   8.486  64.782  1.00  0.00     0.062 C  
HETATM   27  C   UNL     1      -7.455   8.709  64.342  1.00  0.00    -0.108 C  
ENDBRANCH   6  26
ENDBRANCH   3   4
ENDBRANCH   2   3
TORSDOF 3
ENDMDL
MODEL       62
REMARK 921   NORMALIZED FREE ENERGY PREDICTED BY IDOCK:   -5.06 KCAL/MOL
REMARK 922        TOTAL FREE ENERGY PREDICTED BY IDOCK:   -6.42 KCAL/MOL
REMARK 923 INTER-LIGAND FREE ENERGY PREDICTED BY IDOCK:   -6.16 KCAL/MOL
REMARK 924 INTRA-LIGAND FREE ENERGY PREDICTED BY IDOCK:   -0.26 KCAL/MOL
REMARK 927      BINDING AFFINITY PREDICTED BY RF-SCORE:    0.00 PKD
ROOT
HETATM    1  C   UNL     1      -6.283   9.041  68.916  1.00  0.00    -0.044 C  
HETATM    2  C   UNL     1      -7.189   8.232  69.832  1.00  0.00    -0.059 C  
ENDROOT
BRANCH   2   3
HETATM    3  C   UNL     1      -8.545   7.957  69.168  1.00  0.00    -0.138 C  
BRANCH   3   4
HETATM    4  C   UNL     1      -9.698   7.940  70.176  1.00  0.00    -0.179 A  
HETATM    5  C   UNL     1     -10.659   8.990  70.467  1.00  0.00    -0.227 A  
HETATM    6  N   UNL     1     -10.719  10.359  69.918  1.00  0.00    -0.281 NA 
HETATM    7  O   UNL     1     -11.776   4.834  73.245  1.00  0.00    -0.312 OA 
HETATM    8  C   UNL     1     -11.785  11.231  70.307  1.00  0.00    -0.324 C  
HETATM    9  C   UNL     1     -12.777  10.865  71.131  1.00  0.00    -0.530 C  
HETATM   10  O   UNL     1      -7.060   3.871  69.903  1.00  0.00    -0.041 OA 
HETATM   11  C   UNL     1     -12.049  12.622  69.770  1.00  0.00    -0.233 C  
HETATM   12  O   UNL     1     -12.562  13.510  70.661  1.00  0.00    -0.320 OA 
HETATM   13  C   UNL     1     -12.746   9.566  71.777  1.00  0.00    -0.404 C  
HETATM   14  O   UNL     1     -11.889  12.959  68.610  1.00  0.00    -0.305 OA 
HETATM   15  O   UNL     1     -13.610   9.296  72.604  1.00  0.00    -0.455 OA 
HETATM   16  C   UNL     1     -11.675   8.633  71.407  1.00  0.00    -0.355 A  
HETATM   17  C   UNL     1     -11.753   7.382  72.043  1.00  0.00    -0.325 A  
HETATM   18  C   UNL     1     -10.824   6.406  71.762  1.00  0.00    -0.283 A  
HETATM   19  C   UNL     1      -9.818   6.666  70.842  1.00  0.00    -0.183 A  
HETATM   20  O   UNL     1      -8.896   5.683  70.527  1.00  0.00    -0.134 OA 
HETATM   21  C   UNL     1      -8.964   4.447  71.165  1.00  0.00    -0.121 C  
HETATM   22  C   UNL     1      -7.938   3.423  70.825  1.00  0.00    -0.050 C  
HETATM   23  C   UNL     1      -9.893   4.107  72.070  1.00  0.00    -0.242 C  
HETATM   24  O   UNL     1      -7.878   2.306  71.315  1.00  0.00    -0.039 OA 
HETATM   25  C   UNL     1     -10.907   5.097  72.426  1.00  0.00    -0.203 C  
BRANCH   6  26
HETATM   26  C   UNL     1      -9.570  10.703  69.060  1.00  0.00    -0.195 C  
HETATM   27  C   UNL     1      -9.616  10.810  67.555  1.00  0.00    -0.176 C  
ENDBRANCH   6  26
ENDBRANCH   3   4
ENDBRANCH   2   3
TORSDOF 3
ENDMDL
MODEL       63
REMARK 921   NORMALIZED FREE ENERGY PREDICTED BY IDOCK:   -5.05 KCAL/MOL
REMARK 922        TOTAL FREE ENERGY PREDICTED BY IDOCK:   -6.42 KCAL/MOL
REMARK 923 INTER-LIGAND FREE ENERGY PREDICTED BY IDOCK:   -6.19 KCAL/MOL
REMARK 924 INTRA-LIGAND FREE ENERGY PREDICTED BY IDOCK:   -0.23 KCAL/MOL
REMARK 927      BINDING AFFINITY PREDICTED BY RF-SCORE:    0.00 PKD
ROOT
HETATM    1  C   UNL     1     -12.365  14.183  64.871  1.00  0.00    -0.446 C  
HETATM    2  C   UNL     1     -11.499  14.789  65.965  1.00  0.00    -0.316 C  
ENDROOT
BRANCH   2   3
HETATM    3  C   UNL     1     -10.057  14.992  65.482  1.00  0.00    -0.400 C  
BRANCH   3   4
HETATM    4  C   UNL     1      -9.035  14.867  66.616  1.00  0.00    -0.301 A  
HETATM    5  C   UNL     1      -8.372  15.927  67.356  1.00  0.00    -0.171 A  
HETATM    6  N   UNL     1      -8.462  17.386  67.151  1.00  0.00    -0.207 NA 
HETATM    7  O   UNL     1      -6.964  11.381  69.252  1.00  0.00    -0.111 OA 
HETATM    8  C   UNL     1      -7.755  18.269  68.029  1.00  0.00    -0.260 C  
HETATM    9  C   UNL     1      -7.027  17.847  69.071  1.00  0.00    -0.243 C  
HETATM   10  O   UNL     1     -10.726  10.686  64.813  1.00  0.00    -0.225 OA 
HETATM   11  C   UNL     1      -7.815  19.782  68.020  1.00  0.00    -0.307 C  
HETATM   12  O   UNL     1      -6.661  20.419  68.351  1.00  0.00    -0.291 OA 
HETATM   13  C   UNL     1      -6.821  16.428  69.292  1.00  0.00    -0.218 C  
HETATM   14  O   UNL     1      -8.820  20.434  67.798  1.00  0.00    -0.271 OA 
HETATM   15  O   UNL     1      -6.067  16.072  70.191  1.00  0.00    -0.175 OA 
HETATM   16  C   UNL     1      -7.529  15.481  68.421  1.00  0.00    -0.115 A  
HETATM   17  C   UNL     1      -7.310  14.130  68.739  1.00  0.00    -0.128 A  
HETATM   18  C   UNL     1      -7.939  13.141  68.015  1.00  0.00    -0.156 A  
HETATM   19  C   UNL     1      -8.793  13.492  66.979  1.00  0.00    -0.211 A  
HETATM   20  O   UNL     1      -9.455  12.509  66.264  1.00  0.00    -0.235 OA 
HETATM   21  C   UNL     1      -9.231  11.169  66.570  1.00  0.00    -0.179 C  
HETATM   22  C   UNL     1      -9.936  10.136  65.760  1.00  0.00    -0.271 C  
HETATM   23  C   UNL     1      -8.421  10.734  67.546  1.00  0.00    -0.119 C  
HETATM   24  O   UNL     1      -9.824   8.930  65.917  1.00  0.00    -0.255 OA 
HETATM   25  C   UNL     1      -7.712  11.728  68.349  1.00  0.00    -0.131 C  
BRANCH   6  26
HETATM   26  C   UNL     1      -9.240  17.769  65.958  1.00  0.00    -0.018 C  
HETATM   27  C   UNL     1     -10.535  18.544  65.982  1.00  0.00    -0.433 C  
ENDBRANCH   6  26
ENDBRANCH   3   4
ENDBRANCH   2   3
TORSDOF 3
ENDMDL
MODEL       64
REMARK 921   NORMALIZED FREE ENERGY PREDICTED BY IDOCK:   -5.04 KCAL/MOL
REMARK 922        TOTAL FREE ENERGY PREDICTED BY IDOCK:   -6.40 KCAL/MOL
REMARK 923 INTER-LIGAND FREE ENERGY PREDICTED BY IDOCK:   -6.21 KCAL/MOL
REMARK 924 INTRA-LIGAND FREE ENERGY PREDICTED BY IDOCK:   -0.19 KCAL/MOL
REMARK 927      BINDING AFFINITY PREDICTED BY RF-SCORE:    0.00 PKD
ROOT
HETATM    1  C   UNL     1      -7.566   8.876  64.746  1.00  0.00    -0.106 C  
HETATM    2  C   UNL     1      -8.208  10.155  65.260  1.00  0.00    -0.157 C  
ENDROOT
BRANCH   2   3
HETATM    3  C   UNL     1      -9.730  10.000  65.385  1.00  0.00    -0.368 C  
BRANCH   3   4
HETATM    4  C   UNL     1     -10.224  10.200  66.821  1.00  0.00    -0.289 A  
HETATM    5  C   UNL     1     -10.674  11.424  67.459  1.00  0.00    -0.222 A  
HETATM    6  N   UNL     1     -10.699  12.793  66.908  1.00  0.00    -0.251 NA 
HETATM    7  O   UNL     1     -11.163   7.513  70.730  1.00  0.00    -0.261 OA 
HETATM    8  C   UNL     1     -11.229  13.864  67.695  1.00  0.00    -0.295 C  
HETATM    9  C   UNL     1     -11.749  13.695  68.919  1.00  0.00    -0.377 C  
HETATM   10  O   UNL     1      -8.986   5.660  65.615  1.00  0.00    -0.160 OA 
HETATM   11  C   UNL     1     -11.416  15.299  67.250  1.00  0.00    -0.224 C  
HETATM   12  O   UNL     1     -11.230  16.243  68.210  1.00  0.00    -0.352 OA 
HETATM   13  C   UNL     1     -11.688  12.397  69.565  1.00  0.00    -0.322 C  
HETATM   14  O   UNL     1     -11.770  15.638  66.134  1.00  0.00     0.174 OA 
HETATM   15  O   UNL     1     -12.078  12.293  70.722  1.00  0.00    -0.340 OA 
HETATM   16  C   UNL     1     -11.157  11.264  68.795  1.00  0.00    -0.288 A  
HETATM   17  C   UNL     1     -11.182  10.038  69.482  1.00  0.00    -0.254 A  
HETATM   18  C   UNL     1     -10.738   8.892  68.861  1.00  0.00    -0.132 A  
HETATM   19  C   UNL     1     -10.275   8.959  67.555  1.00  0.00    -0.248 A  
HETATM   20  O   UNL     1      -9.855   7.809  66.909  1.00  0.00    -0.194 OA 
HETATM   21  C   UNL     1      -9.868   6.594  67.591  1.00  0.00    -0.126 C  
HETATM   22  C   UNL     1      -9.380   5.382  66.876  1.00  0.00    -0.127 C  
HETATM   23  C   UNL     1     -10.290   6.433  68.853  1.00  0.00    -0.237 C  
HETATM   24  O   UNL     1      -9.331   4.261  67.358  1.00  0.00    -0.140 OA 
HETATM   25  C   UNL     1     -10.766   7.608  69.578  1.00  0.00    -0.209 C  
BRANCH   6  26
HETATM   26  C   UNL     1     -10.066  12.908  65.580  1.00  0.00    -0.272 C  
HETATM   27  C   UNL     1     -10.812  13.009  64.273  1.00  0.00    -0.430 C  
ENDBRANCH   6  26
ENDBRANCH   3   4
ENDBRANCH   2   3
TORSDOF 3
ENDMDL
MODEL       65
REMARK 921   NORMALIZED FREE ENERGY PREDICTED BY IDOCK:   -5.03 KCAL/MOL
REMARK 922        TOTAL FREE ENERGY PREDICTED BY IDOCK:   -6.39 KCAL/MOL
REMARK 923 INTER-LIGAND FREE ENERGY PREDICTED BY IDOCK:   -6.29 KCAL/MOL
REMARK 924 INTRA-LIGAND FREE ENERGY PREDICTED BY IDOCK:   -0.10 KCAL/MOL
REMARK 927      BINDING AFFINITY PREDICTED BY RF-SCORE:    0.00 PKD
ROOT
HETATM    1  C   UNL     1     -12.379  13.736  70.577  1.00  0.00    -0.429 C  
HETATM    2  C   UNL     1     -12.388  12.280  71.020  1.00  0.00    -0.320 C  
ENDROOT
BRANCH   2   3
HETATM    3  C   UNL     1     -12.630  11.341  69.831  1.00  0.00    -0.129 C  
BRANCH   3   4
HETATM    4  C   UNL     1     -11.354  10.625  69.379  1.00  0.00    -0.348 A  
HETATM    5  C   UNL     1     -10.798   9.375  69.866  1.00  0.00    -0.236 A  
HETATM    6  N   UNL     1     -11.283   8.520  70.968  1.00  0.00    -0.260 NA 
HETATM    7  O   UNL     1      -7.906  11.149  66.027  1.00  0.00    -0.123 OA 
HETATM    8  C   UNL     1     -10.608   7.293  71.261  1.00  0.00    -0.220 C  
HETATM    9  C   UNL     1      -9.559   6.841  70.561  1.00  0.00    -0.174 C  
HETATM   10  O   UNL     1     -12.397  14.767  67.066  1.00  0.00    -0.132 OA 
HETATM   11  C   UNL     1     -11.028   6.260  72.285  1.00  0.00    -0.259 C  
HETATM   12  O   UNL     1     -10.015   5.608  72.914  1.00  0.00    -0.172 OA 
HETATM   13  C   UNL     1      -8.970   7.659  69.518  1.00  0.00    -0.139 C  
HETATM   14  O   UNL     1     -12.183   5.950  72.523  1.00  0.00    -0.202 OA 
HETATM   15  O   UNL     1      -7.949   7.267  68.963  1.00  0.00    -0.115 OA 
HETATM   16  C   UNL     1      -9.629   8.926  69.176  1.00  0.00    -0.162 A  
HETATM   17  C   UNL     1      -9.020   9.627  68.122  1.00  0.00    -0.123 A  
HETATM   18  C   UNL     1      -9.557  10.818  67.684  1.00  0.00    -0.174 A  
HETATM   19  C   UNL     1     -10.705  11.310  68.287  1.00  0.00    -0.194 A  
HETATM   20  O   UNL     1     -11.273  12.490  67.837  1.00  0.00    -0.232 OA 
HETATM   21  C   UNL     1     -10.664  13.193  66.800  1.00  0.00    -0.267 C  
HETATM   22  C   UNL     1     -11.284  14.474  66.360  1.00  0.00    -0.341 C  
HETATM   23  C   UNL     1      -9.553  12.800  66.162  1.00  0.00    -0.214 C  
HETATM   24  O   UNL     1     -10.850  15.190  65.471  1.00  0.00    -0.325 OA 
HETATM   25  C   UNL     1      -8.921  11.551  66.580  1.00  0.00    -0.189 C  
BRANCH   6  26
HETATM   26  C   UNL     1     -12.408   9.107  71.720  1.00  0.00    -0.372 C  
HETATM   27  C   UNL     1     -13.850   8.680  71.592  1.00  0.00    -0.440 C  
ENDBRANCH   6  26
ENDBRANCH   3   4
ENDBRANCH   2   3
TORSDOF 3
ENDMDL
MODEL       66
REMARK 921   NORMALIZED FREE ENERGY PREDICTED BY IDOCK:   -5.02 KCAL/MOL
REMARK 922        TOTAL FREE ENERGY PREDICTED BY IDOCK:   -6.37 KCAL/MOL
REMARK 923 INTER-LIGAND FREE ENERGY PREDICTED BY IDOCK:   -6.11 KCAL/MOL
REMARK 924 INTRA-LIGAND FREE ENERGY PREDICTED BY IDOCK:   -0.26 KCAL/MOL
REMARK 927      BINDING AFFINITY PREDICTED BY RF-SCORE:    0.00 PKD
ROOT
HETATM    1  C   UNL     1     -12.391  12.804  70.557  1.00  0.00    -0.355 C  
HETATM    2  C   UNL     1     -11.344  12.030  69.770  1.00  0.00    -0.201 C  
ENDROOT
BRANCH   2   3
HETATM    3  C   UNL     1     -11.974  10.843  69.029  1.00  0.00    -0.322 C  
BRANCH   3   4
HETATM    4  C   UNL     1     -10.926   9.926  68.391  1.00  0.00    -0.235 A  
HETATM    5  C   UNL     1     -10.329  10.019  67.070  1.00  0.00    -0.243 A  
HETATM    6  N   UNL     1     -10.635  10.974  65.987  1.00  0.00    -0.240 NA 
HETATM    7  O   UNL     1      -8.220   6.114  69.629  1.00  0.00    -0.113 OA 
HETATM    8  C   UNL     1      -9.892  10.921  64.765  1.00  0.00    -0.288 C  
HETATM    9  C   UNL     1      -8.887  10.062  64.548  1.00  0.00    -0.231 C  
HETATM   10  O   UNL     1     -12.253   8.799  72.925  1.00  0.00    -0.202 OA 
HETATM   11  C   UNL     1     -10.011  11.880  63.599  1.00  0.00    -0.381 C  
HETATM   12  O   UNL     1      -9.829  11.335  62.368  1.00  0.00    -0.048 OA 
HETATM   13  C   UNL     1      -8.577   9.038  65.528  1.00  0.00    -0.168 C  
HETATM   14  O   UNL     1     -10.194  13.080  63.705  1.00  0.00    -0.360 OA 
HETATM   15  O   UNL     1      -7.722   8.201  65.261  1.00  0.00    -0.089 OA 
HETATM   16  C   UNL     1      -9.310   9.053  66.801  1.00  0.00    -0.213 A  
HETATM   17  C   UNL     1      -8.910   8.057  67.709  1.00  0.00    -0.126 A  
HETATM   18  C   UNL     1      -9.499   7.980  68.951  1.00  0.00    -0.151 A  
HETATM   19  C   UNL     1     -10.481   8.897  69.298  1.00  0.00    -0.224 A  
HETATM   20  O   UNL     1     -11.060   8.850  70.555  1.00  0.00    -0.243 OA 
HETATM   21  C   UNL     1     -10.674   7.856  71.452  1.00  0.00    -0.224 C  
HETATM   22  C   UNL     1     -11.338   7.816  72.784  1.00  0.00    -0.389 C  
HETATM   23  C   UNL     1      -9.741   6.926  71.205  1.00  0.00    -0.177 C  
HETATM   24  O   UNL     1     -11.100   6.996  73.658  1.00  0.00    -0.174 OA 
HETATM   25  C   UNL     1      -9.079   6.940  69.902  1.00  0.00    -0.144 C  
BRANCH   6  26
HETATM   26  C   UNL     1     -11.783  11.853  66.281  1.00  0.00    -0.147 C  
HETATM   27  C   UNL     1     -11.690  13.334  66.553  1.00  0.00    -0.423 C  
ENDBRANCH   6  26
ENDBRANCH   3   4
ENDBRANCH   2   3
TORSDOF 3
ENDMDL
MODEL       67
REMARK 921   NORMALIZED FREE ENERGY PREDICTED BY IDOCK:   -5.02 KCAL/MOL
REMARK 922        TOTAL FREE ENERGY PREDICTED BY IDOCK:   -6.37 KCAL/MOL
REMARK 923 INTER-LIGAND FREE ENERGY PREDICTED BY IDOCK:   -5.98 KCAL/MOL
REMARK 924 INTRA-LIGAND FREE ENERGY PREDICTED BY IDOCK:   -0.40 KCAL/MOL
REMARK 927      BINDING AFFINITY PREDICTED BY RF-SCORE:    0.00 PKD
ROOT
HETATM    1  C   UNL     1     -12.537  13.933  65.566  1.00  0.00    -0.560 C  
HETATM    2  C   UNL     1     -11.275  14.756  65.777  1.00  0.00    -0.337 C  
ENDROOT
BRANCH   2   3
HETATM    3  C   UNL     1     -11.156  15.224  67.233  1.00  0.00    -0.325 C  
BRANCH   3   4
HETATM    4  C   UNL     1      -9.700  15.340  67.694  1.00  0.00    -0.208 A  
HETATM    5  C   UNL     1      -8.891  16.538  67.841  1.00  0.00    -0.193 A  
HETATM    6  N   UNL     1      -9.246  17.933  67.514  1.00  0.00    -0.248 NA 
HETATM    7  O   UNL     1      -6.191  12.457  69.357  1.00  0.00    -0.097 OA 
HETATM    8  C   UNL     1      -8.310  18.982  67.779  1.00  0.00    -0.288 C  
HETATM    9  C   UNL     1      -7.116  18.780  68.352  1.00  0.00    -0.288 C  
HETATM   10  O   UNL     1     -11.542  10.847  67.593  1.00  0.00    -0.531 OA 
HETATM   11  C   UNL     1      -8.548  20.466  67.595  1.00  0.00    -0.222 C  
HETATM   12  O   UNL     1      -7.469  21.192  67.203  1.00  0.00    -0.380 OA 
HETATM   13  C   UNL     1      -6.658  17.431  68.629  1.00  0.00    -0.193 C  
HETATM   14  O   UNL     1      -9.602  21.033  67.830  1.00  0.00    -0.211 OA 
HETATM   15  O   UNL     1      -5.521  17.268  69.058  1.00  0.00    -0.149 OA 
HETATM   16  C   UNL     1      -7.584  16.320  68.378  1.00  0.00    -0.166 A  
HETATM   17  C   UNL     1      -7.075  15.056  68.721  1.00  0.00    -0.114 A  
HETATM   18  C   UNL     1      -7.855  13.932  68.562  1.00  0.00    -0.139 A  
HETATM   19  C   UNL     1      -9.145  14.061  68.068  1.00  0.00    -0.190 A  
HETATM   20  O   UNL     1      -9.951  12.944  67.931  1.00  0.00    -0.219 OA 
HETATM   21  C   UNL     1      -9.444  11.688  68.260  1.00  0.00    -0.191 C  
HETATM   22  C   UNL     1     -10.327  10.504  68.072  1.00  0.00    -0.181 C  
HETATM   23  C   UNL     1      -8.212  11.464  68.737  1.00  0.00    -0.107 C  
HETATM   24  O   UNL     1     -10.007   9.350  68.312  1.00  0.00    -0.162 OA 
HETATM   25  C   UNL     1      -7.324  12.609  68.923  1.00  0.00    -0.016 C  
BRANCH   6  26
HETATM   26  C   UNL     1     -10.553  18.068  66.843  1.00  0.00    -0.280 C  
HETATM   27  C   UNL     1     -10.761  18.645  65.465  1.00  0.00     0.019 C  
ENDBRANCH   6  26
ENDBRANCH   3   4
ENDBRANCH   2   3
TORSDOF 3
ENDMDL
MODEL       68
REMARK 921   NORMALIZED FREE ENERGY PREDICTED BY IDOCK:   -5.01 KCAL/MOL
REMARK 922        TOTAL FREE ENERGY PREDICTED BY IDOCK:   -6.36 KCAL/MOL
REMARK 923 INTER-LIGAND FREE ENERGY PREDICTED BY IDOCK:   -5.90 KCAL/MOL
REMARK 924 INTRA-LIGAND FREE ENERGY PREDICTED BY IDOCK:   -0.45 KCAL/MOL
REMARK 927      BINDING AFFINITY PREDICTED BY RF-SCORE:    0.00 PKD
ROOT
HETATM    1  C   UNL     1     -10.824  13.192  68.964  1.00  0.00    -0.202 C  
HETATM    2  C   UNL     1     -10.155  11.890  68.548  1.00  0.00    -0.211 C  
ENDROOT
BRANCH   2   3
HETATM    3  C   UNL     1     -11.165  10.930  67.906  1.00  0.00    -0.387 C  
BRANCH   3   4
HETATM    4  C   UNL     1     -10.637   9.495  67.821  1.00  0.00    -0.318 A  
HETATM    5  C   UNL     1      -9.822   8.891  66.781  1.00  0.00    -0.241 A  
HETATM    6  N   UNL     1      -9.361   9.488  65.512  1.00  0.00    -0.237 NA 
HETATM    7  O   UNL     1     -10.613   5.484  70.524  1.00  0.00    -0.269 OA 
HETATM    8  C   UNL     1      -8.520   8.729  64.637  1.00  0.00    -0.151 C  
HETATM    9  C   UNL     1      -8.085   7.493  64.919  1.00  0.00    -0.121 C  
HETATM   10  O   UNL     1     -13.252  10.565  71.772  1.00  0.00    -0.425 OA 
HETATM   11  C   UNL     1      -7.885   9.219  63.353  1.00  0.00    -0.131 C  
HETATM   12  O   UNL     1      -7.763   8.294  62.366  1.00  0.00    -0.115 OA 
HETATM   13  C   UNL     1      -8.558   6.805  66.105  1.00  0.00    -0.143 C  
HETATM   14  O   UNL     1      -7.438  10.340  63.186  1.00  0.00    -0.146 OA 
HETATM   15  O   UNL     1      -8.225   5.639  66.286  1.00  0.00    -0.105 OA 
HETATM   16  C   UNL     1      -9.419   7.543  67.037  1.00  0.00    -0.206 A  
HETATM   17  C   UNL     1      -9.788   6.816  68.182  1.00  0.00    -0.144 A  
HETATM   18  C   UNL     1     -10.572   7.404  69.150  1.00  0.00    -0.213 A  
HETATM   19  C   UNL     1     -10.985   8.719  68.987  1.00  0.00     0.074 A  
HETATM   20  O   UNL     1     -11.748   9.331  69.966  1.00  0.00    -0.073 OA 
HETATM   21  C   UNL     1     -12.124   8.609  71.096  1.00  0.00    -0.260 C  
HETATM   22  C   UNL     1     -12.970   9.290  72.115  1.00  0.00    -0.424 C  
HETATM   23  C   UNL     1     -11.779   7.337  71.337  1.00  0.00    -0.317 C  
HETATM   24  O   UNL     1     -13.375   8.771  73.144  1.00  0.00    -0.214 OA 
HETATM   25  C   UNL     1     -10.955   6.645  70.349  1.00  0.00    -0.290 C  
BRANCH   6  26
HETATM   26  C   UNL     1      -9.921  10.827  65.251  1.00  0.00    -0.282 C  
HETATM   27  C   UNL     1     -10.884  11.159  64.138  1.00  0.00    -0.355 C  
ENDBRANCH   6  26
ENDBRANCH   3   4
ENDBRANCH   2   3
TORSDOF 3
ENDMDL
MODEL       69
REMARK 921   NORMALIZED FREE ENERGY PREDICTED BY IDOCK:   -4.95 KCAL/MOL
REMARK 922        TOTAL FREE ENERGY PREDICTED BY IDOCK:   -6.30 KCAL/MOL
REMARK 923 INTER-LIGAND FREE ENERGY PREDICTED BY IDOCK:   -6.06 KCAL/MOL
REMARK 924 INTRA-LIGAND FREE ENERGY PREDICTED BY IDOCK:   -0.24 KCAL/MOL
REMARK 927      BINDING AFFINITY PREDICTED BY RF-SCORE:    0.00 PKD
ROOT
HETATM    1  C   UNL     1      -9.862   6.210  71.222  1.00  0.00    -0.204 C  
HETATM    2  C   UNL     1      -9.573   7.370  70.281  1.00  0.00    -0.165 C  
ENDROOT
BRANCH   2   3
HETATM    3  C   UNL     1     -10.590   7.418  69.133  1.00  0.00    -0.213 C  
BRANCH   3   4
HETATM    4  C   UNL     1     -10.270   8.514  68.112  1.00  0.00    -0.254 A  
HETATM    5  C   UNL     1      -9.575   8.390  66.842  1.00  0.00    -0.202 A  
HETATM    6  N   UNL     1      -8.941   7.195  66.252  1.00  0.00    -0.157 NA 
HETATM    7  O   UNL     1     -11.141  13.227  67.471  1.00  0.00    -0.257 OA 
HETATM    8  C   UNL     1      -8.342   7.278  64.956  1.00  0.00    -0.048 C  
HETATM    9  C   UNL     1      -8.350   8.389  64.207  1.00  0.00    -0.091 C  
HETATM   10  O   UNL     1     -12.708   9.941  72.062  1.00  0.00    -0.392 OA 
HETATM   11  C   UNL     1      -7.738   6.133  64.170  1.00  0.00    -0.106 C  
HETATM   12  O   UNL     1      -6.664   6.448  63.401  1.00  0.00    -0.039 OA 
HETATM   13  C   UNL     1      -8.879   9.628  64.746  1.00  0.00    -0.207 C  
HETATM   14  O   UNL     1      -8.184   4.999  64.145  1.00  0.00    -0.115 OA 
HETATM   15  O   UNL     1      -8.781  10.653  64.081  1.00  0.00    -0.178 OA 
HETATM   16  C   UNL     1      -9.509   9.594  66.072  1.00  0.00    -0.284 A  
HETATM   17  C   UNL     1     -10.038  10.826  66.492  1.00  0.00    -0.277 A  
HETATM   18  C   UNL     1     -10.682  10.923  67.706  1.00  0.00    -0.279 A  
HETATM   19  C   UNL     1     -10.808   9.794  68.503  1.00  0.00    -0.188 A  
HETATM   20  O   UNL     1     -11.479   9.870  69.711  1.00  0.00    -0.221 OA 
HETATM   21  C   UNL     1     -11.994  11.093  70.135  1.00  0.00    -0.365 C  
HETATM   22  C   UNL     1     -12.684  11.146  71.454  1.00  0.00    -0.418 C  
HETATM   23  C   UNL     1     -11.916  12.235  69.438  1.00  0.00    -0.318 C  
HETATM   24  O   UNL     1     -13.172  12.151  71.946  1.00  0.00    -0.478 OA 
HETATM   25  C   UNL     1     -11.237  12.211  68.145  1.00  0.00    -0.267 C  
BRANCH   6  26
HETATM   26  C   UNL     1      -8.929   6.027  67.154  1.00  0.00    -0.114 C  
HETATM   27  C   UNL     1      -9.846   4.834  67.035  1.00  0.00    -0.224 C  
ENDBRANCH   6  26
ENDBRANCH   3   4
ENDBRANCH   2   3
TORSDOF 3
ENDMDL
MODEL       70
REMARK 921   NORMALIZED FREE ENERGY PREDICTED BY IDOCK:   -4.90 KCAL/MOL
REMARK 922        TOTAL FREE ENERGY PREDICTED BY IDOCK:   -6.23 KCAL/MOL
REMARK 923 INTER-LIGAND FREE ENERGY PREDICTED BY IDOCK:   -6.02 KCAL/MOL
REMARK 924 INTRA-LIGAND FREE ENERGY PREDICTED BY IDOCK:   -0.21 KCAL/MOL
REMARK 927      BINDING AFFINITY PREDICTED BY RF-SCORE:    0.00 PKD
ROOT
HETATM    1  C   UNL     1     -10.955  15.351  70.127  1.00  0.00    -0.327 C  
HETATM    2  C   UNL     1     -11.772  15.600  68.867  1.00  0.00    -0.396 C  
ENDROOT
BRANCH   2   3
HETATM    3  C   UNL     1     -11.331  14.671  67.729  1.00  0.00    -0.338 C  
BRANCH   3   4
HETATM    4  C   UNL     1      -9.813  14.480  67.682  1.00  0.00    -0.223 A  
HETATM    5  C   UNL     1      -8.794  15.431  67.273  1.00  0.00    -0.195 A  
HETATM    6  N   UNL     1      -8.972  16.793  66.731  1.00  0.00    -0.226 NA 
HETATM    7  O   UNL     1      -6.553  11.109  68.866  1.00  0.00    -0.055 OA 
HETATM    8  C   UNL     1      -7.823  17.590  66.429  1.00  0.00    -0.294 C  
HETATM    9  C   UNL     1      -6.564  17.184  66.645  1.00  0.00    -0.272 C  
HETATM   10  O   UNL     1     -12.383  10.676  69.269  1.00  0.00    -0.316 OA 
HETATM   11  C   UNL     1      -7.826  19.031  65.962  1.00  0.00    -0.204 C  
HETATM   12  O   UNL     1      -6.839  19.370  65.093  1.00  0.00    -0.409 OA 
HETATM   13  C   UNL     1      -6.301  15.831  67.096  1.00  0.00     0.038 C  
HETATM   14  O   UNL     1      -8.602  19.884  66.356  1.00  0.00    -0.335 OA 
HETATM   15  O   UNL     1      -5.138  15.452  67.187  1.00  0.00    -0.305 OA 
HETATM   16  C   UNL     1      -7.448  14.974  67.424  1.00  0.00    -0.234 A  
HETATM   17  C   UNL     1      -7.098  13.699  67.901  1.00  0.00    -0.151 A  
HETATM   18  C   UNL     1      -8.081  12.808  68.272  1.00  0.00    -0.154 A  
HETATM   19  C   UNL     1      -9.413  13.184  68.176  1.00  0.00    -0.222 A  
HETATM   20  O   UNL     1     -10.410  12.310  68.574  1.00  0.00    -0.226 OA 
HETATM   21  C   UNL     1     -10.067  11.041  69.036  1.00  0.00    -0.180 C  
HETATM   22  C   UNL     1     -11.165  10.115  69.426  1.00  0.00    -0.215 C  
HETATM   23  C   UNL     1      -8.811  10.588  69.157  1.00  0.00    -0.161 C  
HETATM   24  O   UNL     1     -11.004   8.976  69.839  1.00  0.00    -0.235 OA 
HETATM   25  C   UNL     1      -7.716  11.475  68.773  1.00  0.00    -0.124 C  
BRANCH   6  26
HETATM   26  C   UNL     1     -10.381  17.148  66.477  1.00  0.00    -0.306 C  
HETATM   27  C   UNL     1     -11.023  17.211  65.113  1.00  0.00     0.044 C  
ENDBRANCH   6  26
ENDBRANCH   3   4
ENDBRANCH   2   3
TORSDOF 3
ENDMDL
MODEL       71
REMARK 921   NORMALIZED FREE ENERGY PREDICTED BY IDOCK:   -4.89 KCAL/MOL
REMARK 922        TOTAL FREE ENERGY PREDICTED BY IDOCK:   -6.23 KCAL/MOL
REMARK 923 INTER-LIGAND FREE ENERGY PREDICTED BY IDOCK:   -5.79 KCAL/MOL
REMARK 924 INTRA-LIGAND FREE ENERGY PREDICTED BY IDOCK:   -0.43 KCAL/MOL
REMARK 927      BINDING AFFINITY PREDICTED BY RF-SCORE:    0.00 PKD
ROOT
HETATM    1  C   UNL     1     -12.618  10.939  69.878  1.00  0.00    -0.211 C  
HETATM    2  C   UNL     1     -11.693  12.076  69.470  1.00  0.00    -0.408 C  
ENDROOT
BRANCH   2   3
HETATM    3  C   UNL     1     -11.148  11.864  68.051  1.00  0.00    -0.293 C  
BRANCH   3   4
HETATM    4  C   UNL     1      -9.696  12.330  67.905  1.00  0.00    -0.202 A  
HETATM    5  C   UNL     1      -9.202  13.656  67.576  1.00  0.00    -0.218 A  
HETATM    6  N   UNL     1      -9.974  14.865  67.229  1.00  0.00    -0.229 NA 
HETATM    7  O   UNL     1      -5.244  10.530  68.471  1.00  0.00    -0.038 OA 
HETATM    8  C   UNL     1      -9.288  16.096  66.980  1.00  0.00    -0.218 C  
HETATM    9  C   UNL     1      -7.958  16.234  67.077  1.00  0.00    -0.248 C  
HETATM   10  O   UNL     1     -10.316   7.663  69.099  1.00  0.00    -0.206 OA 
HETATM   11  C   UNL     1      -9.926  17.442  66.708  1.00  0.00    -0.307 C  
HETATM   12  O   UNL     1      -9.256  18.248  65.844  1.00  0.00    -0.503 OA 
HETATM   13  C   UNL     1      -7.121  15.076  67.332  1.00  0.00    -0.175 C  
HETATM   14  O   UNL     1     -10.940  17.849  67.249  1.00  0.00    -0.243 OA 
HETATM   15  O   UNL     1      -5.903  15.211  67.315  1.00  0.00    -0.326 OA 
HETATM   16  C   UNL     1      -7.779  13.791  67.600  1.00  0.00    -0.187 A  
HETATM   17  C   UNL     1      -6.893  12.738  67.886  1.00  0.00    -0.114 A  
HETATM   18  C   UNL     1      -7.384  11.485  68.182  1.00  0.00    -0.094 A  
HETATM   19  C   UNL     1      -8.756  11.278  68.203  1.00  0.00    -0.155 A  
HETATM   20  O   UNL     1      -9.263  10.032  68.530  1.00  0.00    -0.135 OA 
HETATM   21  C   UNL     1      -8.387   8.984  68.802  1.00  0.00    -0.122 C  
HETATM   22  C   UNL     1      -8.966   7.649  69.120  1.00  0.00    -0.135 C  
HETATM   23  C   UNL     1      -7.050   9.087  68.800  1.00  0.00    -0.070 C  
HETATM   24  O   UNL     1      -8.313   6.647  69.369  1.00  0.00    -0.125 OA 
HETATM   25  C   UNL     1      -6.458  10.384  68.484  1.00  0.00    -0.051 C  
BRANCH   6  26
HETATM   26  C   UNL     1     -11.423  14.623  67.094  1.00  0.00    -0.368 C  
HETATM   27  C   UNL     1     -12.134  14.340  65.793  1.00  0.00    -0.414 C  
ENDBRANCH   6  26
ENDBRANCH   3   4
ENDBRANCH   2   3
TORSDOF 3
ENDMDL
MODEL       72
REMARK 921   NORMALIZED FREE ENERGY PREDICTED BY IDOCK:   -4.86 KCAL/MOL
REMARK 922        TOTAL FREE ENERGY PREDICTED BY IDOCK:   -6.19 KCAL/MOL
REMARK 923 INTER-LIGAND FREE ENERGY PREDICTED BY IDOCK:   -5.77 KCAL/MOL
REMARK 924 INTRA-LIGAND FREE ENERGY PREDICTED BY IDOCK:   -0.42 KCAL/MOL
REMARK 927      BINDING AFFINITY PREDICTED BY RF-SCORE:    0.00 PKD
ROOT
HETATM    1  C   UNL     1     -12.877   9.271  72.436  1.00  0.00    -0.418 C  
HETATM    2  C   UNL     1     -12.274   8.012  71.829  1.00  0.00    -0.352 C  
ENDROOT
BRANCH   2   3
HETATM    3  C   UNL     1     -10.781   8.202  71.531  1.00  0.00    -0.286 C  
BRANCH   3   4
HETATM    4  C   UNL     1     -10.331   7.442  70.280  1.00  0.00    -0.217 A  
HETATM    5  C   UNL     1     -10.062   7.967  68.952  1.00  0.00    -0.197 A  
HETATM    6  N   UNL     1     -10.224   9.349  68.458  1.00  0.00    -0.192 NA 
HETATM    7  O   UNL     1      -9.058   2.944  69.042  1.00  0.00    -0.116 OA 
HETATM    8  C   UNL     1      -9.856   9.667  67.113  1.00  0.00    -0.186 C  
HETATM    9  C   UNL     1      -9.327   8.778  66.261  1.00  0.00    -0.283 C  
HETATM   10  O   UNL     1     -10.913   4.768  74.293  1.00  0.00    -0.328 OA 
HETATM   11  C   UNL     1      -9.867  11.043  66.480  1.00  0.00    -0.203 C  
HETATM   12  O   UNL     1     -10.191  11.082  65.161  1.00  0.00    -0.260 OA 
HETATM   13  C   UNL     1      -9.212   7.383  66.640  1.00  0.00    -0.158 C  
HETATM   14  O   UNL     1      -9.555  12.072  67.054  1.00  0.00    -0.189 OA 
HETATM   15  O   UNL     1      -8.821   6.572  65.807  1.00  0.00    -0.148 OA 
HETATM   16  C   UNL     1      -9.573   7.006  68.013  1.00  0.00    -0.133 A  
HETATM   17  C   UNL     1      -9.382   5.645  68.307  1.00  0.00    -0.123 A  
HETATM   18  C   UNL     1      -9.657   5.167  69.569  1.00  0.00    -0.226 A  
HETATM   19  C   UNL     1     -10.113   6.041  70.545  1.00  0.00    -0.191 A  
HETATM   20  O   UNL     1     -10.363   5.580  71.826  1.00  0.00    -0.202 OA 
HETATM   21  C   UNL     1     -10.187   4.229  72.116  1.00  0.00    -0.164 C  
HETATM   22  C   UNL     1     -10.494   3.761  73.496  1.00  0.00    -0.179 C  
HETATM   23  C   UNL     1      -9.756   3.311  71.240  1.00  0.00    -0.222 C  
HETATM   24  O   UNL     1     -10.390   2.607  73.881  1.00  0.00    -0.112 OA 
HETATM   25  C   UNL     1      -9.455   3.744  69.877  1.00  0.00    -0.197 C  
BRANCH   6  26
HETATM   26  C   UNL     1     -10.856  10.255  69.436  1.00  0.00    -0.245 C  
HETATM   27  C   UNL     1     -12.213  10.892  69.271  1.00  0.00    -0.240 C  
ENDBRANCH   6  26
ENDBRANCH   3   4
ENDBRANCH   2   3
TORSDOF 3
ENDMDL
MODEL       73
REMARK 921   NORMALIZED FREE ENERGY PREDICTED BY IDOCK:   -4.82 KCAL/MOL
REMARK 922        TOTAL FREE ENERGY PREDICTED BY IDOCK:   -6.14 KCAL/MOL
REMARK 923 INTER-LIGAND FREE ENERGY PREDICTED BY IDOCK:   -5.69 KCAL/MOL
REMARK 924 INTRA-LIGAND FREE ENERGY PREDICTED BY IDOCK:   -0.45 KCAL/MOL
REMARK 927      BINDING AFFINITY PREDICTED BY RF-SCORE:    0.00 PKD
ROOT
HETATM    1  C   UNL     1      -6.535  10.790  69.637  1.00  0.00    -0.103 C  
HETATM    2  C   UNL     1      -7.110  12.161  69.314  1.00  0.00     0.041 C  
ENDROOT
BRANCH   2   3
HETATM    3  C   UNL     1      -6.886  12.522  67.839  1.00  0.00    -0.105 C  
BRANCH   3   4
HETATM    4  C   UNL     1      -8.054  13.316  67.246  1.00  0.00    -0.150 A  
HETATM    5  C   UNL     1      -8.135  14.742  66.980  1.00  0.00    -0.144 A  
HETATM    6  N   UNL     1      -7.142  15.792  67.282  1.00  0.00    -0.203 NA 
HETATM    7  O   UNL     1     -12.437  12.459  65.392  1.00  0.00    -0.637 OA 
HETATM    8  C   UNL     1      -7.402  17.144  66.892  1.00  0.00    -0.207 C  
HETATM    9  C   UNL     1      -8.499  17.523  66.223  1.00  0.00    -0.247 C  
HETATM   10  O   UNL     1      -8.748   8.529  67.690  1.00  0.00    -0.134 OA 
HETATM   11  C   UNL     1      -6.456  18.318  67.038  1.00  0.00    -0.178 C  
HETATM   12  O   UNL     1      -7.040  19.515  67.303  1.00  0.00    -0.203 OA 
HETATM   13  C   UNL     1      -9.560  16.569  65.961  1.00  0.00    -0.290 C  
HETATM   14  O   UNL     1      -5.249  18.259  66.876  1.00  0.00    -0.126 OA 
HETATM   15  O   UNL     1     -10.596  16.964  65.438  1.00  0.00    -0.579 OA 
HETATM   16  C   UNL     1      -9.340  15.166  66.337  1.00  0.00    -0.332 A  
HETATM   17  C   UNL     1     -10.397  14.305  66.000  1.00  0.00    -0.318 A  
HETATM   18  C   UNL     1     -10.304  12.958  66.274  1.00  0.00    -0.278 A  
HETATM   19  C   UNL     1      -9.157  12.463  66.875  1.00  0.00    -0.211 A  
HETATM   20  O   UNL     1      -9.037  11.107  67.128  1.00  0.00    -0.146 OA 
HETATM   21  C   UNL     1     -10.089  10.253  66.805  1.00  0.00    -0.216 C  
HETATM   22  C   UNL     1      -9.940   8.805  67.119  1.00  0.00    -0.230 C  
HETATM   23  C   UNL     1     -11.236  10.640  66.229  1.00  0.00     0.241 C  
HETATM   24  O   UNL     1     -10.785   7.952  66.896  1.00  0.00    -0.333 OA 
HETATM   25  C   UNL     1     -11.410  12.057  65.919  1.00  0.00    -0.337 C  
BRANCH   6  26
HETATM   26  C   UNL     1      -5.987  15.307  68.061  1.00  0.00    -0.145 C  
HETATM   27  C   UNL     1      -5.693  15.679  69.493  1.00  0.00    -0.120 C  
ENDBRANCH   6  26
ENDBRANCH   3   4
ENDBRANCH   2   3
TORSDOF 3
ENDMDL
MODEL       74
REMARK 921   NORMALIZED FREE ENERGY PREDICTED BY IDOCK:   -4.82 KCAL/MOL
REMARK 922        TOTAL FREE ENERGY PREDICTED BY IDOCK:   -6.14 KCAL/MOL
REMARK 923 INTER-LIGAND FREE ENERGY PREDICTED BY IDOCK:   -5.70 KCAL/MOL
REMARK 924 INTRA-LIGAND FREE ENERGY PREDICTED BY IDOCK:   -0.44 KCAL/MOL
REMARK 927      BINDING AFFINITY PREDICTED BY RF-SCORE:    0.00 PKD
ROOT
HETATM    1  C   UNL     1      -9.807  10.176  65.855  1.00  0.00    -0.308 C  
HETATM    2  C   UNL     1     -10.396   9.130  66.790  1.00  0.00    -0.308 C  
ENDROOT
BRANCH   2   3
HETATM    3  C   UNL     1      -9.420   8.789  67.924  1.00  0.00    -0.160 C  
BRANCH   3   4
HETATM    4  C   UNL     1      -9.783   7.483  68.637  1.00  0.00    -0.154 A  
HETATM    5  C   UNL     1      -9.289   6.143  68.375  1.00  0.00    -0.116 A  
HETATM    6  N   UNL     1      -8.370   5.693  67.311  1.00  0.00    -0.101 NA 
HETATM    7  O   UNL     1     -12.463   6.038  72.395  1.00  0.00    -0.177 OA 
HETATM    8  C   UNL     1      -7.970   4.320  67.255  1.00  0.00    -0.096 C  
HETATM    9  C   UNL     1      -8.357   3.400  68.149  1.00  0.00    -0.097 C  
HETATM   10  O   UNL     1     -11.957  11.492  70.310  1.00  0.00    -0.333 OA 
HETATM   11  C   UNL     1      -6.966   3.715  66.295  1.00  0.00    -0.062 C  
HETATM   12  O   UNL     1      -7.224   2.441  65.900  1.00  0.00    -0.062 OA 
HETATM   13  C   UNL     1      -9.323   3.742  69.176  1.00  0.00    -0.173 C  
HETATM   14  O   UNL     1      -5.947   4.268  65.920  1.00  0.00    -0.022 OA 
HETATM   15  O   UNL     1      -9.737   2.857  69.917  1.00  0.00    -0.085 OA 
HETATM   16  C   UNL     1      -9.762   5.140  69.278  1.00  0.00    -0.242 A  
HETATM   17  C   UNL     1     -10.658   5.388  70.331  1.00  0.00    -0.322 A  
HETATM   18  C   UNL     1     -11.124   6.665  70.553  1.00  0.00    -0.359 A  
HETATM   19  C   UNL     1     -10.695   7.700  69.734  1.00  0.00    -0.240 A  
HETATM   20  O   UNL     1     -11.131   8.993  69.965  1.00  0.00    -0.239 OA 
HETATM   21  C   UNL     1     -12.029   9.240  71.001  1.00  0.00    -0.300 C  
HETATM   22  C   UNL     1     -12.502  10.638  71.203  1.00  0.00    -0.418 C  
HETATM   23  C   UNL     1     -12.503   8.306  71.838  1.00  0.00    -0.376 C  
HETATM   24  O   UNL     1     -13.292  10.989  72.065  1.00  0.00    -0.455 OA 
HETATM   25  C   UNL     1     -12.060   6.926  71.656  1.00  0.00    -0.353 C  
BRANCH   6  26
HETATM   26  C   UNL     1      -8.029   6.749  66.339  1.00  0.00    -0.106 C  
HETATM   27  C   UNL     1      -8.361   6.710  64.868  1.00  0.00    -0.037 C  
ENDBRANCH   6  26
ENDBRANCH   3   4
ENDBRANCH   2   3
TORSDOF 3
ENDMDL
MODEL       75
REMARK 921   NORMALIZED FREE ENERGY PREDICTED BY IDOCK:   -4.79 KCAL/MOL
REMARK 922        TOTAL FREE ENERGY PREDICTED BY IDOCK:   -6.10 KCAL/MOL
REMARK 923 INTER-LIGAND FREE ENERGY PREDICTED BY IDOCK:   -6.02 KCAL/MOL
REMARK 924 INTRA-LIGAND FREE ENERGY PREDICTED BY IDOCK:   -0.08 KCAL/MOL
REMARK 927      BINDING AFFINITY PREDICTED BY RF-SCORE:    0.00 PKD
ROOT
HETATM    1  C   UNL     1     -13.293   8.734  72.310  1.00  0.00    -0.460 C  
HETATM    2  C   UNL     1     -12.484   9.484  71.262  1.00  0.00    -0.432 C  
ENDROOT
BRANCH   2   3
HETATM    3  C   UNL     1     -11.036   8.979  71.215  1.00  0.00    -0.384 C  
BRANCH   3   4
HETATM    4  C   UNL     1     -10.657   8.411  69.844  1.00  0.00    -0.228 A  
HETATM    5  C   UNL     1     -10.278   7.051  69.502  1.00  0.00    -0.199 A  
HETATM    6  N   UNL     1     -10.093   5.894  70.400  1.00  0.00    -0.191 NA 
HETATM    7  O   UNL     1     -10.421   9.905  65.250  1.00  0.00    -0.066 OA 
HETATM    8  C   UNL     1      -9.758   4.617  69.849  1.00  0.00    -0.209 C  
HETATM    9  C   UNL     1      -9.633   4.389  68.535  1.00  0.00    -0.208 C  
HETATM   10  O   UNL     1     -11.835  13.123  69.939  1.00  0.00    -0.317 OA 
HETATM   11  C   UNL     1      -9.628   3.316  70.612  1.00  0.00    -0.153 C  
HETATM   12  O   UNL     1      -8.681   2.456  70.154  1.00  0.00    -0.055 OA 
HETATM   13  C   UNL     1      -9.717   5.488  67.592  1.00  0.00    -0.129 C  
HETATM   14  O   UNL     1     -10.342   2.985  71.544  1.00  0.00     0.089 OA 
HETATM   15  O   UNL     1      -9.497   5.269  66.405  1.00  0.00    -0.140 OA 
HETATM   16  C   UNL     1     -10.063   6.819  68.107  1.00  0.00    -0.182 A  
HETATM   17  C   UNL     1     -10.172   7.811  67.118  1.00  0.00    -0.365 A  
HETATM   18  C   UNL     1     -10.520   9.097  67.466  1.00  0.00    -0.335 A  
HETATM   19  C   UNL     1     -10.768   9.399  68.798  1.00  0.00    -0.171 A  
HETATM   20  O   UNL     1     -11.148  10.680  69.158  1.00  0.00    -0.220 OA 
HETATM   21  C   UNL     1     -11.245  11.668  68.181  1.00  0.00    -0.263 C  
HETATM   22  C   UNL     1     -11.627  13.043  68.608  1.00  0.00    -0.318 C  
HETATM   23  C   UNL     1     -11.019  11.473  66.875  1.00  0.00    -0.350 C  
HETATM   24  O   UNL     1     -11.740  14.000  67.857  1.00  0.00    -0.322 OA 
HETATM   25  C   UNL     1     -10.636  10.135  66.432  1.00  0.00    -0.085 C  
BRANCH   6  26
HETATM   26  C   UNL     1     -10.199   6.235  71.831  1.00  0.00    -0.201 C  
HETATM   27  C   UNL     1      -9.052   6.219  72.811  1.00  0.00    -0.131 C  
ENDBRANCH   6  26
ENDBRANCH   3   4
ENDBRANCH   2   3
TORSDOF 3
ENDMDL
MODEL       76
REMARK 921   NORMALIZED FREE ENERGY PREDICTED BY IDOCK:   -4.77 KCAL/MOL
REMARK 922        TOTAL FREE ENERGY PREDICTED BY IDOCK:   -6.08 KCAL/MOL
REMARK 923 INTER-LIGAND FREE ENERGY PREDICTED BY IDOCK:   -5.94 KCAL/MOL
REMARK 924 INTRA-LIGAND FREE ENERGY PREDICTED BY IDOCK:   -0.13 KCAL/MOL
REMARK 927      BINDING AFFINITY PREDICTED BY RF-SCORE:    0.00 PKD
ROOT
HETATM    1  C   UNL     1     -10.979  11.426  63.427  1.00  0.00    -0.342 C  
HETATM    2  C   UNL     1     -10.210  11.018  64.675  1.00  0.00    -0.392 C  
ENDROOT
BRANCH   2   3
HETATM    3  C   UNL     1     -10.749  11.740  65.917  1.00  0.00    -0.328 C  
BRANCH   3   4
HETATM    4  C   UNL     1      -9.638  12.132  66.896  1.00  0.00    -0.210 A  
HETATM    5  C   UNL     1      -9.048  13.441  67.116  1.00  0.00    -0.235 A  
HETATM    6  N   UNL     1      -9.320  14.704  66.403  1.00  0.00    -0.291 NA 
HETATM    7  O   UNL     1      -6.990  10.068  70.376  1.00  0.00    -0.138 OA 
HETATM    8  C   UNL     1      -8.656  15.904  66.810  1.00  0.00    -0.266 C  
HETATM    9  C   UNL     1      -7.808  15.965  67.846  1.00  0.00    -0.148 C  
HETATM   10  O   UNL     1     -10.967   7.460  66.953  1.00  0.00    -0.324 OA 
HETATM   11  C   UNL     1      -8.889  17.293  66.254  1.00  0.00    -0.215 C  
HETATM   12  O   UNL     1      -7.794  18.096  66.198  1.00  0.00    -0.373 OA 
HETATM   13  C   UNL     1      -7.424  14.754  68.547  1.00  0.00    -0.117 C  
HETATM   14  O   UNL     1      -9.976  17.733  65.923  1.00  0.00    -0.527 OA 
HETATM   15  O   UNL     1      -6.570  14.822  69.424  1.00  0.00    -0.119 OA 
HETATM   16  C   UNL     1      -8.082  13.496  68.169  1.00  0.00    -0.154 A  
HETATM   17  C   UNL     1      -7.687  12.385  68.933  1.00  0.00     0.072 A  
HETATM   18  C   UNL     1      -8.250  11.151  68.698  1.00  0.00    -0.152 A  
HETATM   19  C   UNL     1      -9.213  11.018  67.708  1.00  0.00    -0.155 A  
HETATM   20  O   UNL     1      -9.810   9.789  67.482  1.00  0.00    -0.155 OA 
HETATM   21  C   UNL     1      -9.411   8.684  68.231  1.00  0.00    -0.137 C  
HETATM   22  C   UNL     1     -10.051   7.371  67.941  1.00  0.00    -0.178 C  
HETATM   23  C   UNL     1      -8.486   8.714  69.201  1.00  0.00    -0.124 C  
HETATM   24  O   UNL     1      -9.790   6.326  68.515  1.00  0.00    -0.133 OA 
HETATM   25  C   UNL     1      -7.838   9.989  69.499  1.00  0.00    -0.154 C  
BRANCH   6  26
HETATM   26  C   UNL     1     -10.223  14.548  65.247  1.00  0.00    -0.402 C  
HETATM   27  C   UNL     1     -11.582  15.192  65.119  1.00  0.00    -0.245 C  
ENDBRANCH   6  26
ENDBRANCH   3   4
ENDBRANCH   2   3
TORSDOF 3
ENDMDL
MODEL       77
REMARK 921   NORMALIZED FREE ENERGY PREDICTED BY IDOCK:   -4.74 KCAL/MOL
REMARK 922        TOTAL FREE ENERGY PREDICTED BY IDOCK:   -6.04 KCAL/MOL
REMARK 923 INTER-LIGAND FREE ENERGY PREDICTED BY IDOCK:   -5.64 KCAL/MOL
REMARK 924 INTRA-LIGAND FREE ENERGY PREDICTED BY IDOCK:   -0.40 KCAL/MOL
REMARK 927      BINDING AFFINITY PREDICTED BY RF-SCORE:    0.00 PKD
ROOT
HETATM    1  C   UNL     1     -12.761  14.681  70.538  1.00  0.00    -0.394 C  
HETATM    2  C   UNL     1     -12.113  13.305  70.551  1.00  0.00    -0.391 C  
ENDROOT
BRANCH   2   3
HETATM    3  C   UNL     1     -11.837  12.810  69.124  1.00  0.00    -0.352 C  
BRANCH   3   4
HETATM    4  C   UNL     1     -10.384  12.370  68.927  1.00  0.00    -0.074 A  
HETATM    5  C   UNL     1      -9.815  11.041  69.067  1.00  0.00    -0.149 A  
HETATM    6  N   UNL     1     -10.479   9.797  69.505  1.00  0.00    -0.217 NA 
HETATM    7  O   UNL     1      -6.181  14.300  67.512  1.00  0.00    -0.313 OA 
HETATM    8  C   UNL     1      -9.741   8.572  69.531  1.00  0.00    -0.176 C  
HETATM    9  C   UNL     1      -8.463   8.470  69.141  1.00  0.00    -0.125 C  
HETATM   10  O   UNL     1     -11.301  17.077  68.157  1.00  0.00    -0.171 OA 
HETATM   11  C   UNL     1     -10.290   7.199  69.859  1.00  0.00    -0.213 C  
HETATM   12  O   UNL     1      -9.438   6.365  70.512  1.00  0.00    -0.161 OA 
HETATM   13  C   UNL     1      -7.715   9.658  68.775  1.00  0.00    -0.080 C  
HETATM   14  O   UNL     1     -11.392   6.797  69.529  1.00  0.00    -0.282 OA 
HETATM   15  O   UNL     1      -6.520   9.551  68.521  1.00  0.00    -0.052 OA 
HETATM   16  C   UNL     1      -8.429  10.941  68.729  1.00  0.00    -0.150 A  
HETATM   17  C   UNL     1      -7.639  12.027  68.317  1.00  0.00    -0.117 A  
HETATM   18  C   UNL     1      -8.196  13.281  68.203  1.00  0.00    -0.160 A  
HETATM   19  C   UNL     1      -9.542  13.458  68.491  1.00  0.00    -0.141 A  
HETATM   20  O   UNL     1     -10.122  14.707  68.352  1.00  0.00    -0.224 OA 
HETATM   21  C   UNL     1      -9.339  15.788  67.955  1.00  0.00    -0.200 C  
HETATM   22  C   UNL     1      -9.988  17.124  67.844  1.00  0.00    -0.292 C  
HETATM   23  C   UNL     1      -8.033  15.716  67.662  1.00  0.00    -0.170 C  
HETATM   24  O   UNL     1      -9.417  18.152  67.516  1.00  0.00    -0.259 OA 
HETATM   25  C   UNL     1      -7.371  14.418  67.770  1.00  0.00    -0.173 C  
BRANCH   6  26
HETATM   26  C   UNL     1     -11.866   9.999  69.964  1.00  0.00    -0.126 C  
HETATM   27  C   UNL     1     -12.352   9.771  71.374  1.00  0.00    -0.480 C  
ENDBRANCH   6  26
ENDBRANCH   3   4
ENDBRANCH   2   3
TORSDOF 3
ENDMDL
MODEL       78
REMARK 921   NORMALIZED FREE ENERGY PREDICTED BY IDOCK:   -4.73 KCAL/MOL
REMARK 922        TOTAL FREE ENERGY PREDICTED BY IDOCK:   -6.04 KCAL/MOL
REMARK 923 INTER-LIGAND FREE ENERGY PREDICTED BY IDOCK:   -5.85 KCAL/MOL
REMARK 924 INTRA-LIGAND FREE ENERGY PREDICTED BY IDOCK:   -0.19 KCAL/MOL
REMARK 927      BINDING AFFINITY PREDICTED BY RF-SCORE:    0.00 PKD
ROOT
HETATM    1  C   UNL     1      -6.157  13.288  69.962  1.00  0.00    -0.122 C  
HETATM    2  C   UNL     1      -6.157  14.276  68.805  1.00  0.00    -0.085 C  
ENDROOT
BRANCH   2   3
HETATM    3  C   UNL     1      -6.948  13.729  67.610  1.00  0.00    -0.186 C  
BRANCH   3   4
HETATM    4  C   UNL     1      -8.401  13.403  67.968  1.00  0.00    -0.165 A  
HETATM    5  C   UNL     1      -9.048  12.104  68.027  1.00  0.00    -0.190 A  
HETATM    6  N   UNL     1      -8.487  10.781  67.686  1.00  0.00    -0.119 NA 
HETATM    7  O   UNL     1     -12.366  15.729  69.470  1.00  0.00    -0.281 OA 
HETATM    8  C   UNL     1      -9.287   9.607  67.858  1.00  0.00    -0.128 C  
HETATM    9  C   UNL     1     -10.532   9.627  68.355  1.00  0.00    -0.258 C  
HETATM   10  O   UNL     1      -7.182  18.102  68.116  1.00  0.00    -0.231 OA 
HETATM   11  C   UNL     1      -8.839   8.176  67.649  1.00  0.00    -0.136 C  
HETATM   12  O   UNL     1      -9.783   7.328  67.165  1.00  0.00    -0.148 OA 
HETATM   13  C   UNL     1     -11.185  10.892  68.637  1.00  0.00    -0.267 C  
HETATM   14  O   UNL     1      -7.736   7.747  67.938  1.00  0.00    -0.116 OA 
HETATM   15  O   UNL     1     -12.358  10.886  68.993  1.00  0.00    -0.464 OA 
HETATM   16  C   UNL     1     -10.404  12.125  68.480  1.00  0.00    -0.233 A  
HETATM   17  C   UNL     1     -11.100  13.297  68.824  1.00  0.00    -0.303 A  
HETATM   18  C   UNL     1     -10.471  14.520  68.748  1.00  0.00    -0.246 A  
HETATM   19  C   UNL     1      -9.146  14.582  68.339  1.00  0.00    -0.191 A  
HETATM   20  O   UNL     1      -8.493  15.801  68.288  1.00  0.00    -0.159 OA 
HETATM   21  C   UNL     1      -9.184  16.965  68.616  1.00  0.00    -0.265 C  
HETATM   22  C   UNL     1      -8.460  18.263  68.521  1.00  0.00    -0.307 C  
HETATM   23  C   UNL     1     -10.463  17.005  69.015  1.00  0.00    -0.337 C  
HETATM   24  O   UNL     1      -8.948  19.354  68.772  1.00  0.00    -0.368 OA 
HETATM   25  C   UNL     1     -11.198  15.745  69.109  1.00  0.00    -0.322 C  
BRANCH   6  26
HETATM   26  C   UNL     1      -7.135  10.846  67.101  1.00  0.00    -0.103 C  
HETATM   27  C   UNL     1      -6.750  10.294  65.750  1.00  0.00    -0.120 C  
ENDBRANCH   6  26
ENDBRANCH   3   4
ENDBRANCH   2   3
TORSDOF 3
ENDMDL
MODEL       79
REMARK 921   NORMALIZED FREE ENERGY PREDICTED BY IDOCK:   -4.73 KCAL/MOL
REMARK 922        TOTAL FREE ENERGY PREDICTED BY IDOCK:   -6.04 KCAL/MOL
REMARK 923 INTER-LIGAND FREE ENERGY PREDICTED BY IDOCK:   -5.80 KCAL/MOL
REMARK 924 INTRA-LIGAND FREE ENERGY PREDICTED BY IDOCK:   -0.24 KCAL/MOL
REMARK 927      BINDING AFFINITY PREDICTED BY RF-SCORE:    0.00 PKD
ROOT
HETATM    1  C   UNL     1     -12.868  14.007  65.350  1.00  0.00    -0.442 C  
HETATM    2  C   UNL     1     -11.759  14.368  66.326  1.00  0.00    -0.394 C  
ENDROOT
BRANCH   2   3
HETATM    3  C   UNL     1     -10.407  14.488  65.608  1.00  0.00    -0.367 C  
BRANCH   3   4
HETATM    4  C   UNL     1      -9.240  13.998  66.471  1.00  0.00    -0.240 A  
HETATM    5  C   UNL     1      -8.606  12.691  66.475  1.00  0.00     0.060 A  
HETATM    6  N   UNL     1      -8.973  11.488  65.703  1.00  0.00    -0.134 NA 
HETATM    7  O   UNL     1      -6.181  15.779  69.766  1.00  0.00    -0.158 OA 
HETATM    8  C   UNL     1      -8.181  10.302  65.822  1.00  0.00    -0.147 C  
HETATM    9  C   UNL     1      -7.080  10.221  66.580  1.00  0.00    -0.108 C  
HETATM   10  O   UNL     1     -10.611  18.605  67.172  1.00  0.00    -0.407 OA 
HETATM   11  C   UNL     1      -8.360   9.020  65.035  1.00  0.00    -0.166 C  
HETATM   12  O   UNL     1      -8.071   7.873  65.704  1.00  0.00    -0.114 OA 
HETATM   13  C   UNL     1      -6.698  11.331  67.433  1.00  0.00    -0.085 C  
HETATM   14  O   UNL     1      -8.678   8.968  63.859  1.00  0.00    -0.179 OA 
HETATM   15  O   UNL     1      -5.745  11.194  68.193  1.00  0.00    -0.046 OA 
HETATM   16  C   UNL     1      -7.476  12.573  67.344  1.00  0.00    -0.153 A  
HETATM   17  C   UNL     1      -7.005  13.610  68.167  1.00  0.00    -0.119 A  
HETATM   18  C   UNL     1      -7.630  14.837  68.156  1.00  0.00    -0.121 A  
HETATM   19  C   UNL     1      -8.720  15.040  67.322  1.00  0.00    -0.203 A  
HETATM   20  O   UNL     1      -9.339  16.278  67.279  1.00  0.00    -0.220 OA 
HETATM   21  C   UNL     1      -8.881  17.304  68.103  1.00  0.00    -0.239 C  
HETATM   22  C   UNL     1      -9.588  18.613  68.054  1.00  0.00    -0.316 C  
HETATM   23  C   UNL     1      -7.842  17.200  68.943  1.00  0.00    -0.217 C  
HETATM   24  O   UNL     1      -9.296  19.590  68.726  1.00  0.00    -0.375 OA 
HETATM   25  C   UNL     1      -7.136  15.923  69.016  1.00  0.00    -0.161 C  
BRANCH   6  26
HETATM   26  C   UNL     1     -10.221  11.639  64.932  1.00  0.00    -0.270 C  
HETATM   27  C   UNL     1     -10.298  11.787  63.432  1.00  0.00    -0.481 C  
ENDBRANCH   6  26
ENDBRANCH   3   4
ENDBRANCH   2   3
TORSDOF 3
ENDMDL
MODEL       80
REMARK 921   NORMALIZED FREE ENERGY PREDICTED BY IDOCK:   -4.70 KCAL/MOL
REMARK 922        TOTAL FREE ENERGY PREDICTED BY IDOCK:   -6.00 KCAL/MOL
REMARK 923 INTER-LIGAND FREE ENERGY PREDICTED BY IDOCK:   -6.04 KCAL/MOL
REMARK 924 INTRA-LIGAND FREE ENERGY PREDICTED BY IDOCK:    0.04 KCAL/MOL
REMARK 927      BINDING AFFINITY PREDICTED BY RF-SCORE:    0.00 PKD
ROOT
HETATM    1  C   UNL     1      -7.294   5.107  69.484  1.00  0.00    -0.057 C  
HETATM    2  C   UNL     1      -7.694   6.529  69.121  1.00  0.00    -0.102 C  
ENDROOT
BRANCH   2   3
HETATM    3  C   UNL     1      -9.021   6.551  68.350  1.00  0.00    -0.125 C  
BRANCH   3   4
HETATM    4  C   UNL     1      -9.816   7.838  68.587  1.00  0.00    -0.174 A  
HETATM    5  C   UNL     1     -10.043   8.942  67.670  1.00  0.00    -0.218 A  
HETATM    6  N   UNL     1      -9.506   9.132  66.308  1.00  0.00    -0.216 NA 
HETATM    7  O   UNL     1     -12.565   9.807  72.044  1.00  0.00    -0.380 OA 
HETATM    8  C   UNL     1      -9.894  10.281  65.548  1.00  0.00    -0.282 C  
HETATM    9  C   UNL     1     -10.762  11.201  65.990  1.00  0.00    -0.272 C  
HETATM   10  O   UNL     1      -9.690   4.707  72.298  1.00  0.00    -0.150 OA 
HETATM   11  C   UNL     1      -9.515  10.578  64.112  1.00  0.00    -0.293 C  
HETATM   12  O   UNL     1      -9.336  11.890  63.810  1.00  0.00    -0.045 OA 
HETATM   13  C   UNL     1     -11.271  11.131  67.347  1.00  0.00    -0.294 C  
HETATM   14  O   UNL     1      -9.425   9.739  63.232  1.00  0.00    -0.213 OA 
HETATM   15  O   UNL     1     -11.983  12.040  67.760  1.00  0.00    -0.538 OA 
HETATM   16  C   UNL     1     -10.906   9.968  68.166  1.00  0.00    -0.303 A  
HETATM   17  C   UNL     1     -11.484   9.960  69.446  1.00  0.00    -0.079 A  
HETATM   18  C   UNL     1     -11.244   8.909  70.304  1.00  0.00    -0.219 A  
HETATM   19  C   UNL     1     -10.436   7.861  69.889  1.00  0.00    -0.229 A  
HETATM   20  O   UNL     1     -10.211   6.785  70.730  1.00  0.00    -0.194 OA 
HETATM   21  C   UNL     1     -10.773   6.779  72.004  1.00  0.00    -0.218 C  
HETATM   22  C   UNL     1     -10.486   5.620  72.894  1.00  0.00    -0.214 C  
HETATM   23  C   UNL     1     -11.561   7.747  72.494  1.00  0.00    -0.422 C  
HETATM   24  O   UNL     1     -10.908   5.494  74.033  1.00  0.00    -0.242 OA 
HETATM   25  C   UNL     1     -11.851   8.899  71.643  1.00  0.00    -0.345 C  
BRANCH   6  26
HETATM   26  C   UNL     1      -8.522   8.107  65.913  1.00  0.00    -0.142 C  
HETATM   27  C   UNL     1      -7.053   8.142  66.253  1.00  0.00    -0.073 C  
ENDBRANCH   6  26
ENDBRANCH   3   4
ENDBRANCH   2   3
TORSDOF 3
ENDMDL
MODEL       81
REMARK 921   NORMALIZED FREE ENERGY PREDICTED BY IDOCK:   -4.66 KCAL/MOL
REMARK 922        TOTAL FREE ENERGY PREDICTED BY IDOCK:   -5.96 KCAL/MOL
REMARK 923 INTER-LIGAND FREE ENERGY PREDICTED BY IDOCK:   -5.56 KCAL/MOL
REMARK 924 INTRA-LIGAND FREE ENERGY PREDICTED BY IDOCK:   -0.39 KCAL/MOL
REMARK 927      BINDING AFFINITY PREDICTED BY RF-SCORE:    0.00 PKD
ROOT
HETATM    1  C   UNL     1      -5.309  12.712  70.917  1.00  0.00    -0.172 C  
HETATM    2  C   UNL     1      -6.144  13.701  70.118  1.00  0.00    -0.131 C  
ENDROOT
BRANCH   2   3
HETATM    3  C   UNL     1      -6.255  13.272  68.649  1.00  0.00    -0.084 C  
BRANCH   3   4
HETATM    4  C   UNL     1      -7.695  13.327  68.129  1.00  0.00    -0.143 A  
HETATM    5  C   UNL     1      -8.372  14.424  67.459  1.00  0.00    -0.187 A  
HETATM    6  N   UNL     1      -7.866  15.782  67.176  1.00  0.00    -0.191 NA 
HETATM    7  O   UNL     1     -11.509  10.382  67.719  1.00  0.00    -0.406 OA 
HETATM    8  C   UNL     1      -8.687  16.707  66.457  1.00  0.00    -0.282 C  
HETATM    9  C   UNL     1      -9.902  16.402  65.980  1.00  0.00    -0.362 C  
HETATM   10  O   UNL     1      -6.343   9.144  70.194  1.00  0.00    -0.040 OA 
HETATM   11  C   UNL     1      -8.289  18.096  66.002  1.00  0.00    -0.029 C  
HETATM   12  O   UNL     1      -9.281  19.024  66.010  1.00  0.00    -0.460 OA 
HETATM   13  C   UNL     1     -10.504  15.118  66.285  1.00  0.00    -0.307 C  
HETATM   14  O   UNL     1      -7.184  18.399  65.589  1.00  0.00    -0.493 OA 
HETATM   15  O   UNL     1     -11.656  14.903  65.924  1.00  0.00    -0.324 OA 
HETATM   16  C   UNL     1      -9.700  14.131  67.018  1.00  0.00    -0.258 A  
HETATM   17  C   UNL     1     -10.345  12.900  67.224  1.00  0.00    -0.234 A  
HETATM   18  C   UNL     1      -9.688  11.878  67.874  1.00  0.00    -0.192 A  
HETATM   19  C   UNL     1      -8.387  12.075  68.313  1.00  0.00    -0.163 A  
HETATM   20  O   UNL     1      -7.704  11.047  68.941  1.00  0.00    -0.125 OA 
HETATM   21  C   UNL     1      -8.345   9.829  69.157  1.00  0.00    -0.137 C  
HETATM   22  C   UNL     1      -7.593   8.755  69.862  1.00  0.00    -0.065 C  
HETATM   23  C   UNL     1      -9.599   9.549  68.776  1.00  0.00    -0.159 C  
HETATM   24  O   UNL     1      -8.037   7.647  70.122  1.00  0.00    -0.114 OA 
HETATM   25  C   UNL     1     -10.361  10.589  68.089  1.00  0.00    -0.172 C  
BRANCH   6  26
HETATM   26  C   UNL     1      -6.546  16.057  67.773  1.00  0.00    -0.154 C  
HETATM   27  C   UNL     1      -6.292  17.032  68.897  1.00  0.00    -0.183 C  
ENDBRANCH   6  26
ENDBRANCH   3   4
ENDBRANCH   2   3
TORSDOF 3
ENDMDL
MODEL       82
REMARK 921   NORMALIZED FREE ENERGY PREDICTED BY IDOCK:   -4.64 KCAL/MOL
REMARK 922        TOTAL FREE ENERGY PREDICTED BY IDOCK:   -5.93 KCAL/MOL
REMARK 923 INTER-LIGAND FREE ENERGY PREDICTED BY IDOCK:   -5.69 KCAL/MOL
REMARK 924 INTRA-LIGAND FREE ENERGY PREDICTED BY IDOCK:   -0.24 KCAL/MOL
REMARK 927      BINDING AFFINITY PREDICTED BY RF-SCORE:    0.00 PKD
ROOT
HETATM    1  C   UNL     1      -6.528  11.556  69.879  1.00  0.00    -0.106 C  
HETATM    2  C   UNL     1      -7.289  12.013  68.643  1.00  0.00    -0.111 C  
ENDROOT
BRANCH   2   3
HETATM    3  C   UNL     1      -8.628  11.275  68.513  1.00  0.00    -0.156 C  
BRANCH   3   4
HETATM    4  C   UNL     1      -8.890  10.783  67.086  1.00  0.00    -0.135 A  
HETATM    5  C   UNL     1      -9.582  11.467  66.007  1.00  0.00    -0.221 A  
HETATM    6  N   UNL     1     -10.267  12.774  66.037  1.00  0.00    -0.273 NA 
HETATM    7  O   UNL     1      -7.796   6.974  64.315  1.00  0.00    -0.112 OA 
HETATM    8  C   UNL     1     -10.854  13.293  64.839  1.00  0.00    -0.345 C  
HETATM    9  C   UNL     1     -10.789  12.670  63.654  1.00  0.00    -0.437 C  
HETATM   10  O   UNL     1      -6.413   7.747  69.956  1.00  0.00    -0.033 OA 
HETATM   11  C   UNL     1     -11.505  14.650  64.673  1.00  0.00    -0.388 C  
HETATM   12  O   UNL     1     -12.559  14.696  63.816  1.00  0.00    -0.820 OA 
HETATM   13  C   UNL     1     -10.206  11.345  63.557  1.00  0.00    -0.413 C  
HETATM   14  O   UNL     1     -11.112  15.676  65.200  1.00  0.00    -0.371 OA 
HETATM   15  O   UNL     1     -10.251  10.755  62.483  1.00  0.00     0.023 OA 
HETATM   16  C   UNL     1      -9.586  10.771  64.758  1.00  0.00    -0.314 A  
HETATM   17  C   UNL     1      -9.003   9.508  64.559  1.00  0.00    -0.256 A  
HETATM   18  C   UNL     1      -8.363   8.872  65.600  1.00  0.00    -0.144 A  
HETATM   19  C   UNL     1      -8.295   9.492  66.839  1.00  0.00    -0.116 A  
HETATM   20  O   UNL     1      -7.629   8.878  67.886  1.00  0.00    -0.092 OA 
HETATM   21  C   UNL     1      -7.060   7.621  67.694  1.00  0.00    -0.085 C  
HETATM   22  C   UNL     1      -6.377   6.975  68.850  1.00  0.00    -0.028 C  
HETATM   23  C   UNL     1      -7.081   6.943  66.538  1.00  0.00    -0.067 C  
HETATM   24  O   UNL     1      -5.846   5.876  68.820  1.00  0.00    -0.014 OA 
HETATM   25  C   UNL     1      -7.751   7.552  65.392  1.00  0.00    -0.109 C  
BRANCH   6  26
HETATM   26  C   UNL     1     -10.339  13.373  67.383  1.00  0.00    -0.240 C  
HETATM   27  C   UNL     1     -11.378  13.037  68.424  1.00  0.00    -0.326 C  
ENDBRANCH   6  26
ENDBRANCH   3   4
ENDBRANCH   2   3
TORSDOF 3
ENDMDL
MODEL       83
REMARK 921   NORMALIZED FREE ENERGY PREDICTED BY IDOCK:   -4.61 KCAL/MOL
REMARK 922        TOTAL FREE ENERGY PREDICTED BY IDOCK:   -5.90 KCAL/MOL
REMARK 923 INTER-LIGAND FREE ENERGY PREDICTED BY IDOCK:   -5.58 KCAL/MOL
REMARK 924 INTRA-LIGAND FREE ENERGY PREDICTED BY IDOCK:   -0.31 KCAL/MOL
REMARK 927      BINDING AFFINITY PREDICTED BY RF-SCORE:    0.00 PKD
ROOT
HETATM    1  C   UNL     1     -12.723  12.180  64.391  1.00  0.00    -0.317 C  
HETATM    2  C   UNL     1     -11.833  12.406  65.604  1.00  0.00    -0.468 C  
ENDROOT
BRANCH   2   3
HETATM    3  C   UNL     1     -10.375  12.643  65.185  1.00  0.00    -0.312 C  
BRANCH   3   4
HETATM    4  C   UNL     1      -9.507  13.144  66.343  1.00  0.00    -0.226 A  
HETATM    5  C   UNL     1      -9.216  14.514  66.728  1.00  0.00    -0.267 A  
HETATM    6  N   UNL     1      -9.626  15.764  66.058  1.00  0.00    -0.328 NA 
HETATM    7  O   UNL     1      -7.014  11.300  70.055  1.00  0.00    -0.064 OA 
HETATM    8  C   UNL     1      -9.268  17.025  66.633  1.00  0.00    -0.256 C  
HETATM    9  C   UNL     1      -8.598  17.148  67.787  1.00  0.00    -0.216 C  
HETATM   10  O   UNL     1      -9.904   8.321  65.918  1.00  0.00    -0.068 OA 
HETATM   11  C   UNL     1      -9.686  18.391  66.131  1.00  0.00    -0.229 C  
HETATM   12  O   UNL     1      -8.770  19.382  66.289  1.00  0.00    -0.341 OA 
HETATM   13  C   UNL     1      -8.089  15.970  68.464  1.00  0.00    -0.169 C  
HETATM   14  O   UNL     1     -10.781  18.653  65.666  1.00  0.00    -0.555 OA 
HETATM   15  O   UNL     1      -7.392  16.116  69.463  1.00  0.00    -0.220 OA 
HETATM   16  C   UNL     1      -8.433  14.652  67.916  1.00  0.00    -0.158 A  
HETATM   17  C   UNL     1      -7.940  13.569  68.664  1.00  0.00    -0.073 A  
HETATM   18  C   UNL     1      -8.217  12.278  68.273  1.00  0.00    -0.167 A  
HETATM   19  C   UNL     1      -8.991  12.059  67.142  1.00  0.00    -0.185 A  
HETATM   20  O   UNL     1      -9.302  10.767  66.755  1.00  0.00    -0.158 OA 
HETATM   21  C   UNL     1      -8.804   9.692  67.488  1.00  0.00    -0.125 C  
HETATM   22  C   UNL     1      -9.133   8.315  67.027  1.00  0.00    -0.145 C  
HETATM   23  C   UNL     1      -8.046   9.805  68.587  1.00  0.00    -0.105 C  
HETATM   24  O   UNL     1      -8.756   7.288  67.570  1.00  0.00    -0.121 OA 
HETATM   25  C   UNL     1      -7.703  11.145  69.056  1.00  0.00    -0.114 C  
BRANCH   6  26
HETATM   26  C   UNL     1     -10.314  15.547  64.772  1.00  0.00    -0.005 C  
HETATM   27  C   UNL     1     -11.776  15.819  64.517  1.00  0.00    -0.191 C  
ENDBRANCH   6  26
ENDBRANCH   3   4
ENDBRANCH   2   3
TORSDOF 3
ENDMDL
MODEL       84
REMARK 921   NORMALIZED FREE ENERGY PREDICTED BY IDOCK:   -4.57 KCAL/MOL
REMARK 922        TOTAL FREE ENERGY PREDICTED BY IDOCK:   -5.84 KCAL/MOL
REMARK 923 INTER-LIGAND FREE ENERGY PREDICTED BY IDOCK:   -5.63 KCAL/MOL
REMARK 924 INTRA-LIGAND FREE ENERGY PREDICTED BY IDOCK:   -0.21 KCAL/MOL
REMARK 927      BINDING AFFINITY PREDICTED BY RF-SCORE:    0.00 PKD
ROOT
HETATM    1  C   UNL     1      -9.856   4.922  70.036  1.00  0.00    -0.304 C  
HETATM    2  C   UNL     1      -9.549   6.408  69.924  1.00  0.00    -0.166 C  
ENDROOT
BRANCH   2   3
HETATM    3  C   UNL     1     -10.269   7.033  68.721  1.00  0.00    -0.181 C  
BRANCH   3   4
HETATM    4  C   UNL     1     -10.022   8.540  68.609  1.00  0.00    -0.197 A  
HETATM    5  C   UNL     1      -9.084   9.240  67.748  1.00  0.00    -0.126 A  
HETATM    6  N   UNL     1      -8.086   8.672  66.821  1.00  0.00    -0.100 NA 
HETATM    7  O   UNL     1     -11.830  12.647  70.412  1.00  0.00    -0.291 OA 
HETATM    8  C   UNL     1      -7.282   9.546  66.023  1.00  0.00    -0.093 C  
HETATM    9  C   UNL     1      -7.404  10.881  66.037  1.00  0.00    -0.081 C  
HETATM   10  O   UNL     1     -13.447   7.182  71.773  1.00  0.00    -0.355 OA 
HETATM   11  C   UNL     1      -6.286   9.132  64.960  1.00  0.00    -0.066 C  
HETATM   12  O   UNL     1      -5.187   9.921  64.843  1.00  0.00    -0.049 OA 
HETATM   13  C   UNL     1      -8.303  11.522  66.978  1.00  0.00    -0.165 C  
HETATM   14  O   UNL     1      -6.441   8.197  64.193  1.00  0.00    -0.065 OA 
HETATM   15  O   UNL     1      -8.320  12.746  67.041  1.00  0.00    -0.178 OA 
HETATM   16  C   UNL     1      -9.153  10.667  67.817  1.00  0.00    -0.144 A  
HETATM   17  C   UNL     1     -10.027  11.372  68.661  1.00  0.00    -0.209 A  
HETATM   18  C   UNL     1     -10.899  10.688  69.479  1.00  0.00    -0.303 A  
HETATM   19  C   UNL     1     -10.910   9.300  69.454  1.00  0.00    -0.169 A  
HETATM   20  O   UNL     1     -11.802   8.600  70.248  1.00  0.00    -0.035 OA 
HETATM   21  C   UNL     1     -12.661   9.297  71.094  1.00  0.00    -0.240 C  
HETATM   22  C   UNL     1     -13.587   8.512  71.957  1.00  0.00    -0.392 C  
HETATM   23  C   UNL     1     -12.718  10.633  71.191  1.00  0.00    -0.522 C  
HETATM   24  O   UNL     1     -14.383   8.996  72.747  1.00  0.00    -0.596 OA 
HETATM   25  C   UNL     1     -11.815  11.425  70.361  1.00  0.00    -0.335 C  
BRANCH   6  26
HETATM   26  C   UNL     1      -7.976   7.203  66.898  1.00  0.00    -0.115 C  
HETATM   27  C   UNL     1      -8.590   6.237  65.914  1.00  0.00    -0.150 C  
ENDBRANCH   6  26
ENDBRANCH   3   4
ENDBRANCH   2   3
TORSDOF 3
ENDMDL
MODEL       85
REMARK 921   NORMALIZED FREE ENERGY PREDICTED BY IDOCK:   -4.50 KCAL/MOL
REMARK 922        TOTAL FREE ENERGY PREDICTED BY IDOCK:   -5.77 KCAL/MOL
REMARK 923 INTER-LIGAND FREE ENERGY PREDICTED BY IDOCK:   -5.79 KCAL/MOL
REMARK 924 INTRA-LIGAND FREE ENERGY PREDICTED BY IDOCK:    0.02 KCAL/MOL
REMARK 927      BINDING AFFINITY PREDICTED BY RF-SCORE:    0.00 PKD
ROOT
HETATM    1  C   UNL     1     -10.072   9.771  65.601  1.00  0.00    -0.282 C  
HETATM    2  C   UNL     1      -8.944   9.023  66.296  1.00  0.00    -0.199 C  
ENDROOT
BRANCH   2   3
HETATM    3  C   UNL     1      -8.619   9.653  67.657  1.00  0.00    -0.126 C  
BRANCH   3   4
HETATM    4  C   UNL     1      -9.524   9.132  68.776  1.00  0.00    -0.147 A  
HETATM    5  C   UNL     1     -10.508   9.862  69.557  1.00  0.00    -0.241 A  
HETATM    6  N   UNL     1     -10.828  11.302  69.517  1.00  0.00    -0.197 NA 
HETATM    7  O   UNL     1     -10.564   4.926  70.926  1.00  0.00    -0.147 OA 
HETATM    8  C   UNL     1     -11.874  11.818  70.346  1.00  0.00    -0.271 C  
HETATM    9  C   UNL     1     -12.624  11.053  71.151  1.00  0.00    -0.522 C  
HETATM   10  O   UNL     1      -6.586   5.854  66.724  1.00  0.00    -0.052 OA 
HETATM   11  C   UNL     1     -12.393  13.241  70.358  1.00  0.00    -0.295 C  
HETATM   12  O   UNL     1     -12.797  13.711  71.567  1.00  0.00    -0.346 OA 
HETATM   13  C   UNL     1     -12.320   9.644  71.310  1.00  0.00    -0.360 C  
HETATM   14  O   UNL     1     -12.518  13.941  69.368  1.00  0.00    -0.273 OA 
HETATM   15  O   UNL     1     -12.956   8.989  72.130  1.00  0.00    -0.367 OA 
HETATM   16  C   UNL     1     -11.258   9.066  70.478  1.00  0.00    -0.301 A  
HETATM   17  C   UNL     1     -11.067   7.686  70.662  1.00  0.00    -0.269 A  
HETATM   18  C   UNL     1     -10.119   7.016  69.920  1.00  0.00    -0.202 A  
HETATM   19  C   UNL     1      -9.365   7.713  68.987  1.00  0.00    -0.146 A  
HETATM   20  O   UNL     1      -8.431   7.047  68.213  1.00  0.00    -0.122 OA 
HETATM   21  C   UNL     1      -8.231   5.681  68.402  1.00  0.00    -0.103 C  
HETATM   22  C   UNL     1      -7.196   5.001  67.574  1.00  0.00    -0.070 C  
HETATM   23  C   UNL     1      -8.905   4.926  69.281  1.00  0.00    -0.115 C  
HETATM   24  O   UNL     1      -6.916   3.814  67.644  1.00  0.00    -0.053 OA 
HETATM   25  C   UNL     1      -9.920   5.572  70.111  1.00  0.00    -0.221 C  
BRANCH   6  26
HETATM   26  C   UNL     1      -9.930  12.084  68.646  1.00  0.00    -0.142 C  
HETATM   27  C   UNL     1     -10.332  12.722  67.339  1.00  0.00    -0.222 C  
ENDBRANCH   6  26
ENDBRANCH   3   4
ENDBRANCH   2   3
TORSDOF 3
ENDMDL
MODEL       86
REMARK 921   NORMALIZED FREE ENERGY PREDICTED BY IDOCK:   -4.47 KCAL/MOL
REMARK 922        TOTAL FREE ENERGY PREDICTED BY IDOCK:   -5.73 KCAL/MOL
REMARK 923 INTER-LIGAND FREE ENERGY PREDICTED BY IDOCK:   -5.97 KCAL/MOL
REMARK 924 INTRA-LIGAND FREE ENERGY PREDICTED BY IDOCK:    0.24 KCAL/MOL
REMARK 927      BINDING AFFINITY PREDICTED BY RF-SCORE:    0.00 PKD
ROOT
HETATM    1  C   UNL     1     -12.956   9.005  70.840  1.00  0.00     0.043 C  
HETATM    2  C   UNL     1     -12.868  10.176  69.872  1.00  0.00     0.289 C  
ENDROOT
BRANCH   2   3
HETATM    3  C   UNL     1     -11.434  10.713  69.782  1.00  0.00    -0.375 C  
BRANCH   3   4
HETATM    4  C   UNL     1     -11.376  12.139  69.224  1.00  0.00    -0.327 A  
HETATM    5  C   UNL     1     -11.701  13.385  69.895  1.00  0.00    -0.267 A  
HETATM    6  N   UNL     1     -12.237  13.585  71.256  1.00  0.00    -0.225 NA 
HETATM    7  O   UNL     1     -10.007  14.382  65.164  1.00  0.00    -0.354 OA 
HETATM    8  C   UNL     1     -12.448  14.913  71.746  1.00  0.00    -0.339 C  
HETATM    9  C   UNL     1     -12.150  16.015  71.045  1.00  0.00    -0.372 C  
HETATM   10  O   UNL     1     -10.019   8.610  66.174  1.00  0.00    -0.260 OA 
HETATM   11  C   UNL     1     -12.897  15.295  73.141  1.00  0.00    -0.494 C  
HETATM   12  O   UNL     1     -13.690  16.394  73.224  1.00  0.00    -0.455 OA 
HETATM   13  C   UNL     1     -11.697  15.907  69.671  1.00  0.00    -0.317 C  
HETATM   14  O   UNL     1     -12.548  14.725  74.161  1.00  0.00    -0.469 OA 
HETATM   15  O   UNL     1     -11.529  16.932  69.020  1.00  0.00    -0.003 OA 
HETATM   16  C   UNL     1     -11.461  14.565  69.123  1.00  0.00    -0.324 A  
HETATM   17  C   UNL     1     -10.976  14.557  67.804  1.00  0.00    -0.282 A  
HETATM   18  C   UNL     1     -10.687  13.362  67.183  1.00  0.00    -0.268 A  
HETATM   19  C   UNL     1     -10.871  12.173  67.873  1.00  0.00    -0.217 A  
HETATM   20  O   UNL     1     -10.555  10.967  67.271  1.00  0.00    -0.221 OA 
HETATM   21  C   UNL     1     -10.085  10.955  65.960  1.00  0.00    -0.249 C  
HETATM   22  C   UNL     1      -9.784   9.639  65.333  1.00  0.00    -0.295 C  
HETATM   23  C   UNL     1      -9.882  12.050  65.214  1.00  0.00    -0.236 C  
HETATM   24  O   UNL     1      -9.375   9.487  64.192  1.00  0.00    -0.184 OA 
HETATM   25  C   UNL     1     -10.177  13.354  65.804  1.00  0.00    -0.295 C  
BRANCH   6  26
HETATM   26  C   UNL     1     -12.585  12.328  71.944  1.00  0.00     0.061 C  
HETATM   27  C   UNL     1     -13.965  11.965  72.436  1.00  0.00     0.467 C  
ENDBRANCH   6  26
ENDBRANCH   3   4
ENDBRANCH   2   3
TORSDOF 3
ENDMDL
MODEL       87
REMARK 921   NORMALIZED FREE ENERGY PREDICTED BY IDOCK:   -4.45 KCAL/MOL
REMARK 922        TOTAL FREE ENERGY PREDICTED BY IDOCK:   -5.70 KCAL/MOL
REMARK 923 INTER-LIGAND FREE ENERGY PREDICTED BY IDOCK:   -5.50 KCAL/MOL
REMARK 924 INTRA-LIGAND FREE ENERGY PREDICTED BY IDOCK:   -0.20 KCAL/MOL
REMARK 927      BINDING AFFINITY PREDICTED BY RF-SCORE:    0.00 PKD
ROOT
HETATM    1  C   UNL     1      -6.036  16.966  67.852  1.00  0.00    -0.142 C  
HETATM    2  C   UNL     1      -6.178  15.531  67.368  1.00  0.00    -0.072 C  
ENDROOT
BRANCH   2   3
HETATM    3  C   UNL     1      -7.234  14.773  68.184  1.00  0.00    -0.125 C  
BRANCH   3   4
HETATM    4  C   UNL     1      -8.055  13.806  67.327  1.00  0.00    -0.154 A  
HETATM    5  C   UNL     1      -7.977  12.356  67.273  1.00  0.00    -0.178 A  
HETATM    6  N   UNL     1      -7.039  11.459  67.977  1.00  0.00    -0.072 NA 
HETATM    7  O   UNL     1     -11.737  13.979  64.196  1.00  0.00    -0.381 OA 
HETATM    8  C   UNL     1      -7.162  10.042  67.819  1.00  0.00    -0.087 C  
HETATM    9  C   UNL     1      -8.119   9.461  67.083  1.00  0.00    -0.102 C  
HETATM   10  O   UNL     1      -9.119  18.518  66.819  1.00  0.00    -0.279 OA 
HETATM   11  C   UNL     1      -6.351   8.985  68.538  1.00  0.00    -0.054 C  
HETATM   12  O   UNL     1      -6.077   7.864  67.821  1.00  0.00    -0.043 OA 
HETATM   13  C   UNL     1      -9.028  10.271  66.296  1.00  0.00    -0.153 C  
HETATM   14  O   UNL     1      -5.995   9.057  69.701  1.00  0.00    -0.032 OA 
HETATM   15  O   UNL     1      -9.828   9.713  65.552  1.00  0.00    -0.302 OA 
HETATM   16  C   UNL     1      -8.945  11.732  66.426  1.00  0.00    -0.201 A  
HETATM   17  C   UNL     1      -9.896  12.434  65.667  1.00  0.00    -0.235 A  
HETATM   18  C   UNL     1      -9.944  13.810  65.722  1.00  0.00    -0.293 A  
HETATM   19  C   UNL     1      -9.052  14.490  66.539  1.00  0.00    -0.219 A  
HETATM   20  O   UNL     1      -9.109  15.871  66.628  1.00  0.00    -0.215 OA 
HETATM   21  C   UNL     1     -10.042  16.570  65.867  1.00  0.00    -0.337 C  
HETATM   22  C   UNL     1     -10.056  18.056  65.964  1.00  0.00    -0.266 C  
HETATM   23  C   UNL     1     -10.937  16.001  65.047  1.00  0.00    -0.393 C  
HETATM   24  O   UNL     1     -10.814  18.788  65.347  1.00  0.00    -0.563 OA 
HETATM   25  C   UNL     1     -10.939  14.545  64.929  1.00  0.00    -0.410 C  
BRANCH   6  26
HETATM   26  C   UNL     1      -5.987  12.173  68.725  1.00  0.00    -0.057 C  
HETATM   27  C   UNL     1      -5.952  12.335  70.225  1.00  0.00    -0.138 C  
ENDBRANCH   6  26
ENDBRANCH   3   4
ENDBRANCH   2   3
TORSDOF 3
ENDMDL
MODEL       88
REMARK 921   NORMALIZED FREE ENERGY PREDICTED BY IDOCK:   -4.43 KCAL/MOL
REMARK 922        TOTAL FREE ENERGY PREDICTED BY IDOCK:   -5.68 KCAL/MOL
REMARK 923 INTER-LIGAND FREE ENERGY PREDICTED BY IDOCK:   -5.39 KCAL/MOL
REMARK 924 INTRA-LIGAND FREE ENERGY PREDICTED BY IDOCK:   -0.29 KCAL/MOL
REMARK 927      BINDING AFFINITY PREDICTED BY RF-SCORE:    0.00 PKD
ROOT
HETATM    1  C   UNL     1      -8.782   8.328  70.921  1.00  0.00    -0.163 C  
HETATM    2  C   UNL     1     -10.266   8.594  71.122  1.00  0.00    -0.294 C  
ENDROOT
BRANCH   2   3
HETATM    3  C   UNL     1     -11.116   7.742  70.169  1.00  0.00    -0.216 C  
BRANCH   3   4
HETATM    4  C   UNL     1     -10.518   7.663  68.762  1.00  0.00    -0.208 A  
HETATM    5  C   UNL     1      -9.987   6.502  68.069  1.00  0.00    -0.134 A  
HETATM    6  N   UNL     1      -9.824   5.125  68.574  1.00  0.00    -0.149 NA 
HETATM    7  O   UNL     1      -9.818  10.572  64.961  1.00  0.00    -0.258 OA 
HETATM    8  C   UNL     1      -9.316   4.108  67.704  1.00  0.00    -0.170 C  
HETATM    9  C   UNL     1      -9.004   4.322  66.419  1.00  0.00    -0.120 C  
HETATM   10  O   UNL     1     -12.085  12.043  70.161  1.00  0.00    -0.322 OA 
HETATM   11  C   UNL     1      -9.178   2.635  68.029  1.00  0.00    -0.205 C  
HETATM   12  O   UNL     1      -8.112   2.006  67.469  1.00  0.00    -0.063 OA 
HETATM   13  C   UNL     1      -9.057   5.663  65.869  1.00  0.00    -0.148 C  
HETATM   14  O   UNL     1      -9.975   1.994  68.692  1.00  0.00     0.121 OA 
HETATM   15  O   UNL     1      -8.669   5.849  64.721  1.00  0.00    -0.066 OA 
HETATM   16  C   UNL     1      -9.576   6.742  66.720  1.00  0.00    -0.210 A  
HETATM   17  C   UNL     1      -9.639   7.996  66.089  1.00  0.00    -0.159 A  
HETATM   18  C   UNL     1     -10.134   9.086  66.770  1.00  0.00    -0.344 A  
HETATM   19  C   UNL     1     -10.575   8.932  68.076  1.00  0.00    -0.168 A  
HETATM   20  O   UNL     1     -11.103  10.012  68.761  1.00  0.00    -0.226 OA 
HETATM   21  C   UNL     1     -11.156  11.259  68.142  1.00  0.00    -0.259 C  
HETATM   22  C   UNL     1     -11.702  12.407  68.919  1.00  0.00    -0.324 C  
HETATM   23  C   UNL     1     -10.748  11.506  66.889  1.00  0.00    -0.304 C  
HETATM   24  O   UNL     1     -11.796  13.550  68.500  1.00  0.00    -0.329 OA 
HETATM   25  C   UNL     1     -10.201  10.398  66.110  1.00  0.00    -0.223 C  
BRANCH   6  26
HETATM   26  C   UNL     1     -10.141   4.979  70.007  1.00  0.00    -0.272 C  
HETATM   27  C   UNL     1      -9.140   4.637  71.083  1.00  0.00    -0.180 C  
ENDBRANCH   6  26
ENDBRANCH   3   4
ENDBRANCH   2   3
TORSDOF 3
ENDMDL
MODEL       89
REMARK 921   NORMALIZED FREE ENERGY PREDICTED BY IDOCK:   -4.40 KCAL/MOL
REMARK 922        TOTAL FREE ENERGY PREDICTED BY IDOCK:   -5.65 KCAL/MOL
REMARK 923 INTER-LIGAND FREE ENERGY PREDICTED BY IDOCK:   -5.29 KCAL/MOL
REMARK 924 INTRA-LIGAND FREE ENERGY PREDICTED BY IDOCK:   -0.36 KCAL/MOL
REMARK 927      BINDING AFFINITY PREDICTED BY RF-SCORE:    0.00 PKD
ROOT
HETATM    1  C   UNL     1     -11.060   6.585  66.856  1.00  0.00    -0.342 C  
HETATM    2  C   UNL     1      -9.606   6.365  67.246  1.00  0.00    -0.143 C  
ENDROOT
BRANCH   2   3
HETATM    3  C   UNL     1      -8.887   7.701  67.479  1.00  0.00    -0.124 C  
BRANCH   3   4
HETATM    4  C   UNL     1      -9.629   8.601  68.471  1.00  0.00    -0.162 A  
HETATM    5  C   UNL     1     -10.389   9.809  68.201  1.00  0.00    -0.202 A  
HETATM    6  N   UNL     1     -10.576  10.510  66.916  1.00  0.00    -0.253 NA 
HETATM    7  O   UNL     1     -10.666   8.695  73.194  1.00  0.00     0.347 OA 
HETATM    8  C   UNL     1     -11.409  11.673  66.858  1.00  0.00    -0.295 C  
HETATM    9  C   UNL     1     -12.076  12.158  67.915  1.00  0.00    -0.027 C  
HETATM   10  O   UNL     1      -7.411   4.721  70.374  1.00  0.00    -0.049 OA 
HETATM   11  C   UNL     1     -11.783  12.449  65.613  1.00  0.00    -0.414 C  
HETATM   12  O   UNL     1     -11.925  13.791  65.776  1.00  0.00    -0.357 OA 
HETATM   13  C   UNL     1     -11.881  11.577  69.230  1.00  0.00    -0.348 C  
HETATM   14  O   UNL     1     -12.013  11.947  64.526  1.00  0.00    -0.287 OA 
HETATM   15  O   UNL     1     -12.423  12.103  70.196  1.00  0.00    -0.160 OA 
HETATM   16  C   UNL     1     -11.039  10.379  69.341  1.00  0.00    -0.304 A  
HETATM   17  C   UNL     1     -10.948   9.856  70.642  1.00  0.00    -0.405 A  
HETATM   18  C   UNL     1     -10.210   8.716  70.877  1.00  0.00    -0.261 A  
HETATM   19  C   UNL     1      -9.568   8.089  69.819  1.00  0.00    -0.171 A  
HETATM   20  O   UNL     1      -8.849   6.926  70.035  1.00  0.00    -0.141 OA 
HETATM   21  C   UNL     1      -8.748   6.412  71.326  1.00  0.00    -0.135 C  
HETATM   22  C   UNL     1      -7.941   5.177  71.529  1.00  0.00    -0.113 C  
HETATM   23  C   UNL     1      -9.326   6.950  72.409  1.00  0.00    -0.149 C  
HETATM   24  O   UNL     1      -7.765   4.628  72.605  1.00  0.00    -0.084 OA 
HETATM   25  C   UNL     1     -10.117   8.167  72.237  1.00  0.00    -0.269 C  
BRANCH   6  26
HETATM   26  C   UNL     1      -9.774   9.948  65.813  1.00  0.00    -0.266 C  
HETATM   27  C   UNL     1      -8.617  10.646  65.142  1.00  0.00    -0.173 C  
ENDBRANCH   6  26
ENDBRANCH   3   4
ENDBRANCH   2   3
TORSDOF 3
ENDMDL
MODEL       90
REMARK 921   NORMALIZED FREE ENERGY PREDICTED BY IDOCK:   -4.40 KCAL/MOL
REMARK 922        TOTAL FREE ENERGY PREDICTED BY IDOCK:   -5.65 KCAL/MOL
REMARK 923 INTER-LIGAND FREE ENERGY PREDICTED BY IDOCK:   -5.27 KCAL/MOL
REMARK 924 INTRA-LIGAND FREE ENERGY PREDICTED BY IDOCK:   -0.39 KCAL/MOL
REMARK 927      BINDING AFFINITY PREDICTED BY RF-SCORE:    0.00 PKD
ROOT
HETATM    1  C   UNL     1      -8.460   7.551  70.513  1.00  0.00    -0.133 C  
HETATM    2  C   UNL     1      -9.187   8.856  70.225  1.00  0.00    -0.207 C  
ENDROOT
BRANCH   2   3
HETATM    3  C   UNL     1     -10.300   8.653  69.187  1.00  0.00    -0.227 C  
BRANCH   3   4
HETATM    4  C   UNL     1     -10.120   9.541  67.952  1.00  0.00    -0.234 A  
HETATM    5  C   UNL     1     -10.405  10.958  67.809  1.00  0.00    -0.187 A  
HETATM    6  N   UNL     1     -11.005  11.879  68.794  1.00  0.00    -0.224 NA 
HETATM    7  O   UNL     1      -8.377   9.174  63.456  1.00  0.00    -0.170 OA 
HETATM    8  C   UNL     1     -11.160  13.263  68.465  1.00  0.00    -0.265 C  
HETATM    9  C   UNL     1     -10.753  13.798  67.306  1.00  0.00    -0.286 C  
HETATM   10  O   UNL     1      -8.812   4.892  67.432  1.00  0.00    -0.104 OA 
HETATM   11  C   UNL     1     -11.665  14.354  69.386  1.00  0.00    -0.317 C  
HETATM   12  O   UNL     1     -12.392  15.337  68.792  1.00  0.00    -0.110 OA 
HETATM   13  C   UNL     1     -10.229  12.947  66.254  1.00  0.00    -0.278 C  
HETATM   14  O   UNL     1     -11.413  14.427  70.576  1.00  0.00    -0.242 OA 
HETATM   15  O   UNL     1      -9.959  13.447  65.167  1.00  0.00    -0.257 OA 
HETATM   16  C   UNL     1     -10.046  11.519  66.544  1.00  0.00    -0.246 A  
HETATM   17  C   UNL     1      -9.486  10.782  65.487  1.00  0.00    -0.253 A  
HETATM   18  C   UNL     1      -9.237   9.437  65.640  1.00  0.00    -0.285 A  
HETATM   19  C   UNL     1      -9.535   8.821  66.847  1.00  0.00    -0.177 A  
HETATM   20  O   UNL     1      -9.261   7.476  67.025  1.00  0.00    -0.128 OA 
HETATM   21  C   UNL     1      -8.718   6.741  65.974  1.00  0.00    -0.146 C  
HETATM   22  C   UNL     1      -8.464   5.289  66.190  1.00  0.00    -0.117 C  
HETATM   23  C   UNL     1      -8.403   7.246  64.773  1.00  0.00     0.011 C  
HETATM   24  O   UNL     1      -8.000   4.530  65.353  1.00  0.00    -0.096 OA 
HETATM   25  C   UNL     1      -8.649   8.666  64.534  1.00  0.00    -0.070 C  
BRANCH   6  26
HETATM   26  C   UNL     1     -11.472  11.209  70.022  1.00  0.00    -0.292 C  
HETATM   27  C   UNL     1     -12.891  10.763  70.278  1.00  0.00    -0.226 C  
ENDBRANCH   6  26
ENDBRANCH   3   4
ENDBRANCH   2   3
TORSDOF 3
ENDMDL
MODEL       91
REMARK 921   NORMALIZED FREE ENERGY PREDICTED BY IDOCK:   -4.28 KCAL/MOL
REMARK 922        TOTAL FREE ENERGY PREDICTED BY IDOCK:   -5.51 KCAL/MOL
REMARK 923 INTER-LIGAND FREE ENERGY PREDICTED BY IDOCK:   -5.16 KCAL/MOL
REMARK 924 INTRA-LIGAND FREE ENERGY PREDICTED BY IDOCK:   -0.35 KCAL/MOL
REMARK 927      BINDING AFFINITY PREDICTED BY RF-SCORE:    0.00 PKD
ROOT
HETATM    1  C   UNL     1     -11.632  10.078  71.080  1.00  0.00    -0.476 C  
HETATM    2  C   UNL     1     -11.209   9.515  69.731  1.00  0.00    -0.173 C  
ENDROOT
BRANCH   2   3
HETATM    3  C   UNL     1      -9.751   9.037  69.763  1.00  0.00    -0.183 C  
BRANCH   3   4
HETATM    4  C   UNL     1      -9.542   7.740  68.975  1.00  0.00    -0.155 A  
HETATM    5  C   UNL     1      -9.142   7.581  67.587  1.00  0.00    -0.125 A  
HETATM    6  N   UNL     1      -8.910   8.627  66.571  1.00  0.00    -0.131 NA 
HETATM    7  O   UNL     1      -9.599   2.971  69.773  1.00  0.00    -0.140 OA 
HETATM    8  C   UNL     1      -8.473   8.255  65.260  1.00  0.00    -0.162 C  
HETATM    9  C   UNL     1      -8.222   6.990  64.895  1.00  0.00    -0.076 C  
HETATM   10  O   UNL     1     -10.834   7.210  73.627  1.00  0.00    -0.352 OA 
HETATM   11  C   UNL     1      -8.099   9.199  64.137  1.00  0.00    -0.149 C  
HETATM   12  O   UNL     1      -8.405   8.774  62.883  1.00  0.00    -0.186 OA 
HETATM   13  C   UNL     1      -8.504   5.898  65.807  1.00  0.00    -0.148 C  
HETATM   14  O   UNL     1      -7.505  10.253  64.287  1.00  0.00    -0.136 OA 
HETATM   15  O   UNL     1      -8.363   4.746  65.414  1.00  0.00    -0.115 OA 
HETATM   16  C   UNL     1      -8.950   6.228  67.167  1.00  0.00    -0.111 A  
HETATM   17  C   UNL     1      -9.150   5.111  67.996  1.00  0.00    -0.123 A  
HETATM   18  C   UNL     1      -9.541   5.285  69.305  1.00  0.00    -0.214 A  
HETATM   19  C   UNL     1      -9.727   6.569  69.797  1.00  0.00    -0.158 A  
HETATM   20  O   UNL     1     -10.091   6.759  71.119  1.00  0.00    -0.182 OA 
HETATM   21  C   UNL     1     -10.301   5.654  71.939  1.00  0.00    -0.215 C  
HETATM   22  C   UNL     1     -10.721   5.893  73.348  1.00  0.00    -0.267 C  
HETATM   23  C   UNL     1     -10.153   4.379  71.553  1.00  0.00    -0.221 C  
HETATM   24  O   UNL     1     -10.946   5.016  74.167  1.00  0.00    -0.304 OA 
HETATM   25  C   UNL     1      -9.749   4.117  70.173  1.00  0.00    -0.208 C  
BRANCH   6  26
HETATM   26  C   UNL     1      -9.254   9.985  67.032  1.00  0.00    -0.146 C  
HETATM   27  C   UNL     1     -10.469  10.765  66.592  1.00  0.00    -0.302 C  
ENDBRANCH   6  26
ENDBRANCH   3   4
ENDBRANCH   2   3
TORSDOF 3
ENDMDL
MODEL       92
REMARK 921   NORMALIZED FREE ENERGY PREDICTED BY IDOCK:   -4.22 KCAL/MOL
REMARK 922        TOTAL FREE ENERGY PREDICTED BY IDOCK:   -5.43 KCAL/MOL
REMARK 923 INTER-LIGAND FREE ENERGY PREDICTED BY IDOCK:   -5.18 KCAL/MOL
REMARK 924 INTRA-LIGAND FREE ENERGY PREDICTED BY IDOCK:   -0.25 KCAL/MOL
REMARK 927      BINDING AFFINITY PREDICTED BY RF-SCORE:    0.00 PKD
ROOT
HETATM    1  C   UNL     1     -12.083  12.546  65.776  1.00  0.00    -0.443 C  
HETATM    2  C   UNL     1     -11.129  13.037  66.855  1.00  0.00    -0.306 C  
ENDROOT
BRANCH   2   3
HETATM    3  C   UNL     1      -9.679  13.037  66.353  1.00  0.00    -0.268 C  
BRANCH   3   4
HETATM    4  C   UNL     1      -8.664  13.164  67.493  1.00  0.00    -0.201 A  
HETATM    5  C   UNL     1      -8.013  12.107  68.246  1.00  0.00    -0.163 A  
HETATM    6  N   UNL     1      -8.221  10.648  68.151  1.00  0.00    -0.113 NA 
HETATM    7  O   UNL     1      -6.240  16.653  69.804  1.00  0.00    -0.219 OA 
HETATM    8  C   UNL     1      -7.437   9.767  68.962  1.00  0.00    -0.080 C  
HETATM    9  C   UNL     1      -6.477  10.189  69.797  1.00  0.00    -0.072 C  
HETATM   10  O   UNL     1     -10.226  17.340  65.564  1.00  0.00    -0.602 OA 
HETATM   11  C   UNL     1      -7.454   8.254  68.920  1.00  0.00    -0.092 C  
HETATM   12  O   UNL     1      -7.259   7.629  70.110  1.00  0.00    -0.065 OA 
HETATM   13  C   UNL     1      -6.267  11.608  70.010  1.00  0.00    -0.140 C  
HETATM   14  O   UNL     1      -7.569   7.591  67.904  1.00  0.00    -0.105 OA 
HETATM   15  O   UNL     1      -5.453  11.967  70.854  1.00  0.00    -0.183 OA 
HETATM   16  C   UNL     1      -7.044  12.554  69.198  1.00  0.00     0.020 A  
HETATM   17  C   UNL     1      -6.739  13.905  69.435  1.00  0.00    -0.095 A  
HETATM   18  C   UNL     1      -7.378  14.892  68.718  1.00  0.00    -0.127 A  
HETATM   19  C   UNL     1      -8.316  14.539  67.758  1.00  0.00    -0.169 A  
HETATM   20  O   UNL     1      -8.943  15.520  67.009  1.00  0.00    -0.200 OA 
HETATM   21  C   UNL     1      -8.651  16.860  67.250  1.00  0.00    -0.196 C  
HETATM   22  C   UNL     1      -9.367  17.891  66.447  1.00  0.00    -0.255 C  
HETATM   23  C   UNL     1      -7.767  17.297  68.158  1.00  0.00    -0.217 C  
HETATM   24  O   UNL     1      -9.211  19.097  66.562  1.00  0.00    -0.321 OA 
HETATM   25  C   UNL     1      -7.058  16.306  68.964  1.00  0.00    -0.196 C  
BRANCH   6  26
HETATM   26  C   UNL     1      -9.324  10.266  67.250  1.00  0.00    -0.149 C  
HETATM   27  C   UNL     1      -9.150   9.710  65.858  1.00  0.00    -0.221 C  
ENDBRANCH   6  26
ENDBRANCH   3   4
ENDBRANCH   2   3
TORSDOF 3
ENDMDL
MODEL       93
REMARK 921   NORMALIZED FREE ENERGY PREDICTED BY IDOCK:   -4.21 KCAL/MOL
REMARK 922        TOTAL FREE ENERGY PREDICTED BY IDOCK:   -5.43 KCAL/MOL
REMARK 923 INTER-LIGAND FREE ENERGY PREDICTED BY IDOCK:   -5.24 KCAL/MOL
REMARK 924 INTRA-LIGAND FREE ENERGY PREDICTED BY IDOCK:   -0.19 KCAL/MOL
REMARK 927      BINDING AFFINITY PREDICTED BY RF-SCORE:    0.00 PKD
ROOT
HETATM    1  C   UNL     1      -6.999  13.844  67.379  1.00  0.00    -0.065 C  
HETATM    2  C   UNL     1      -7.487  13.214  68.674  1.00  0.00    -0.092 C  
ENDROOT
BRANCH   2   3
HETATM    3  C   UNL     1      -8.156  11.858  68.413  1.00  0.00    -0.155 C  
BRANCH   3   4
HETATM    4  C   UNL     1      -8.964  11.844  67.112  1.00  0.00    -0.178 A  
HETATM    5  C   UNL     1      -8.716  11.078  65.902  1.00  0.00    -0.178 A  
HETATM    6  N   UNL     1      -7.585  10.180  65.598  1.00  0.00    -0.137 NA 
HETATM    7  O   UNL     1     -13.043  13.767  65.366  1.00  0.00    -0.727 OA 
HETATM    8  C   UNL     1      -7.553   9.479  64.351  1.00  0.00    -0.122 C  
HETATM    9  C   UNL     1      -8.525   9.561  63.432  1.00  0.00    -0.197 C  
HETATM   10  O   UNL     1     -10.661  14.726  70.633  1.00  0.00    -0.018 OA 
HETATM   11  C   UNL     1      -6.524   8.454  63.923  1.00  0.00    -0.072 C  
HETATM   12  O   UNL     1      -6.218   8.444  62.599  1.00  0.00    -0.086 OA 
HETATM   13  C   UNL     1      -9.629  10.483  63.618  1.00  0.00    -0.320 C  
HETATM   14  O   UNL     1      -6.020   7.628  64.663  1.00  0.00    -0.037 OA 
HETATM   15  O   UNL     1     -10.450  10.614  62.716  1.00  0.00     0.124 OA 
HETATM   16  C   UNL     1      -9.709  11.223  64.884  1.00  0.00    -0.297 A  
HETATM   17  C   UNL     1     -10.836  12.054  64.997  1.00  0.00    -0.351 A  
HETATM   18  C   UNL     1     -11.045  12.781  66.148  1.00  0.00    -0.322 A  
HETATM   19  C   UNL     1     -10.138  12.678  67.193  1.00  0.00    -0.223 A  
HETATM   20  O   UNL     1     -10.352  13.379  68.368  1.00  0.00    -0.242 OA 
HETATM   21  C   UNL     1     -11.462  14.213  68.477  1.00  0.00    -0.300 C  
HETATM   22  C   UNL     1     -11.645  14.976  69.743  1.00  0.00    -0.304 C  
HETATM   23  C   UNL     1     -12.387  14.381  67.522  1.00  0.00    -0.044 C  
HETATM   24  O   UNL     1     -12.567  15.745  69.967  1.00  0.00    -0.301 OA 
HETATM   25  C   UNL     1     -12.225  13.649  66.267  1.00  0.00    -0.436 C  
BRANCH   6  26
HETATM   26  C   UNL     1      -6.534  10.181  66.634  1.00  0.00    -0.073 C  
HETATM   27  C   UNL     1      -5.219  10.913  66.530  1.00  0.00    -0.085 C  
ENDBRANCH   6  26
ENDBRANCH   3   4
ENDBRANCH   2   3
TORSDOF 3
ENDMDL
MODEL       94
REMARK 921   NORMALIZED FREE ENERGY PREDICTED BY IDOCK:   -4.08 KCAL/MOL
REMARK 922        TOTAL FREE ENERGY PREDICTED BY IDOCK:   -5.27 KCAL/MOL
REMARK 923 INTER-LIGAND FREE ENERGY PREDICTED BY IDOCK:   -5.33 KCAL/MOL
REMARK 924 INTRA-LIGAND FREE ENERGY PREDICTED BY IDOCK:    0.05 KCAL/MOL
REMARK 927      BINDING AFFINITY PREDICTED BY RF-SCORE:    0.00 PKD
ROOT
HETATM    1  C   UNL     1      -8.274  19.112  66.237  1.00  0.00    -0.309 C  
HETATM    2  C   UNL     1      -8.177  17.595  66.290  1.00  0.00    -0.264 C  
ENDROOT
BRANCH   2   3
HETATM    3  C   UNL     1      -9.418  16.984  66.955  1.00  0.00    -0.256 C  
BRANCH   3   4
HETATM    4  C   UNL     1      -9.233  15.501  67.290  1.00  0.00    -0.219 A  
HETATM    5  C   UNL     1      -9.894  14.351  66.697  1.00  0.00    -0.278 A  
HETATM    6  N   UNL     1     -10.961  14.329  65.676  1.00  0.00    -0.300 NA 
HETATM    7  O   UNL     1      -6.460  12.755  70.147  1.00  0.00    -0.010 OA 
HETATM    8  C   UNL     1     -11.449  13.075  65.190  1.00  0.00    -0.306 C  
HETATM    9  C   UNL     1     -10.964  11.890  65.585  1.00  0.00    -0.353 C  
HETATM   10  O   UNL     1      -6.487  18.606  69.821  1.00  0.00    -0.226 OA 
HETATM   11  C   UNL     1     -12.463  12.873  64.084  1.00  0.00    -0.335 C  
HETATM   12  O   UNL     1     -13.294  11.809  64.233  1.00  0.00    -0.447 OA 
HETATM   13  C   UNL     1      -9.974  11.822  66.644  1.00  0.00    -0.200 C  
HETATM   14  O   UNL     1     -12.531  13.554  63.075  1.00  0.00    -0.709 OA 
HETATM   15  O   UNL     1      -9.623  10.722  67.057  1.00  0.00    -0.166 OA 
HETATM   16  C   UNL     1      -9.438  13.083  67.173  1.00  0.00    -0.230 A  
HETATM   17  C   UNL     1      -8.449  12.921  68.158  1.00  0.00    -0.176 A  
HETATM   18  C   UNL     1      -7.844  14.025  68.716  1.00  0.00    -0.097 A  
HETATM   19  C   UNL     1      -8.215  15.293  68.291  1.00  0.00    -0.142 A  
HETATM   20  O   UNL     1      -7.594  16.411  68.822  1.00  0.00    -0.185 OA 
HETATM   21  C   UNL     1      -6.622  16.254  69.807  1.00  0.00    -0.126 C  
HETATM   22  C   UNL     1      -5.995  17.478  70.378  1.00  0.00     0.091 C  
HETATM   23  C   UNL     1      -6.204  15.073  70.284  1.00  0.00    -0.132 C  
HETATM   24  O   UNL     1      -5.140  17.483  71.249  1.00  0.00    -0.425 OA 
HETATM   25  C   UNL     1      -6.808  13.857  69.745  1.00  0.00     0.063 C  
BRANCH   6  26
HETATM   26  C   UNL     1     -11.475  15.667  65.329  1.00  0.00    -0.034 C  
HETATM   27  C   UNL     1     -11.399  16.294  63.959  1.00  0.00     0.446 C  
ENDBRANCH   6  26
ENDBRANCH   3   4
ENDBRANCH   2   3
TORSDOF 3
ENDMDL
MODEL       95
REMARK 921   NORMALIZED FREE ENERGY PREDICTED BY IDOCK:   -4.08 KCAL/MOL
REMARK 922        TOTAL FREE ENERGY PREDICTED BY IDOCK:   -5.27 KCAL/MOL
REMARK 923 INTER-LIGAND FREE ENERGY PREDICTED BY IDOCK:   -5.20 KCAL/MOL
REMARK 924 INTRA-LIGAND FREE ENERGY PREDICTED BY IDOCK:   -0.07 KCAL/MOL
REMARK 927      BINDING AFFINITY PREDICTED BY RF-SCORE:    0.00 PKD
ROOT
HETATM    1  C   UNL     1     -13.151   7.201  71.647  1.00  0.00    -0.410 C  
HETATM    2  C   UNL     1     -11.645   7.014  71.761  1.00  0.00    -0.315 C  
ENDROOT
BRANCH   2   3
HETATM    3  C   UNL     1     -10.957   8.312  72.205  1.00  0.00    -0.396 C  
BRANCH   3   4
HETATM    4  C   UNL     1      -9.823   8.726  71.262  1.00  0.00    -0.336 A  
HETATM    5  C   UNL     1      -9.826   9.765  70.247  1.00  0.00    -0.240 A  
HETATM    6  N   UNL     1     -10.943  10.631  69.820  1.00  0.00    -0.273 NA 
HETATM    7  O   UNL     1      -5.179   7.624  70.487  1.00  0.00    -0.023 OA 
HETATM    8  C   UNL     1     -10.721  11.633  68.823  1.00  0.00    -0.219 C  
HETATM    9  C   UNL     1      -9.527  11.866  68.262  1.00  0.00    -0.197 C  
HETATM   10  O   UNL     1      -8.795   5.140  74.373  1.00  0.00    -0.112 OA 
HETATM   11  C   UNL     1     -11.724  12.661  68.343  1.00  0.00    -0.333 C  
HETATM   12  O   UNL     1     -11.638  12.999  67.030  1.00  0.00    -0.321 OA 
HETATM   13  C   UNL     1      -8.398  11.006  68.566  1.00  0.00    -0.149 C  
HETATM   14  O   UNL     1     -12.535  13.224  69.058  1.00  0.00    -0.053 OA 
HETATM   15  O   UNL     1      -7.344  11.177  67.962  1.00  0.00    -0.084 OA 
HETATM   16  C   UNL     1      -8.574   9.965  69.587  1.00  0.00    -0.207 A  
HETATM   17  C   UNL     1      -7.416   9.215  69.852  1.00  0.00    -0.070 A  
HETATM   18  C   UNL     1      -7.439   8.226  70.810  1.00  0.00    -0.065 A  
HETATM   19  C   UNL     1      -8.611   7.985  71.513  1.00  0.00    -0.128 A  
HETATM   20  O   UNL     1      -8.641   7.014  72.499  1.00  0.00    -0.119 OA 
HETATM   21  C   UNL     1      -7.498   6.261  72.756  1.00  0.00    -0.096 C  
HETATM   22  C   UNL     1      -7.572   5.204  73.803  1.00  0.00    -0.091 C  
HETATM   23  C   UNL     1      -6.325   6.417  72.126  1.00  0.00    -0.050 C  
HETATM   24  O   UNL     1      -6.650   4.470  74.120  1.00  0.00    -0.058 OA 
HETATM   25  C   UNL     1      -6.228   7.442  71.089  1.00  0.00    -0.036 C  
BRANCH   6  26
HETATM   26  C   UNL     1     -12.233  10.283  70.445  1.00  0.00    -0.261 C  
HETATM   27  C   UNL     1     -12.803  10.942  71.677  1.00  0.00    -0.554 C  
ENDBRANCH   6  26
ENDBRANCH   3   4
ENDBRANCH   2   3
TORSDOF 3
ENDMDL
MODEL       96
REMARK 921   NORMALIZED FREE ENERGY PREDICTED BY IDOCK:   -3.99 KCAL/MOL
REMARK 922        TOTAL FREE ENERGY PREDICTED BY IDOCK:   -5.17 KCAL/MOL
REMARK 923 INTER-LIGAND FREE ENERGY PREDICTED BY IDOCK:   -5.43 KCAL/MOL
REMARK 924 INTRA-LIGAND FREE ENERGY PREDICTED BY IDOCK:    0.26 KCAL/MOL
REMARK 927      BINDING AFFINITY PREDICTED BY RF-SCORE:    0.00 PKD
ROOT
HETATM    1  C   UNL     1     -10.840   6.753  68.062  1.00  0.00    -0.306 C  
HETATM    2  C   UNL     1      -9.401   7.193  67.837  1.00  0.00    -0.128 C  
ENDROOT
BRANCH   2   3
HETATM    3  C   UNL     1      -8.840   7.902  69.076  1.00  0.00    -0.145 C  
BRANCH   3   4
HETATM    4  C   UNL     1      -9.879   8.793  69.763  1.00  0.00    -0.189 A  
HETATM    5  C   UNL     1     -10.199  10.184  69.490  1.00  0.00    -0.236 A  
HETATM    6  N   UNL     1      -9.555  11.105  68.534  1.00  0.00    -0.188 NA 
HETATM    7  O   UNL     1     -13.318   8.397  73.140  1.00  0.00     0.033 OA 
HETATM    8  C   UNL     1     -10.058  12.437  68.385  1.00  0.00    -0.217 C  
HETATM    9  C   UNL     1     -11.125  12.902  69.049  1.00  0.00    -0.284 C  
HETATM   10  O   UNL     1      -9.604   4.220  71.378  1.00  0.00    -0.147 OA 
HETATM   11  C   UNL     1      -9.579  13.472  67.389  1.00  0.00    -0.227 C  
HETATM   12  O   UNL     1      -9.610  14.761  67.818  1.00  0.00    -0.205 OA 
HETATM   13  C   UNL     1     -11.763  12.089  70.066  1.00  0.00    -0.267 C  
HETATM   14  O   UNL     1      -9.238  13.226  66.245  1.00  0.00    -0.179 OA 
HETATM   15  O   UNL     1     -12.672  12.575  70.730  1.00  0.00    -0.239 OA 
HETATM   16  C   UNL     1     -11.286  10.712  70.254  1.00  0.00    -0.401 A  
HETATM   17  C   UNL     1     -11.995   9.982  71.223  1.00  0.00    -0.483 A  
HETATM   18  C   UNL     1     -11.666   8.669  71.475  1.00  0.00    -0.369 A  
HETATM   19  C   UNL     1     -10.637   8.075  70.759  1.00  0.00    -0.214 A  
HETATM   20  O   UNL     1     -10.315   6.747  70.980  1.00  0.00    -0.204 OA 
HETATM   21  C   UNL     1     -11.008   6.025  71.949  1.00  0.00    -0.264 C  
HETATM   22  C   UNL     1     -10.617   4.607  72.183  1.00  0.00    -0.105 C  
HETATM   23  C   UNL     1     -12.010   6.514  72.693  1.00  0.00     0.003 C  
HETATM   24  O   UNL     1     -11.135   3.867  73.004  1.00  0.00    -0.143 OA 
HETATM   25  C   UNL     1     -12.408   7.905  72.488  1.00  0.00    -0.142 C  
BRANCH   6  26
HETATM   26  C   UNL     1      -8.361  10.538  67.879  1.00  0.00    -0.115 C  
HETATM   27  C   UNL     1      -6.937  10.783  68.315  1.00  0.00    -0.069 C  
ENDBRANCH   6  26
ENDBRANCH   3   4
ENDBRANCH   2   3
TORSDOF 3
ENDMDL
MODEL       97
REMARK 921   NORMALIZED FREE ENERGY PREDICTED BY IDOCK:   -3.86 KCAL/MOL
REMARK 922        TOTAL FREE ENERGY PREDICTED BY IDOCK:   -5.01 KCAL/MOL
REMARK 923 INTER-LIGAND FREE ENERGY PREDICTED BY IDOCK:   -4.85 KCAL/MOL
REMARK 924 INTRA-LIGAND FREE ENERGY PREDICTED BY IDOCK:   -0.16 KCAL/MOL
REMARK 927      BINDING AFFINITY PREDICTED BY RF-SCORE:    0.00 PKD
ROOT
HETATM    1  C   UNL     1      -7.281  10.705  68.623  1.00  0.00    -0.090 C  
HETATM    2  C   UNL     1      -8.071  11.489  67.586  1.00  0.00    -0.130 C  
ENDROOT
BRANCH   2   3
HETATM    3  C   UNL     1      -9.163  10.618  66.948  1.00  0.00    -0.172 C  
BRANCH   3   4
HETATM    4  C   UNL     1      -9.559   9.433  67.833  1.00  0.00    -0.155 A  
HETATM    5  C   UNL     1      -9.131   8.048  67.734  1.00  0.00    -0.131 A  
HETATM    6  N   UNL     1      -8.265   7.424  66.715  1.00  0.00    -0.118 NA 
HETATM    7  O   UNL     1     -12.180   8.606  71.813  1.00  0.00    -0.302 OA 
HETATM    8  C   UNL     1      -7.926   6.038  66.827  1.00  0.00    -0.102 C  
HETATM    9  C   UNL     1      -8.324   5.259  67.842  1.00  0.00    -0.098 C  
HETATM   10  O   UNL     1     -11.507  13.719  69.029  1.00  0.00    -0.265 OA 
HETATM   11  C   UNL     1      -6.979   5.270  65.928  1.00  0.00    -0.066 C  
HETATM   12  O   UNL     1      -7.303   3.969  65.707  1.00  0.00    -0.074 OA 
HETATM   13  C   UNL     1      -9.242   5.774  68.840  1.00  0.00    -0.115 C  
HETATM   14  O   UNL     1      -5.949   5.722  65.459  1.00  0.00    -0.026 OA 
HETATM   15  O   UNL     1      -9.671   5.012  69.699  1.00  0.00    -0.158 OA 
HETATM   16  C   UNL     1      -9.618   7.192  68.771  1.00  0.00    -0.144 A  
HETATM   17  C   UNL     1     -10.470   7.615  69.806  1.00  0.00    -0.232 A  
HETATM   18  C   UNL     1     -10.874   8.930  69.872  1.00  0.00    -0.219 A  
HETATM   19  C   UNL     1     -10.426   9.830  68.916  1.00  0.00    -0.214 A  
HETATM   20  O   UNL     1     -10.800  11.161  68.989  1.00  0.00    -0.206 OA 
HETATM   21  C   UNL     1     -11.654  11.580  70.007  1.00  0.00    -0.282 C  
HETATM   22  C   UNL     1     -12.060  13.012  70.038  1.00  0.00    -0.297 C  
HETATM   23  C   UNL     1     -12.141  10.784  70.969  1.00  0.00    -0.452 C  
HETATM   24  O   UNL     1     -12.807  13.507  70.867  1.00  0.00    -0.294 OA 
HETATM   25  C   UNL     1     -11.763   9.373  70.956  1.00  0.00    -0.323 C  
BRANCH   6  26
HETATM   26  C   UNL     1      -7.910   8.330  65.606  1.00  0.00    -0.104 C  
HETATM   27  C   UNL     1      -8.255   8.098  64.156  1.00  0.00    -0.083 C  
ENDBRANCH   6  26
ENDBRANCH   3   4
ENDBRANCH   2   3
TORSDOF 3
ENDMDL
MODEL       98
REMARK 921   NORMALIZED FREE ENERGY PREDICTED BY IDOCK:   -3.79 KCAL/MOL
REMARK 922        TOTAL FREE ENERGY PREDICTED BY IDOCK:   -4.92 KCAL/MOL
REMARK 923 INTER-LIGAND FREE ENERGY PREDICTED BY IDOCK:   -4.69 KCAL/MOL
REMARK 924 INTRA-LIGAND FREE ENERGY PREDICTED BY IDOCK:   -0.23 KCAL/MOL
REMARK 927      BINDING AFFINITY PREDICTED BY RF-SCORE:    0.00 PKD
ROOT
HETATM    1  C   UNL     1     -11.954  11.529  69.951  1.00  0.00    -0.426 C  
HETATM    2  C   UNL     1     -11.322  12.912  69.904  1.00  0.00    -0.032 C  
ENDROOT
BRANCH   2   3
HETATM    3  C   UNL     1      -9.942  12.868  69.235  1.00  0.00     0.563 C  
BRANCH   3   4
HETATM    4  C   UNL     1     -10.033  12.736  67.712  1.00  0.00    -0.219 A  
HETATM    5  C   UNL     1      -9.970  11.530  66.904  1.00  0.00    -0.205 A  
HETATM    6  N   UNL     1      -9.730  10.141  67.342  1.00  0.00    -0.157 NA 
HETATM    7  O   UNL     1     -10.806  15.575  63.874  1.00  0.00     0.485 OA 
HETATM    8  C   UNL     1      -9.752   9.081  66.381  1.00  0.00    -0.268 C  
HETATM    9  C   UNL     1     -10.017   9.269  65.080  1.00  0.00     0.349 C  
HETATM   10  O   UNL     1     -10.413  17.245  69.477  1.00  0.00    -0.276 OA 
HETATM   11  C   UNL     1      -9.622   7.601  66.672  1.00  0.00    -0.206 C  
HETATM   12  O   UNL     1      -8.974   6.870  65.728  1.00  0.00    -0.118 OA 
HETATM   13  C   UNL     1     -10.182  10.611  64.555  1.00  0.00    -0.329 C  
HETATM   14  O   UNL     1     -10.103   7.041  67.642  1.00  0.00    -0.151 OA 
HETATM   15  O   UNL     1     -10.322  10.761  63.346  1.00  0.00    -0.299 OA 
HETATM   16  C   UNL     1     -10.172  11.732  65.503  1.00  0.00    -0.291 A  
HETATM   17  C   UNL     1     -10.389  12.989  64.913  1.00  0.00    -0.343 A  
HETATM   18  C   UNL     1     -10.432  14.121  65.697  1.00  0.00    -0.333 A  
HETATM   19  C   UNL     1     -10.267  14.006  67.070  1.00  0.00    -0.261 A  
HETATM   20  O   UNL     1     -10.339  15.132  67.872  1.00  0.00    -0.237 OA 
HETATM   21  C   UNL     1     -10.542  16.380  67.289  1.00  0.00    -0.293 C  
HETATM   22  C   UNL     1     -10.583  17.574  68.178  1.00  0.00    -0.366 C  
HETATM   23  C   UNL     1     -10.705  16.590  65.975  1.00  0.00    -0.180 C  
HETATM   24  O   UNL     1     -10.745  18.722  67.797  1.00  0.00    -0.407 OA 
HETATM   25  C   UNL     1     -10.661  15.436  65.080  1.00  0.00    -0.420 C  
BRANCH   6  26
HETATM   26  C   UNL     1      -9.398  10.022  68.774  1.00  0.00    -0.162 C  
HETATM   27  C   UNL     1      -8.024   9.725  69.321  1.00  0.00    -0.112 C  
ENDBRANCH   6  26
ENDBRANCH   3   4
ENDBRANCH   2   3
TORSDOF 3
ENDMDL
MODEL       99
REMARK 921   NORMALIZED FREE ENERGY PREDICTED BY IDOCK:   -3.68 KCAL/MOL
REMARK 922        TOTAL FREE ENERGY PREDICTED BY IDOCK:   -4.80 KCAL/MOL
REMARK 923 INTER-LIGAND FREE ENERGY PREDICTED BY IDOCK:   -4.31 KCAL/MOL
REMARK 924 INTRA-LIGAND FREE ENERGY PREDICTED BY IDOCK:   -0.50 KCAL/MOL
REMARK 927      BINDING AFFINITY PREDICTED BY RF-SCORE:    0.00 PKD
ROOT
HETATM    1  C   UNL     1     -12.875   9.722  72.283  1.00  0.00    -0.379 C  
HETATM    2  C   UNL     1     -11.937  10.648  71.523  1.00  0.00    -0.148 C  
ENDROOT
BRANCH   2   3
HETATM    3  C   UNL     1     -11.733  10.167  70.080  1.00  0.00    -0.330 C  
BRANCH   3   4
HETATM    4  C   UNL     1     -10.255  10.123  69.680  1.00  0.00    -0.272 A  
HETATM    5  C   UNL     1      -9.447  11.177  69.091  1.00  0.00     0.020 A  
HETATM    6  N   UNL     1      -9.864  12.527  68.665  1.00  0.00    -0.136 NA 
HETATM    7  O   UNL     1      -6.526   7.055  69.940  1.00  0.00    -0.037 OA 
HETATM    8  C   UNL     1      -8.890  13.438  68.144  1.00  0.00    -0.180 C  
HETATM    9  C   UNL     1      -7.585  13.149  68.049  1.00  0.00    -0.144 C  
HETATM   10  O   UNL     1     -12.044   6.057  71.643  1.00  0.00    -0.149 OA 
HETATM   11  C   UNL     1      -9.129  14.881  67.754  1.00  0.00    -0.185 C  
HETATM   12  O   UNL     1      -8.403  15.333  66.698  1.00  0.00    -0.256 OA 
HETATM   13  C   UNL     1      -7.107  11.818  68.369  1.00  0.00    -0.085 C  
HETATM   14  O   UNL     1      -9.864  15.648  68.351  1.00  0.00    -0.202 OA 
HETATM   15  O   UNL     1      -5.926  11.550  68.175  1.00  0.00    -0.046 OA 
HETATM   16  C   UNL     1      -8.067  10.848  68.912  1.00  0.00    -0.144 A  
HETATM   17  C   UNL     1      -7.506   9.602  69.240  1.00  0.00    -0.085 A  
HETATM   18  C   UNL     1      -8.294   8.613  69.785  1.00  0.00    -0.123 A  
HETATM   19  C   UNL     1      -9.640   8.861  70.013  1.00  0.00    -0.178 A  
HETATM   20  O   UNL     1     -10.437   7.887  70.588  1.00  0.00    -0.209 OA 
HETATM   21  C   UNL     1      -9.886   6.647  70.904  1.00  0.00    -0.183 C  
HETATM   22  C   UNL     1     -10.778   5.611  71.493  1.00  0.00    -0.242 C  
HETATM   23  C   UNL     1      -8.601   6.313  70.715  1.00  0.00    -0.135 C  
HETATM   24  O   UNL     1     -10.427   4.484  71.808  1.00  0.00    -0.152 OA 
HETATM   25  C   UNL     1      -7.707   7.310  70.131  1.00  0.00    -0.091 C  
BRANCH   6  26
HETATM   26  C   UNL     1     -11.319  12.752  68.755  1.00  0.00    -0.288 C  
HETATM   27  C   UNL     1     -12.275  12.700  67.588  1.00  0.00     0.054 C  
ENDBRANCH   6  26
ENDBRANCH   3   4
ENDBRANCH   2   3
TORSDOF 3
ENDMDL
MODEL      100
REMARK 921   NORMALIZED FREE ENERGY PREDICTED BY IDOCK:   -3.62 KCAL/MOL
REMARK 922        TOTAL FREE ENERGY PREDICTED BY IDOCK:   -4.73 KCAL/MOL
REMARK 923 INTER-LIGAND FREE ENERGY PREDICTED BY IDOCK:   -4.27 KCAL/MOL
REMARK 924 INTRA-LIGAND FREE ENERGY PREDICTED BY IDOCK:   -0.46 KCAL/MOL
REMARK 927      BINDING AFFINITY PREDICTED BY RF-SCORE:    0.00 PKD
ROOT
HETATM    1  C   UNL     1     -11.409  11.198  67.515  1.00  0.00    -0.351 C  
HETATM    2  C   UNL     1     -10.787  10.253  68.533  1.00  0.00    -0.281 C  
ENDROOT
BRANCH   2   3
HETATM    3  C   UNL     1     -11.007   8.788  68.134  1.00  0.00     0.084 C  
BRANCH   3   4
HETATM    4  C   UNL     1      -9.791   7.908  68.440  1.00  0.00    -0.185 A  
HETATM    5  C   UNL     1      -9.590   7.001  69.556  1.00  0.00    -0.153 A  
HETATM    6  N   UNL     1     -10.475   6.754  70.712  1.00  0.00    -0.211 NA 
HETATM    7  O   UNL     1      -5.560   6.751  66.404  1.00  0.00    -0.017 OA 
HETATM    8  C   UNL     1     -10.107   5.776  71.689  1.00  0.00    -0.194 C  
HETATM    9  C   UNL     1      -9.001   5.025  71.602  1.00  0.00    -0.152 C  
HETATM   10  O   UNL     1      -9.516  10.575  64.389  1.00  0.00    -0.229 OA 
HETATM   11  C   UNL     1     -10.938   5.333  72.874  1.00  0.00    -0.287 C  
HETATM   12  O   UNL     1     -10.241   5.010  73.995  1.00  0.00    -0.186 OA 
HETATM   13  C   UNL     1      -8.038   5.262  70.543  1.00  0.00    -0.104 C  
HETATM   14  O   UNL     1     -12.150   5.200  72.859  1.00  0.00    -0.169 OA 
HETATM   15  O   UNL     1      -6.987   4.631  70.546  1.00  0.00    -0.036 OA 
HETATM   16  C   UNL     1      -8.372   6.253  69.512  1.00  0.00    -0.118 A  
HETATM   17  C   UNL     1      -7.406   6.381  68.500  1.00  0.00    -0.087 A  
HETATM   18  C   UNL     1      -7.612   7.257  67.457  1.00  0.00    -0.109 A  
HETATM   19  C   UNL     1      -8.781   8.003  67.414  1.00  0.00    -0.124 A  
HETATM   20  O   UNL     1      -9.014   8.865  66.356  1.00  0.00    -0.141 OA 
HETATM   21  C   UNL     1      -8.053   9.002  65.357  1.00  0.00    -0.120 C  
HETATM   22  C   UNL     1      -8.322   9.961  64.250  1.00  0.00    -0.166 C  
HETATM   23  C   UNL     1      -6.894   8.330  65.317  1.00  0.00    -0.059 C  
HETATM   24  O   UNL     1      -7.564  10.182  63.318  1.00  0.00    -0.142 OA 
HETATM   25  C   UNL     1      -6.603   7.389  66.396  1.00  0.00    -0.053 C  
BRANCH   6  26
HETATM   26  C   UNL     1     -11.645   7.651  70.762  1.00  0.00    -0.265 C  
HETATM   27  C   UNL     1     -11.871   8.719  71.805  1.00  0.00    -0.414 C  
ENDBRANCH   6  26
ENDBRANCH   3   4
ENDBRANCH   2   3
TORSDOF 3
ENDMDL
MODEL      101
REMARK 921   NORMALIZED FREE ENERGY PREDICTED BY IDOCK:   -3.59 KCAL/MOL
REMARK 922        TOTAL FREE ENERGY PREDICTED BY IDOCK:   -4.70 KCAL/MOL
REMARK 923 INTER-LIGAND FREE ENERGY PREDICTED BY IDOCK:   -5.07 KCAL/MOL
REMARK 924 INTRA-LIGAND FREE ENERGY PREDICTED BY IDOCK:    0.38 KCAL/MOL
REMARK 927      BINDING AFFINITY PREDICTED BY RF-SCORE:    0.00 PKD
ROOT
HETATM    1  C   UNL     1      -5.584   9.581  68.177  1.00  0.00    -0.037 C  
HETATM    2  C   UNL     1      -5.300  11.076  68.159  1.00  0.00    -0.039 C  
ENDROOT
BRANCH   2   3
HETATM    3  C   UNL     1      -6.155  11.814  69.198  1.00  0.00    -0.076 C  
BRANCH   3   4
HETATM    4  C   UNL     1      -7.477  12.322  68.614  1.00  0.00    -0.100 A  
HETATM    5  C   UNL     1      -7.740  13.578  67.933  1.00  0.00    -0.153 A  
HETATM    6  N   UNL     1      -6.819  14.707  67.696  1.00  0.00    -0.178 NA 
HETATM    7  O   UNL     1     -12.000  10.733  67.982  1.00  0.00    -0.537 OA 
HETATM    8  C   UNL     1      -7.270  15.845  66.956  1.00  0.00    -0.197 C  
HETATM    9  C   UNL     1      -8.495  15.941  66.420  1.00  0.00    -0.348 C  
HETATM   10  O   UNL     1      -7.615   7.922  70.667  1.00  0.00    -0.074 OA 
HETATM   11  C   UNL     1      -6.434  17.038  66.544  1.00  0.00    -0.204 C  
HETATM   12  O   UNL     1      -7.081  18.233  66.522  1.00  0.00    -0.199 OA 
HETATM   13  C   UNL     1      -9.485  14.912  66.676  1.00  0.00    -0.265 C  
HETATM   14  O   UNL     1      -5.270  16.977  66.186  1.00  0.00    -0.360 OA 
HETATM   15  O   UNL     1     -10.628  15.073  66.259  1.00  0.00    -0.291 OA 
HETATM   16  C   UNL     1      -9.070  13.721  67.427  1.00  0.00    -0.221 A  
HETATM   17  C   UNL     1     -10.079  12.755  67.583  1.00  0.00    -0.220 A  
HETATM   18  C   UNL     1      -9.811  11.578  68.245  1.00  0.00    -0.203 A  
HETATM   19  C   UNL     1      -8.536  11.352  68.746  1.00  0.00    -0.083 A  
HETATM   20  O   UNL     1      -8.245  10.160  69.386  1.00  0.00    -0.140 OA 
HETATM   21  C   UNL     1      -9.246   9.207  69.552  1.00  0.00    -0.159 C  
HETATM   22  C   UNL     1      -8.906   7.948  70.272  1.00  0.00    -0.140 C  
HETATM   23  C   UNL     1     -10.505   9.338  69.110  1.00  0.00    -0.231 C  
HETATM   24  O   UNL     1      -9.689   7.037  70.493  1.00  0.00    -0.176 OA 
HETATM   25  C   UNL     1     -10.866  10.567  68.407  1.00  0.00    -0.240 C  
BRANCH   6  26
HETATM   26  C   UNL     1      -5.510  14.550  68.357  1.00  0.00    -0.108 C  
HETATM   27  C   UNL     1      -5.267  14.696  69.839  1.00  0.00    -0.094 C  
ENDBRANCH   6  26
ENDBRANCH   3   4
ENDBRANCH   2   3
TORSDOF 3
ENDMDL
MODEL      102
REMARK 921   NORMALIZED FREE ENERGY PREDICTED BY IDOCK:   -3.38 KCAL/MOL
REMARK 922        TOTAL FREE ENERGY PREDICTED BY IDOCK:   -4.45 KCAL/MOL
REMARK 923 INTER-LIGAND FREE ENERGY PREDICTED BY IDOCK:   -4.25 KCAL/MOL
REMARK 924 INTRA-LIGAND FREE ENERGY PREDICTED BY IDOCK:   -0.20 KCAL/MOL
REMARK 927      BINDING AFFINITY PREDICTED BY RF-SCORE:    0.00 PKD
ROOT
HETATM    1  C   UNL     1     -10.682   9.353  70.296  1.00  0.00    -0.299 C  
HETATM    2  C   UNL     1     -10.672   8.112  69.415  1.00  0.00    -0.164 C  
ENDROOT
BRANCH   2   3
HETATM    3  C   UNL     1      -9.240   7.615  69.175  1.00  0.00    -0.141 C  
BRANCH   3   4
HETATM    4  C   UNL     1      -9.193   6.143  68.754  1.00  0.00    -0.124 A  
HETATM    5  C   UNL     1      -8.864   5.586  67.453  1.00  0.00    -0.105 A  
HETATM    6  N   UNL     1      -8.565   6.299  66.196  1.00  0.00    -0.137 NA 
HETATM    7  O   UNL     1      -9.705   1.782  70.780  1.00  0.00    -0.115 OA 
HETATM    8  C   UNL     1      -8.218   5.554  65.025  1.00  0.00    -0.139 C  
HETATM    9  C   UNL     1      -8.111   4.218  65.003  1.00  0.00    -0.098 C  
HETATM   10  O   UNL     1     -10.357   6.986  73.394  1.00  0.00    -0.262 OA 
HETATM   11  C   UNL     1      -7.792   6.126  63.689  1.00  0.00    -0.112 C  
HETATM   12  O   UNL     1      -8.187   5.425  62.595  1.00  0.00    -0.098 OA 
HETATM   13  C   UNL     1      -8.468   3.438  66.173  1.00  0.00    -0.110 C  
HETATM   14  O   UNL     1      -7.089   7.112  63.551  1.00  0.00    -0.061 OA 
HETATM   15  O   UNL     1      -8.459   2.215  66.095  1.00  0.00    -0.091 OA 
HETATM   16  C   UNL     1      -8.826   4.158  67.403  1.00  0.00    -0.128 A  
HETATM   17  C   UNL     1      -9.108   3.324  68.498  1.00  0.00    -0.210 A  
HETATM   18  C   UNL     1      -9.430   3.874  69.719  1.00  0.00    -0.264 A  
HETATM   19  C   UNL     1      -9.466   5.254  69.857  1.00  0.00    -0.155 A  
HETATM   20  O   UNL     1      -9.758   5.820  71.085  1.00  0.00    -0.164 OA 
HETATM   21  C   UNL     1     -10.049   4.996  72.170  1.00  0.00    -0.196 C  
HETATM   22  C   UNL     1     -10.389   5.639  73.470  1.00  0.00    -0.233 C  
HETATM   23  C   UNL     1     -10.046   3.656  72.131  1.00  0.00    -0.212 C  
HETATM   24  O   UNL     1     -10.671   5.035  74.493  1.00  0.00    -0.355 OA 
HETATM   25  C   UNL     1      -9.723   3.002  70.866  1.00  0.00    -0.085 C  
BRANCH   6  26
HETATM   26  C   UNL     1      -8.752   7.759  66.286  1.00  0.00    -0.155 C  
HETATM   27  C   UNL     1     -10.031   8.489  65.956  1.00  0.00    -0.035 C  
ENDBRANCH   6  26
ENDBRANCH   3   4
ENDBRANCH   2   3
TORSDOF 3
ENDMDL
MODEL      103
REMARK 921   NORMALIZED FREE ENERGY PREDICTED BY IDOCK:   -3.36 KCAL/MOL
REMARK 922        TOTAL FREE ENERGY PREDICTED BY IDOCK:   -4.43 KCAL/MOL
REMARK 923 INTER-LIGAND FREE ENERGY PREDICTED BY IDOCK:   -4.25 KCAL/MOL
REMARK 924 INTRA-LIGAND FREE ENERGY PREDICTED BY IDOCK:   -0.18 KCAL/MOL
REMARK 927      BINDING AFFINITY PREDICTED BY RF-SCORE:    0.00 PKD
ROOT
HETATM    1  C   UNL     1     -11.593   7.817  71.979  1.00  0.00    -0.347 C  
HETATM    2  C   UNL     1     -12.017   6.757  70.973  1.00  0.00    -0.431 C  
ENDROOT
BRANCH   2   3
HETATM    3  C   UNL     1     -10.797   6.111  70.303  1.00  0.00    -0.385 C  
BRANCH   3   4
HETATM    4  C   UNL     1      -9.473   6.679  70.823  1.00  0.00    -0.173 A  
HETATM    5  C   UNL     1      -8.790   7.895  70.418  1.00  0.00    -0.142 A  
HETATM    6  N   UNL     1      -9.163   8.849  69.354  1.00  0.00    -0.145 NA 
HETATM    7  O   UNL     1      -6.185   5.658  74.219  1.00  0.00    -0.061 OA 
HETATM    8  C   UNL     1      -8.369  10.021  69.144  1.00  0.00    -0.146 C  
HETATM    9  C   UNL     1      -7.302  10.335  69.892  1.00  0.00    -0.166 C  
HETATM   10  O   UNL     1     -10.960   2.537  72.879  1.00  0.00    -0.113 OA 
HETATM   11  C   UNL     1      -8.662  11.142  68.169  1.00  0.00    -0.144 C  
HETATM   12  O   UNL     1      -7.576  11.727  67.601  1.00  0.00    -0.116 OA 
HETATM   13  C   UNL     1      -6.821   9.411  70.902  1.00  0.00    -0.098 C  
HETATM   14  O   UNL     1      -9.776  11.571  67.922  1.00  0.00    -0.173 OA 
HETATM   15  O   UNL     1      -5.784   9.675  71.501  1.00  0.00    -0.073 OA 
HETATM   16  C   UNL     1      -7.604   8.195  71.159  1.00  0.00    -0.082 A  
HETATM   17  C   UNL     1      -7.093   7.385  72.187  1.00  0.00    -0.067 A  
HETATM   18  C   UNL     1      -7.750   6.229  72.546  1.00  0.00    -0.102 A  
HETATM   19  C   UNL     1      -8.921   5.879  71.890  1.00  0.00    -0.138 A  
HETATM   20  O   UNL     1      -9.608   4.736  72.261  1.00  0.00    -0.143 OA 
HETATM   21  C   UNL     1      -9.097   3.926  73.272  1.00  0.00    -0.105 C  
HETATM   22  C   UNL     1      -9.845   2.687  73.625  1.00  0.00    -0.100 C  
HETATM   23  C   UNL     1      -7.972   4.178  73.956  1.00  0.00    -0.084 C  
HETATM   24  O   UNL     1      -9.505   1.888  74.483  1.00  0.00    -0.070 OA 
HETATM   25  C   UNL     1      -7.216   5.383  73.622  1.00  0.00    -0.087 C  
BRANCH   6  26
HETATM   26  C   UNL     1     -10.315   8.411  68.545  1.00  0.00    -0.200 C  
HETATM   27  C   UNL     1     -10.227   7.849  67.147  1.00  0.00    -0.360 C  
ENDBRANCH   6  26
ENDBRANCH   3   4
ENDBRANCH   2   3
TORSDOF 3
ENDMDL
MODEL      104
REMARK 921   NORMALIZED FREE ENERGY PREDICTED BY IDOCK:   -3.35 KCAL/MOL
REMARK 922        TOTAL FREE ENERGY PREDICTED BY IDOCK:   -4.41 KCAL/MOL
REMARK 923 INTER-LIGAND FREE ENERGY PREDICTED BY IDOCK:   -4.53 KCAL/MOL
REMARK 924 INTRA-LIGAND FREE ENERGY PREDICTED BY IDOCK:    0.11 KCAL/MOL
REMARK 927      BINDING AFFINITY PREDICTED BY RF-SCORE:    0.00 PKD
ROOT
HETATM    1  C   UNL     1      -8.721   7.171  66.639  1.00  0.00    -0.131 C  
HETATM    2  C   UNL     1      -7.339   7.651  67.054  1.00  0.00    -0.090 C  
ENDROOT
BRANCH   2   3
HETATM    3  C   UNL     1      -7.380   8.341  68.424  1.00  0.00    -0.094 C  
BRANCH   3   4
HETATM    4  C   UNL     1      -8.762   8.262  69.079  1.00  0.00    -0.143 A  
HETATM    5  C   UNL     1      -9.329   7.180  69.866  1.00  0.00    -0.150 A  
HETATM    6  N   UNL     1      -8.744   5.859  70.169  1.00  0.00    -0.139 NA 
HETATM    7  O   UNL     1     -12.641  11.084  69.692  1.00  0.00    -0.238 OA 
HETATM    8  C   UNL     1      -9.457   4.946  71.010  1.00  0.00    -0.164 C  
HETATM    9  C   UNL     1     -10.634   5.232  71.581  1.00  0.00    -0.261 C  
HETATM   10  O   UNL     1      -7.780  12.372  66.683  1.00  0.00     0.048 OA 
HETATM   11  C   UNL     1      -8.962   3.600  71.496  1.00  0.00    -0.107 C  
HETATM   12  O   UNL     1      -9.911   2.637  71.629  1.00  0.00    -0.155 OA 
HETATM   13  C   UNL     1     -11.315   6.475  71.268  1.00  0.00    -0.303 C  
HETATM   14  O   UNL     1      -7.811   3.360  71.819  1.00  0.00    -0.056 OA 
HETATM   15  O   UNL     1     -12.437   6.667  71.724  1.00  0.00    -0.352 OA 
HETATM   16  C   UNL     1     -10.622   7.448  70.414  1.00  0.00    -0.238 A  
HETATM   17  C   UNL     1     -11.334   8.642  70.205  1.00  0.00    -0.083 A  
HETATM   18  C   UNL     1     -10.783   9.649  69.445  1.00  0.00    -0.248 A  
HETATM   19  C   UNL     1      -9.520   9.476  68.896  1.00  0.00    -0.155 A  
HETATM   20  O   UNL     1      -8.941  10.492  68.155  1.00  0.00    -0.132 OA 
HETATM   21  C   UNL     1      -9.649  11.672  67.937  1.00  0.00    -0.180 C  
HETATM   22  C   UNL     1      -9.009  12.733  67.110  1.00  0.00    -0.214 C  
HETATM   23  C   UNL     1     -10.873  11.927  68.420  1.00  0.00    -0.263 C  
HETATM   24  O   UNL     1      -9.521  13.807  66.837  1.00  0.00    -0.244 OA 
HETATM   25  C   UNL     1     -11.525  10.899  69.228  1.00  0.00    -0.302 C  
BRANCH   6  26
HETATM   26  C   UNL     1      -7.474   5.600  69.466  1.00  0.00    -0.071 C  
HETATM   27  C   UNL     1      -7.223   4.438  68.536  1.00  0.00    -0.060 C  
ENDBRANCH   6  26
ENDBRANCH   3   4
ENDBRANCH   2   3
TORSDOF 3
ENDMDL
MODEL      105
REMARK 921   NORMALIZED FREE ENERGY PREDICTED BY IDOCK:   -3.27 KCAL/MOL
REMARK 922        TOTAL FREE ENERGY PREDICTED BY IDOCK:   -4.32 KCAL/MOL
REMARK 923 INTER-LIGAND FREE ENERGY PREDICTED BY IDOCK:   -4.31 KCAL/MOL
REMARK 924 INTRA-LIGAND FREE ENERGY PREDICTED BY IDOCK:   -0.01 KCAL/MOL
REMARK 927      BINDING AFFINITY PREDICTED BY RF-SCORE:    0.00 PKD
ROOT
HETATM    1  C   UNL     1     -11.451   8.508  72.623  1.00  0.00    -0.267 C  
HETATM    2  C   UNL     1     -12.265   7.525  71.795  1.00  0.00    -0.345 C  
ENDROOT
BRANCH   2   3
HETATM    3  C   UNL     1     -11.485   7.067  70.555  1.00  0.00    -0.363 C  
BRANCH   3   4
HETATM    4  C   UNL     1      -9.971   7.221  70.725  1.00  0.00    -0.187 A  
HETATM    5  C   UNL     1      -9.029   6.286  71.316  1.00  0.00    -0.139 A  
HETATM    6  N   UNL     1      -9.304   4.989  71.964  1.00  0.00    -0.136 NA 
HETATM    7  O   UNL     1      -6.499  10.371  69.538  1.00  0.00    -0.050 OA 
HETATM    8  C   UNL     1      -8.216   4.194  72.445  1.00  0.00    -0.099 C  
HETATM    9  C   UNL     1      -6.929   4.543  72.312  1.00  0.00    -0.060 C  
HETATM   10  O   UNL     1     -12.250  10.920  68.553  1.00  0.00    -0.535 OA 
HETATM   11  C   UNL     1      -8.313   2.806  73.044  1.00  0.00    -0.071 C  
HETATM   12  O   UNL     1      -7.421   2.526  74.030  1.00  0.00    -0.040 OA 
HETATM   13  C   UNL     1      -6.577   5.838  71.761  1.00  0.00    -0.054 C  
HETATM   14  O   UNL     1      -9.080   1.940  72.662  1.00  0.00    -0.068 OA 
HETATM   15  O   UNL     1      -5.398   6.175  71.744  1.00  0.00    -0.021 OA 
HETATM   16  C   UNL     1      -7.659   6.690  71.248  1.00  0.00    -0.093 A  
HETATM   17  C   UNL     1      -7.222   7.902  70.688  1.00  0.00    -0.053 A  
HETATM   18  C   UNL     1      -8.135   8.780  70.145  1.00  0.00    -0.114 A  
HETATM   19  C   UNL     1      -9.483   8.451  70.150  1.00  0.00    -0.164 A  
HETATM   20  O   UNL     1     -10.407   9.309  69.581  1.00  0.00    -0.199 OA 
HETATM   21  C   UNL     1      -9.979  10.517  69.036  1.00  0.00    -0.211 C  
HETATM   22  C   UNL     1     -11.003  11.431  68.459  1.00  0.00    -0.221 C  
HETATM   23  C   UNL     1      -8.702  10.922  68.990  1.00  0.00    -0.108 C  
HETATM   24  O   UNL     1     -10.765  12.519  67.958  1.00  0.00    -0.209 OA 
HETATM   25  C   UNL     1      -7.678  10.047  69.557  1.00  0.00    -0.146 C  
BRANCH   6  26
HETATM   26  C   UNL     1     -10.741   4.698  72.118  1.00  0.00    -0.041 C  
HETATM   27  C   UNL     1     -11.443   4.480  73.436  1.00  0.00    -0.322 C  
ENDBRANCH   6  26
ENDBRANCH   3   4
ENDBRANCH   2   3
TORSDOF 3
ENDMDL
MODEL      106
REMARK 921   NORMALIZED FREE ENERGY PREDICTED BY IDOCK:   -3.26 KCAL/MOL
REMARK 922        TOTAL FREE ENERGY PREDICTED BY IDOCK:   -4.31 KCAL/MOL
REMARK 923 INTER-LIGAND FREE ENERGY PREDICTED BY IDOCK:   -4.61 KCAL/MOL
REMARK 924 INTRA-LIGAND FREE ENERGY PREDICTED BY IDOCK:    0.30 KCAL/MOL
REMARK 927      BINDING AFFINITY PREDICTED BY RF-SCORE:    0.00 PKD
ROOT
HETATM    1  C   UNL     1      -9.879   5.504  65.483  1.00  0.00     0.218 C  
HETATM    2  C   UNL     1      -8.670   5.198  66.355  1.00  0.00    -0.113 C  
ENDROOT
BRANCH   2   3
HETATM    3  C   UNL     1      -7.989   6.489  66.829  1.00  0.00    -0.108 C  
BRANCH   3   4
HETATM    4  C   UNL     1      -8.908   7.351  67.700  1.00  0.00    -0.127 A  
HETATM    5  C   UNL     1      -9.277   7.157  69.091  1.00  0.00    -0.139 A  
HETATM    6  N   UNL     1      -8.919   6.043  69.991  1.00  0.00    -0.144 NA 
HETATM    7  O   UNL     1     -11.380  11.493  67.354  1.00  0.00    -0.292 OA 
HETATM    8  C   UNL     1      -9.354   6.066  71.354  1.00  0.00    -0.146 C  
HETATM    9  C   UNL     1     -10.054   7.075  71.890  1.00  0.00    -0.198 C  
HETATM   10  O   UNL     1      -8.250   8.889  63.140  1.00  0.00    -0.166 OA 
HETATM   11  C   UNL     1      -8.997   5.060  72.428  1.00  0.00    -0.130 C  
HETATM   12  O   UNL     1      -9.967   4.810  73.347  1.00  0.00    -0.147 OA 
HETATM   13  C   UNL     1     -10.516   8.167  71.054  1.00  0.00    -0.201 C  
HETATM   14  O   UNL     1      -7.907   4.528  72.544  1.00  0.00    -0.083 OA 
HETATM   15  O   UNL     1     -11.241   9.025  71.546  1.00  0.00    -0.294 OA 
HETATM   16  C   UNL     1     -10.092   8.192  69.648  1.00  0.00    -0.199 A  
HETATM   17  C   UNL     1     -10.544   9.310  68.928  1.00  0.00    -0.222 A  
HETATM   18  C   UNL     1     -10.192   9.468  67.606  1.00  0.00    -0.273 A  
HETATM   19  C   UNL     1      -9.384   8.518  66.998  1.00  0.00    -0.161 A  
HETATM   20  O   UNL     1      -8.997   8.680  65.678  1.00  0.00    -0.189 OA 
HETATM   21  C   UNL     1      -9.454   9.781  64.959  1.00  0.00    -0.272 C  
HETATM   22  C   UNL     1      -9.044   9.908  63.533  1.00  0.00    -0.256 C  
HETATM   23  C   UNL     1     -10.241  10.745  65.458  1.00  0.00    -0.330 C  
HETATM   24  O   UNL     1      -9.378  10.818  62.789  1.00  0.00    -0.272 OA 
HETATM   25  C   UNL     1     -10.663  10.639  66.852  1.00  0.00    -0.237 C  
BRANCH   6  26
HETATM   26  C   UNL     1      -8.193   4.950  69.318  1.00  0.00    -0.081 C  
HETATM   27  C   UNL     1      -6.806   4.480  69.683  1.00  0.00    -0.045 C  
ENDBRANCH   6  26
ENDBRANCH   3   4
ENDBRANCH   2   3
TORSDOF 3
ENDMDL
MODEL      107
REMARK 921   NORMALIZED FREE ENERGY PREDICTED BY IDOCK:   -3.25 KCAL/MOL
REMARK 922        TOTAL FREE ENERGY PREDICTED BY IDOCK:   -4.30 KCAL/MOL
REMARK 923 INTER-LIGAND FREE ENERGY PREDICTED BY IDOCK:   -4.89 KCAL/MOL
REMARK 924 INTRA-LIGAND FREE ENERGY PREDICTED BY IDOCK:    0.59 KCAL/MOL
REMARK 927      BINDING AFFINITY PREDICTED BY RF-SCORE:    0.00 PKD
ROOT
HETATM    1  C   UNL     1      -5.541   9.366  68.300  1.00  0.00    -0.037 C  
HETATM    2  C   UNL     1      -5.891  10.826  68.549  1.00  0.00    -0.043 C  
ENDROOT
BRANCH   2   3
HETATM    3  C   UNL     1      -7.228  10.956  69.291  1.00  0.00    -0.128 C  
BRANCH   3   4
HETATM    4  C   UNL     1      -8.432  10.708  68.378  1.00  0.00    -0.132 A  
HETATM    5  C   UNL     1      -9.144  11.661  67.543  1.00  0.00    -0.172 A  
HETATM    6  N   UNL     1      -8.931  13.117  67.422  1.00  0.00    -0.191 NA 
HETATM    7  O   UNL     1     -11.129   6.986  66.875  1.00  0.00    -0.359 OA 
HETATM    8  C   UNL     1      -9.720  13.873  66.498  1.00  0.00    -0.294 C  
HETATM    9  C   UNL     1     -10.639  13.326  65.690  1.00  0.00    -0.291 C  
HETATM   10  O   UNL     1      -6.723   6.821  70.734  1.00  0.00    -0.051 OA 
HETATM   11  C   UNL     1      -9.567  15.346  66.181  1.00  0.00    -0.329 C  
HETATM   12  O   UNL     1     -10.719  16.011  65.904  1.00  0.00    -0.323 OA 
HETATM   13  C   UNL     1     -10.966  11.917  65.805  1.00  0.00    -0.311 C  
HETATM   14  O   UNL     1      -8.501  15.931  66.106  1.00  0.00    -0.318 OA 
HETATM   15  O   UNL     1     -11.881  11.464  65.126  1.00  0.00     0.028 OA 
HETATM   16  C   UNL     1     -10.181  11.097  66.736  1.00  0.00    -0.272 A  
HETATM   17  C   UNL     1     -10.533   9.736  66.744  1.00  0.00    -0.259 A  
HETATM   18  C   UNL     1      -9.853   8.853  67.554  1.00  0.00    -0.237 A  
HETATM   19  C   UNL     1      -8.817   9.318  68.351  1.00  0.00    -0.129 A  
HETATM   20  O   UNL     1      -8.105   8.436  69.146  1.00  0.00    -0.114 OA 
HETATM   21  C   UNL     1      -8.460   7.089  69.165  1.00  0.00    -0.129 C  
HETATM   22  C   UNL     1      -7.693   6.173  70.055  1.00  0.00    -0.097 C  
HETATM   23  C   UNL     1      -9.447   6.551  68.436  1.00  0.00    -0.120 C  
HETATM   24  O   UNL     1      -7.904   4.976  70.172  1.00  0.00    -0.065 OA 
HETATM   25  C   UNL     1     -10.219   7.430  67.561  1.00  0.00    -0.224 C  
BRANCH   6  26
HETATM   26  C   UNL     1      -7.941  13.650  68.376  1.00  0.00    -0.147 C  
HETATM   27  C   UNL     1      -6.495  13.934  68.052  1.00  0.00    -0.147 C  
ENDBRANCH   6  26
ENDBRANCH   3   4
ENDBRANCH   2   3
TORSDOF 3
ENDMDL
MODEL      108
REMARK 921   NORMALIZED FREE ENERGY PREDICTED BY IDOCK:   -3.16 KCAL/MOL
REMARK 922        TOTAL FREE ENERGY PREDICTED BY IDOCK:   -4.19 KCAL/MOL
REMARK 923 INTER-LIGAND FREE ENERGY PREDICTED BY IDOCK:   -3.85 KCAL/MOL
REMARK 924 INTRA-LIGAND FREE ENERGY PREDICTED BY IDOCK:   -0.33 KCAL/MOL
REMARK 927      BINDING AFFINITY PREDICTED BY RF-SCORE:    0.00 PKD
ROOT
HETATM    1  C   UNL     1     -10.729   9.839  68.674  1.00  0.00    -0.247 C  
HETATM    2  C   UNL     1      -9.384  10.284  68.118  1.00  0.00    -0.144 C  
ENDROOT
BRANCH   2   3
HETATM    3  C   UNL     1      -8.247   9.398  68.643  1.00  0.00    -0.112 C  
BRANCH   3   4
HETATM    4  C   UNL     1      -8.528   7.905  68.447  1.00  0.00    -0.128 A  
HETATM    5  C   UNL     1      -8.964   6.930  69.432  1.00  0.00    -0.138 A  
HETATM    6  N   UNL     1      -9.174   7.118  70.881  1.00  0.00    -0.153 NA 
HETATM    7  O   UNL     1      -8.656   4.693  64.834  1.00  0.00    -0.128 OA 
HETATM    8  C   UNL     1      -9.654   6.027  71.673  1.00  0.00    -0.151 C  
HETATM    9  C   UNL     1      -9.966   4.827  71.167  1.00  0.00    -0.273 C  
HETATM   10  O   UNL     1      -7.160  10.347  64.477  1.00  0.00    -0.109 OA 
HETATM   11  C   UNL     1     -10.012   6.075  73.144  1.00  0.00    -0.178 C  
HETATM   12  O   UNL     1      -9.751   4.945  73.851  1.00  0.00    -0.131 OA 
HETATM   13  C   UNL     1      -9.711   4.535  69.769  1.00  0.00    -0.215 C  
HETATM   14  O   UNL     1     -10.557   7.017  73.694  1.00  0.00    -0.357 OA 
HETATM   15  O   UNL     1      -9.910   3.399  69.355  1.00  0.00    -0.043 OA 
HETATM   16  C   UNL     1      -9.222   5.624  68.912  1.00  0.00    -0.136 A  
HETATM   17  C   UNL     1      -9.052   5.265  67.564  1.00  0.00    -0.110 A  
HETATM   18  C   UNL     1      -8.625   6.202  66.650  1.00  0.00    -0.118 A  
HETATM   19  C   UNL     1      -8.375   7.500  67.070  1.00  0.00    -0.121 A  
HETATM   20  O   UNL     1      -7.975   8.460  66.156  1.00  0.00    -0.095 OA 
HETATM   21  C   UNL     1      -7.794   8.104  64.822  1.00  0.00    -0.137 C  
HETATM   22  C   UNL     1      -7.334   9.153  63.871  1.00  0.00    -0.097 C  
HETATM   23  C   UNL     1      -8.004   6.877  64.325  1.00  0.00    -0.086 C  
HETATM   24  O   UNL     1      -7.129   8.975  62.680  1.00  0.00    -0.097 OA 
HETATM   25  C   UNL     1      -8.449   5.828  65.239  1.00  0.00    -0.148 C  
BRANCH   6  26
HETATM   26  C   UNL     1      -8.762   8.447  71.370  1.00  0.00    -0.172 C  
HETATM   27  C   UNL     1      -7.720   8.692  72.433  1.00  0.00    -0.031 C  
ENDBRANCH   6  26
ENDBRANCH   3   4
ENDBRANCH   2   3
TORSDOF 3
ENDMDL
MODEL      109
REMARK 921   NORMALIZED FREE ENERGY PREDICTED BY IDOCK:   -3.09 KCAL/MOL
REMARK 922        TOTAL FREE ENERGY PREDICTED BY IDOCK:   -4.11 KCAL/MOL
REMARK 923 INTER-LIGAND FREE ENERGY PREDICTED BY IDOCK:   -4.03 KCAL/MOL
REMARK 924 INTRA-LIGAND FREE ENERGY PREDICTED BY IDOCK:   -0.08 KCAL/MOL
REMARK 927      BINDING AFFINITY PREDICTED BY RF-SCORE:    0.00 PKD
ROOT
HETATM    1  C   UNL     1     -10.913   9.123  71.867  1.00  0.00    -0.372 C  
HETATM    2  C   UNL     1     -11.575   8.131  70.923  1.00  0.00    -0.283 C  
ENDROOT
BRANCH   2   3
HETATM    3  C   UNL     1     -10.699   7.870  69.691  1.00  0.00    -0.218 C  
BRANCH   3   4
HETATM    4  C   UNL     1      -9.269   8.388  69.867  1.00  0.00    -0.151 A  
HETATM    5  C   UNL     1      -8.715   9.669  69.464  1.00  0.00    -0.185 A  
HETATM    6  N   UNL     1      -9.372  10.761  68.719  1.00  0.00    -0.177 NA 
HETATM    7  O   UNL     1      -5.131   6.956  71.921  1.00  0.00    -0.027 OA 
HETATM    8  C   UNL     1      -8.655  11.972  68.460  1.00  0.00    -0.093 C  
HETATM    9  C   UNL     1      -7.406  12.199  68.890  1.00  0.00    -0.054 C  
HETATM   10  O   UNL     1     -10.150   3.947  71.626  1.00  0.00    -0.173 OA 
HETATM   11  C   UNL     1      -9.206  13.218  67.799  1.00  0.00    -0.209 C  
HETATM   12  O   UNL     1      -8.330  13.911  67.025  1.00  0.00    -0.178 OA 
HETATM   13  C   UNL     1      -6.662  11.147  69.556  1.00  0.00    -0.132 C  
HETATM   14  O   UNL     1     -10.333  13.650  67.966  1.00  0.00    -0.238 OA 
HETATM   15  O   UNL     1      -5.487  11.345  69.848  1.00  0.00    -0.060 OA 
HETATM   16  C   UNL     1      -7.355   9.886  69.850  1.00  0.00    -0.147 A  
HETATM   17  C   UNL     1      -6.574   8.945  70.541  1.00  0.00    -0.049 A  
HETATM   18  C   UNL     1      -7.116   7.731  70.903  1.00  0.00    -0.053 A  
HETATM   19  C   UNL     1      -8.437   7.452  70.585  1.00  0.00    -0.136 A  
HETATM   20  O   UNL     1      -9.003   6.249  70.969  1.00  0.00    -0.142 OA 
HETATM   21  C   UNL     1      -8.228   5.309  71.644  1.00  0.00    -0.118 C  
HETATM   22  C   UNL     1      -8.859   4.013  72.015  1.00  0.00    -0.109 C  
HETATM   23  C   UNL     1      -6.944   5.486  71.988  1.00  0.00    -0.080 C  
HETATM   24  O   UNL     1      -8.292   3.103  72.600  1.00  0.00    -0.074 OA 
HETATM   25  C   UNL     1      -6.299   6.747  71.628  1.00  0.00    -0.042 C  
BRANCH   6  26
HETATM   26  C   UNL     1     -10.724  10.419  68.238  1.00  0.00    -0.235 C  
HETATM   27  C   UNL     1     -12.007  10.987  68.792  1.00  0.00    -0.295 C  
ENDBRANCH   6  26
ENDBRANCH   3   4
ENDBRANCH   2   3
TORSDOF 3
ENDMDL
MODEL      110
REMARK 921   NORMALIZED FREE ENERGY PREDICTED BY IDOCK:   -3.08 KCAL/MOL
REMARK 922        TOTAL FREE ENERGY PREDICTED BY IDOCK:   -4.10 KCAL/MOL
REMARK 923 INTER-LIGAND FREE ENERGY PREDICTED BY IDOCK:   -4.97 KCAL/MOL
REMARK 924 INTRA-LIGAND FREE ENERGY PREDICTED BY IDOCK:    0.87 KCAL/MOL
REMARK 927      BINDING AFFINITY PREDICTED BY RF-SCORE:    0.00 PKD
ROOT
HETATM    1  C   UNL     1      -6.756  10.506  67.196  1.00  0.00    -0.079 C  
HETATM    2  C   UNL     1      -7.359  10.614  65.804  1.00  0.00    -0.110 C  
ENDROOT
BRANCH   2   3
HETATM    3  C   UNL     1      -8.410   9.521  65.569  1.00  0.00    -0.137 C  
BRANCH   3   4
HETATM    4  C   UNL     1      -9.125   9.108  66.858  1.00  0.00    -0.163 A  
HETATM    5  C   UNL     1      -8.924   7.914  67.660  1.00  0.00    -0.131 A  
HETATM    6  N   UNL     1      -8.034   6.767  67.395  1.00  0.00    -0.113 NA 
HETATM    7  O   UNL     1     -12.407  10.920  69.914  1.00  0.00    -0.326 OA 
HETATM    8  C   UNL     1      -7.951   5.701  68.346  1.00  0.00    -0.100 C  
HETATM    9  C   UNL     1      -8.619   5.692  69.508  1.00  0.00    -0.110 C  
HETATM   10  O   UNL     1     -10.485  13.360  64.945  1.00  0.00    -0.349 OA 
HETATM   11  C   UNL     1      -7.024   4.505  68.277  1.00  0.00    -0.056 C  
HETATM   12  O   UNL     1      -7.523   3.343  68.771  1.00  0.00    -0.050 OA 
HETATM   13  C   UNL     1      -9.576   6.740  69.807  1.00  0.00    -0.150 C  
HETATM   14  O   UNL     1      -5.875   4.543  67.872  1.00  0.00    -0.021 OA 
HETATM   15  O   UNL     1     -10.248   6.655  70.828  1.00  0.00    -0.194 OA 
HETATM   16  C   UNL     1      -9.695   7.860  68.864  1.00  0.00    -0.158 A  
HETATM   17  C   UNL     1     -10.608   8.853  69.258  1.00  0.00    -0.219 A  
HETATM   18  C   UNL     1     -10.792   9.971  68.476  1.00  0.00    -0.270 A  
HETATM   19  C   UNL     1     -10.064  10.110  67.303  1.00  0.00    -0.206 A  
HETATM   20  O   UNL     1     -10.216  11.243  66.522  1.00  0.00    -0.214 OA 
HETATM   21  C   UNL     1     -11.129  12.222  66.905  1.00  0.00    -0.290 C  
HETATM   22  C   UNL     1     -11.291  13.414  66.026  1.00  0.00    -0.309 C  
HETATM   23  C   UNL     1     -11.880  12.173  68.014  1.00  0.00    -0.351 C  
HETATM   24  O   UNL     1     -12.059  14.339  66.240  1.00  0.00    -0.415 OA 
HETATM   25  C   UNL     1     -11.745  11.011  68.889  1.00  0.00    -0.330 C  
BRANCH   6  26
HETATM   26  C   UNL     1      -7.372   6.824  66.078  1.00  0.00    -0.075 C  
HETATM   27  C   UNL     1      -6.593   5.694  65.452  1.00  0.00    -0.040 C  
ENDBRANCH   6  26
ENDBRANCH   3   4
ENDBRANCH   2   3
TORSDOF 3
ENDMDL
MODEL      111
REMARK 921   NORMALIZED FREE ENERGY PREDICTED BY IDOCK:   -3.05 KCAL/MOL
REMARK 922        TOTAL FREE ENERGY PREDICTED BY IDOCK:   -4.05 KCAL/MOL
REMARK 923 INTER-LIGAND FREE ENERGY PREDICTED BY IDOCK:   -3.79 KCAL/MOL
REMARK 924 INTRA-LIGAND FREE ENERGY PREDICTED BY IDOCK:   -0.27 KCAL/MOL
REMARK 927      BINDING AFFINITY PREDICTED BY RF-SCORE:    0.00 PKD
ROOT
HETATM    1  C   UNL     1     -12.636  11.330  70.586  1.00  0.00    -0.377 C  
HETATM    2  C   UNL     1     -11.679  10.311  69.986  1.00  0.00    -0.330 C  
ENDROOT
BRANCH   2   3
HETATM    3  C   UNL     1     -10.417  10.164  70.846  1.00  0.00     0.164 C  
BRANCH   3   4
HETATM    4  C   UNL     1      -9.514   9.021  70.372  1.00  0.00    -0.247 A  
HETATM    5  C   UNL     1      -9.562   7.618  70.744  1.00  0.00    -0.166 A  
HETATM    6  N   UNL     1     -10.443   6.956  71.726  1.00  0.00    -0.203 NA 
HETATM    7  O   UNL     1      -5.895   8.331  67.239  1.00  0.00    -0.041 OA 
HETATM    8  C   UNL     1     -10.358   5.540  71.913  1.00  0.00    -0.216 C  
HETATM    9  C   UNL     1      -9.533   4.750  71.212  1.00  0.00    -0.216 C  
HETATM   10  O   UNL     1      -8.574  13.394  68.479  1.00  0.00    -0.154 OA 
HETATM   11  C   UNL     1     -11.247   4.696  72.802  1.00  0.00    -0.089 C  
HETATM   12  O   UNL     1     -10.645   3.633  73.398  1.00  0.00    -0.163 OA 
HETATM   13  C   UNL     1      -8.578   5.331  70.287  1.00  0.00    -0.121 C  
HETATM   14  O   UNL     1     -12.442   4.877  72.959  1.00  0.00     0.075 OA 
HETATM   15  O   UNL     1      -7.766   4.596  69.735  1.00  0.00    -0.057 OA 
HETATM   16  C   UNL     1      -8.628   6.780  70.057  1.00  0.00    -0.141 A  
HETATM   17  C   UNL     1      -7.701   7.247  69.110  1.00  0.00    -0.108 A  
HETATM   18  C   UNL     1      -7.665   8.584  68.782  1.00  0.00    -0.102 A  
HETATM   19  C   UNL     1      -8.555   9.460  69.388  1.00  0.00    -0.148 A  
HETATM   20  O   UNL     1      -8.550  10.801  69.045  1.00  0.00    -0.163 OA 
HETATM   21  C   UNL     1      -7.624  11.268  68.115  1.00  0.00    -0.105 C  
HETATM   22  C   UNL     1      -7.626  12.722  67.791  1.00  0.00    -0.141 C  
HETATM   23  C   UNL     1      -6.724  10.501  67.483  1.00  0.00    -0.070 C  
HETATM   24  O   UNL     1      -6.865  13.262  67.003  1.00  0.00    -0.050 OA 
HETATM   25  C   UNL     1      -6.697   9.073  67.789  1.00  0.00    -0.065 C  
BRANCH   6  26
HETATM   26  C   UNL     1     -11.285   7.895  72.491  1.00  0.00    -0.376 C  
HETATM   27  C   UNL     1     -12.783   8.017  72.359  1.00  0.00    -0.177 C  
ENDBRANCH   6  26
ENDBRANCH   3   4
ENDBRANCH   2   3
TORSDOF 3
ENDMDL
MODEL      112
REMARK 921   NORMALIZED FREE ENERGY PREDICTED BY IDOCK:   -3.00 KCAL/MOL
REMARK 922        TOTAL FREE ENERGY PREDICTED BY IDOCK:   -4.00 KCAL/MOL
REMARK 923 INTER-LIGAND FREE ENERGY PREDICTED BY IDOCK:   -4.16 KCAL/MOL
REMARK 924 INTRA-LIGAND FREE ENERGY PREDICTED BY IDOCK:    0.16 KCAL/MOL
REMARK 927      BINDING AFFINITY PREDICTED BY RF-SCORE:    0.00 PKD
ROOT
HETATM    1  C   UNL     1      -5.880   7.599  68.455  1.00  0.00    -0.031 C  
HETATM    2  C   UNL     1      -6.678   8.066  67.247  1.00  0.00    -0.065 C  
ENDROOT
BRANCH   2   3
HETATM    3  C   UNL     1      -7.868   7.135  66.975  1.00  0.00    -0.108 C  
BRANCH   3   4
HETATM    4  C   UNL     1      -8.748   6.932  68.212  1.00  0.00    -0.123 A  
HETATM    5  C   UNL     1      -9.733   7.837  68.778  1.00  0.00    -0.157 A  
HETATM    6  N   UNL     1     -10.080   9.206  68.348  1.00  0.00    -0.189 NA 
HETATM    7  O   UNL     1      -9.682   3.472  71.459  1.00  0.00    -0.156 OA 
HETATM    8  C   UNL     1     -11.123   9.917  69.021  1.00  0.00    -0.146 C  
HETATM    9  C   UNL     1     -11.847   9.395  70.021  1.00  0.00     0.107 C  
HETATM   10  O   UNL     1      -5.782   3.253  67.091  1.00  0.00    -0.021 OA 
HETATM   11  C   UNL     1     -11.666  11.281  68.649  1.00  0.00    -0.324 C  
HETATM   12  O   UNL     1     -12.061  12.061  69.688  1.00  0.00    -0.285 OA 
HETATM   13  C   UNL     1     -11.516   8.089  70.557  1.00  0.00    -0.187 C  
HETATM   14  O   UNL     1     -11.817  11.677  67.507  1.00  0.00    -0.591 OA 
HETATM   15  O   UNL     1     -12.128   7.678  71.537  1.00  0.00    -0.288 OA 
HETATM   16  C   UNL     1     -10.456   7.317  69.897  1.00  0.00    -0.236 A  
HETATM   17  C   UNL     1     -10.237   6.044  70.452  1.00  0.00    -0.261 A  
HETATM   18  C   UNL     1      -9.289   5.207  69.907  1.00  0.00    -0.196 A  
HETATM   19  C   UNL     1      -8.560   5.630  68.804  1.00  0.00    -0.104 A  
HETATM   20  O   UNL     1      -7.626   4.787  68.227  1.00  0.00    -0.076 OA 
HETATM   21  C   UNL     1      -7.399   3.530  68.782  1.00  0.00    -0.050 C  
HETATM   22  C   UNL     1      -6.365   2.661  68.155  1.00  0.00    -0.029 C  
HETATM   23  C   UNL     1      -8.047   3.039  69.848  1.00  0.00    -0.059 C  
HETATM   24  O   UNL     1      -6.063   1.544  68.545  1.00  0.00    -0.023 OA 
HETATM   25  C   UNL     1      -9.061   3.876  70.485  1.00  0.00    -0.116 C  
BRANCH   6  26
HETATM   26  C   UNL     1      -9.208   9.727  67.278  1.00  0.00    -0.134 C  
HETATM   27  C   UNL     1      -9.601   9.854  65.827  1.00  0.00    -0.312 C  
ENDBRANCH   6  26
ENDBRANCH   3   4
ENDBRANCH   2   3
TORSDOF 3
ENDMDL
MODEL      113
REMARK 921   NORMALIZED FREE ENERGY PREDICTED BY IDOCK:   -2.99 KCAL/MOL
REMARK 922        TOTAL FREE ENERGY PREDICTED BY IDOCK:   -3.99 KCAL/MOL
REMARK 923 INTER-LIGAND FREE ENERGY PREDICTED BY IDOCK:   -3.69 KCAL/MOL
REMARK 924 INTRA-LIGAND FREE ENERGY PREDICTED BY IDOCK:   -0.31 KCAL/MOL
REMARK 927      BINDING AFFINITY PREDICTED BY RF-SCORE:    0.00 PKD
ROOT
HETATM    1  C   UNL     1     -11.232   6.465  68.420  1.00  0.00    -0.297 C  
HETATM    2  C   UNL     1     -10.501   5.669  67.350  1.00  0.00    -0.306 C  
ENDROOT
BRANCH   2   3
HETATM    3  C   UNL     1      -9.352   6.483  66.741  1.00  0.00    -0.179 C  
BRANCH   3   4
HETATM    4  C   UNL     1      -8.498   7.178  67.806  1.00  0.00    -0.120 A  
HETATM    5  C   UNL     1      -8.438   8.592  68.135  1.00  0.00    -0.134 A  
HETATM    6  N   UNL     1      -9.130   9.719  67.479  1.00  0.00    -0.131 NA 
HETATM    7  O   UNL     1      -5.401   5.966  71.317  1.00  0.00    -0.016 OA 
HETATM    8  C   UNL     1      -8.968  11.044  67.993  1.00  0.00    -0.145 C  
HETATM    9  C   UNL     1      -8.238  11.332  69.080  1.00  0.00    -0.026 C  
HETATM   10  O   UNL     1      -8.018   2.353  67.518  1.00  0.00    -0.064 OA 
HETATM   11  C   UNL     1      -9.675  12.291  67.503  1.00  0.00    -0.190 C  
HETATM   12  O   UNL     1      -8.951  13.439  67.558  1.00  0.00    -0.186 OA 
HETATM   13  C   UNL     1      -7.462  10.295  69.733  1.00  0.00    -0.165 C  
HETATM   14  O   UNL     1     -10.836  12.328  67.133  1.00  0.00    -0.230 OA 
HETATM   15  O   UNL     1      -6.724  10.604  70.662  1.00  0.00    -0.332 OA 
HETATM   16  C   UNL     1      -7.598   8.916  69.245  1.00  0.00    -0.082 A  
HETATM   17  C   UNL     1      -6.849   7.972  69.968  1.00  0.00    -0.041 A  
HETATM   18  C   UNL     1      -6.910   6.638  69.630  1.00  0.00    -0.058 A  
HETATM   19  C   UNL     1      -7.722   6.238  68.578  1.00  0.00    -0.101 A  
HETATM   20  O   UNL     1      -7.817   4.897  68.247  1.00  0.00    -0.081 OA 
HETATM   21  C   UNL     1      -7.067   3.961  68.954  1.00  0.00    -0.050 C  
HETATM   22  C   UNL     1      -7.169   2.530  68.553  1.00  0.00    -0.048 C  
HETATM   23  C   UNL     1      -6.253   4.252  69.979  1.00  0.00    -0.026 C  
HETATM   24  O   UNL     1      -6.562   1.612  69.082  1.00  0.00    -0.028 OA 
HETATM   25  C   UNL     1      -6.129   5.650  70.387  1.00  0.00    -0.026 C  
BRANCH   6  26
HETATM   26  C   UNL     1      -9.871   9.331  66.264  1.00  0.00    -0.291 C  
HETATM   27  C   UNL     1      -9.504   9.741  64.859  1.00  0.00    -0.331 C  
ENDBRANCH   6  26
ENDBRANCH   3   4
ENDBRANCH   2   3
TORSDOF 3
ENDMDL
MODEL      114
REMARK 921   NORMALIZED FREE ENERGY PREDICTED BY IDOCK:   -2.94 KCAL/MOL
REMARK 922        TOTAL FREE ENERGY PREDICTED BY IDOCK:   -3.94 KCAL/MOL
REMARK 923 INTER-LIGAND FREE ENERGY PREDICTED BY IDOCK:   -3.64 KCAL/MOL
REMARK 924 INTRA-LIGAND FREE ENERGY PREDICTED BY IDOCK:   -0.30 KCAL/MOL
REMARK 927      BINDING AFFINITY PREDICTED BY RF-SCORE:    0.00 PKD
ROOT
HETATM    1  C   UNL     1      -9.320   7.988  67.394  1.00  0.00    -0.173 C  
HETATM    2  C   UNL     1      -7.949   8.309  67.969  1.00  0.00    -0.123 C  
ENDROOT
BRANCH   2   3
HETATM    3  C   UNL     1      -7.080   7.048  68.066  1.00  0.00    -0.086 C  
BRANCH   3   4
HETATM    4  C   UNL     1      -7.872   5.825  68.537  1.00  0.00    -0.097 A  
HETATM    5  C   UNL     1      -8.218   4.629  67.789  1.00  0.00    -0.099 A  
HETATM    6  N   UNL     1      -7.954   4.325  66.368  1.00  0.00    -0.098 NA 
HETATM    7  O   UNL     1      -9.890   4.170  72.609  1.00  0.00    -0.138 OA 
HETATM    8  C   UNL     1      -8.342   3.056  65.833  1.00  0.00    -0.098 C  
HETATM    9  C   UNL     1      -8.911   2.087  66.564  1.00  0.00    -0.107 C  
HETATM   10  O   UNL     1      -7.194   9.317  71.845  1.00  0.00    -0.326 OA 
HETATM   11  C   UNL     1      -8.064   2.548  64.434  1.00  0.00    -0.082 C  
HETATM   12  O   UNL     1      -9.026   1.757  63.891  1.00  0.00    -0.089 OA 
HETATM   13  C   UNL     1      -9.278   2.336  67.945  1.00  0.00    -0.196 C  
HETATM   14  O   UNL     1      -7.034   2.755  63.814  1.00  0.00    -0.038 OA 
HETATM   15  O   UNL     1      -9.889   1.469  68.561  1.00  0.00    -0.132 OA 
HETATM   16  C   UNL     1      -8.897   3.622  68.543  1.00  0.00    -0.156 A  
HETATM   17  C   UNL     1      -9.248   3.755  69.897  1.00  0.00    -0.219 A  
HETATM   18  C   UNL     1      -8.922   4.904  70.584  1.00  0.00    -0.163 A  
HETATM   19  C   UNL     1      -8.240   5.920  69.929  1.00  0.00    -0.117 A  
HETATM   20  O   UNL     1      -7.880   7.066  70.616  1.00  0.00    -0.094 OA 
HETATM   21  C   UNL     1      -8.236   7.206  71.955  1.00  0.00    -0.104 C  
HETATM   22  C   UNL     1      -7.859   8.465  72.655  1.00  0.00    -0.085 C  
HETATM   23  C   UNL     1      -8.898   6.284  72.668  1.00  0.00    -0.126 C  
HETATM   24  O   UNL     1      -8.116   8.719  73.822  1.00  0.00    -0.381 OA 
HETATM   25  C   UNL     1      -9.286   5.043  72.001  1.00  0.00    -0.136 C  
BRANCH   6  26
HETATM   26  C   UNL     1      -7.372   5.455  65.620  1.00  0.00    -0.073 C  
HETATM   27  C   UNL     1      -8.084   6.238  64.545  1.00  0.00    -0.102 C  
ENDBRANCH   6  26
ENDBRANCH   3   4
ENDBRANCH   2   3
TORSDOF 3
ENDMDL
MODEL      115
REMARK 921   NORMALIZED FREE ENERGY PREDICTED BY IDOCK:   -2.85 KCAL/MOL
REMARK 922        TOTAL FREE ENERGY PREDICTED BY IDOCK:   -3.82 KCAL/MOL
REMARK 923 INTER-LIGAND FREE ENERGY PREDICTED BY IDOCK:   -4.37 KCAL/MOL
REMARK 924 INTRA-LIGAND FREE ENERGY PREDICTED BY IDOCK:    0.55 KCAL/MOL
REMARK 927      BINDING AFFINITY PREDICTED BY RF-SCORE:    0.00 PKD
ROOT
HETATM    1  C   UNL     1     -11.582  11.880  66.298  1.00  0.00    -0.317 C  
HETATM    2  C   UNL     1     -10.496  11.812  67.361  1.00  0.00    -0.238 C  
ENDROOT
BRANCH   2   3
HETATM    3  C   UNL     1      -9.126  12.183  66.777  1.00  0.00    -0.205 C  
BRANCH   3   4
HETATM    4  C   UNL     1      -8.410  13.258  67.600  1.00  0.00    -0.181 A  
HETATM    5  C   UNL     1      -8.528  14.702  67.499  1.00  0.00    -0.188 A  
HETATM    6  N   UNL     1      -9.311  15.495  66.531  1.00  0.00    -0.259 NA 
HETATM    7  O   UNL     1      -5.367  13.512  71.351  1.00  0.00    -0.168 OA 
HETATM    8  C   UNL     1      -9.327  16.922  66.633  1.00  0.00    -0.258 C  
HETATM    9  C   UNL     1      -8.688  17.601  67.596  1.00  0.00    -0.232 C  
HETATM   10  O   UNL     1      -7.369   8.656  68.754  1.00  0.00    -0.080 OA 
HETATM   11  C   UNL     1     -10.147  17.874  65.789  1.00  0.00    -0.049 C  
HETATM   12  O   UNL     1      -9.563  19.069  65.512  1.00  0.00    -0.194 OA 
HETATM   13  C   UNL     1      -7.831  16.903  68.535  1.00  0.00    -0.240 C  
HETATM   14  O   UNL     1     -11.285  17.659  65.409  1.00  0.00    -0.058 OA 
HETATM   15  O   UNL     1      -7.178  17.558  69.341  1.00  0.00    -0.154 OA 
HETATM   16  C   UNL     1      -7.784  15.437  68.474  1.00  0.00    -0.132 A  
HETATM   17  C   UNL     1      -6.968  14.844  69.452  1.00  0.00    -0.170 A  
HETATM   18  C   UNL     1      -6.861  13.472  69.522  1.00  0.00     0.048 A  
HETATM   19  C   UNL     1      -7.570  12.686  68.625  1.00  0.00    -0.083 A  
HETATM   20  O   UNL     1      -7.495  11.306  68.703  1.00  0.00    -0.102 OA 
HETATM   21  C   UNL     1      -6.678  10.716  69.664  1.00  0.00    -0.116 C  
HETATM   22  C   UNL     1      -6.596   9.230  69.701  1.00  0.00    -0.043 C  
HETATM   23  C   UNL     1      -5.952  11.392  70.567  1.00  0.00    -0.104 C  
HETATM   24  O   UNL     1      -5.915   8.587  70.484  1.00  0.00    -0.031 OA 
HETATM   25  C   UNL     1      -6.009  12.851  70.547  1.00  0.00    -0.075 C  
BRANCH   6  26
HETATM   26  C   UNL     1      -9.944  14.682  65.475  1.00  0.00    -0.352 C  
HETATM   27  C   UNL     1     -11.385  14.798  65.042  1.00  0.00    -0.391 C  
ENDBRANCH   6  26
ENDBRANCH   3   4
ENDBRANCH   2   3
TORSDOF 3
ENDMDL
MODEL      116
REMARK 921   NORMALIZED FREE ENERGY PREDICTED BY IDOCK:   -2.82 KCAL/MOL
REMARK 922        TOTAL FREE ENERGY PREDICTED BY IDOCK:   -3.79 KCAL/MOL
REMARK 923 INTER-LIGAND FREE ENERGY PREDICTED BY IDOCK:   -3.60 KCAL/MOL
REMARK 924 INTRA-LIGAND FREE ENERGY PREDICTED BY IDOCK:   -0.20 KCAL/MOL
REMARK 927      BINDING AFFINITY PREDICTED BY RF-SCORE:    0.00 PKD
ROOT
HETATM    1  C   UNL     1      -7.381   2.619  67.874  1.00  0.00    -0.052 C  
HETATM    2  C   UNL     1      -7.342   4.140  67.882  1.00  0.00    -0.068 C  
ENDROOT
BRANCH   2   3
HETATM    3  C   UNL     1      -8.733   4.731  67.619  1.00  0.00    -0.106 C  
BRANCH   3   4
HETATM    4  C   UNL     1      -8.842   6.195  68.058  1.00  0.00    -0.111 A  
HETATM    5  C   UNL     1      -8.566   7.393  67.284  1.00  0.00    -0.118 A  
HETATM    6  N   UNL     1      -8.044   7.499  65.907  1.00  0.00    -0.119 NA 
HETATM    7  O   UNL     1     -10.275   8.714  71.929  1.00  0.00    -0.276 OA 
HETATM    8  C   UNL     1      -7.884   8.789  65.308  1.00  0.00    -0.109 C  
HETATM    9  C   UNL     1      -8.220   9.934  65.918  1.00  0.00    -0.124 C  
HETATM   10  O   UNL     1     -10.053   2.882  71.397  1.00  0.00    -0.084 OA 
HETATM   11  C   UNL     1      -7.456   9.070  63.883  1.00  0.00    -0.110 C  
HETATM   12  O   UNL     1      -6.704  10.188  63.704  1.00  0.00    -0.131 OA 
HETATM   13  C   UNL     1      -8.662   9.922  67.300  1.00  0.00    -0.128 C  
HETATM   14  O   UNL     1      -7.788   8.407  62.916  1.00  0.00    -0.133 OA 
HETATM   15  O   UNL     1      -8.865  10.991  67.866  1.00  0.00    -0.128 OA 
HETATM   16  C   UNL     1      -8.846   8.622  67.958  1.00  0.00    -0.141 A  
HETATM   17  C   UNL     1      -9.324   8.706  69.277  1.00  0.00    -0.153 A  
HETATM   18  C   UNL     1      -9.567   7.557  69.996  1.00  0.00    -0.164 A  
HETATM   19  C   UNL     1      -9.342   6.322  69.405  1.00  0.00    -0.140 A  
HETATM   20  O   UNL     1      -9.610   5.159  70.106  1.00  0.00    -0.154 OA 
HETATM   21  C   UNL     1     -10.073   5.238  71.418  1.00  0.00    -0.203 C  
HETATM   22  C   UNL     1     -10.322   3.968  72.153  1.00  0.00    -0.085 C  
HETATM   23  C   UNL     1     -10.313   6.383  72.073  1.00  0.00    -0.222 C  
HETATM   24  O   UNL     1     -10.720   3.896  73.306  1.00  0.00    -0.173 OA 
HETATM   25  C   UNL     1     -10.069   7.643  71.375  1.00  0.00    -0.182 C  
BRANCH   6  26
HETATM   26  C   UNL     1      -7.652   6.203  65.322  1.00  0.00    -0.089 C  
HETATM   27  C   UNL     1      -8.449   5.444  64.290  1.00  0.00    -0.092 C  
ENDBRANCH   6  26
ENDBRANCH   3   4
ENDBRANCH   2   3
TORSDOF 3
ENDMDL
MODEL      117
REMARK 921   NORMALIZED FREE ENERGY PREDICTED BY IDOCK:   -2.82 KCAL/MOL
REMARK 922        TOTAL FREE ENERGY PREDICTED BY IDOCK:   -3.79 KCAL/MOL
REMARK 923 INTER-LIGAND FREE ENERGY PREDICTED BY IDOCK:   -3.78 KCAL/MOL
REMARK 924 INTRA-LIGAND FREE ENERGY PREDICTED BY IDOCK:   -0.01 KCAL/MOL
REMARK 927      BINDING AFFINITY PREDICTED BY RF-SCORE:    0.00 PKD
ROOT
HETATM    1  C   UNL     1     -10.244   8.112  66.632  1.00  0.00    -0.329 C  
HETATM    2  C   UNL     1     -10.209   7.048  67.719  1.00  0.00    -0.227 C  
ENDROOT
BRANCH   2   3
HETATM    3  C   UNL     1     -10.489   5.655  67.139  1.00  0.00    -0.334 C  
BRANCH   3   4
HETATM    4  C   UNL     1      -9.461   4.614  67.590  1.00  0.00    -0.186 A  
HETATM    5  C   UNL     1      -8.519   3.864  66.779  1.00  0.00    -0.105 A  
HETATM    6  N   UNL     1      -8.366   3.863  65.311  1.00  0.00    -0.104 NA 
HETATM    7  O   UNL     1      -7.818   2.708  71.720  1.00  0.00    -0.050 OA 
HETATM    8  C   UNL     1      -7.334   3.076  64.707  1.00  0.00    -0.070 C  
HETATM    9  C   UNL     1      -6.453   2.349  65.407  1.00  0.00    -0.024 C  
HETATM   10  O   UNL     1     -12.135   6.624  71.112  1.00  0.00    -0.360 OA 
HETATM   11  C   UNL     1      -6.980   3.036  63.235  1.00  0.00    -0.043 C  
HETATM   12  O   UNL     1      -6.555   1.834  62.764  1.00  0.00    -0.013 OA 
HETATM   13  C   UNL     1      -6.585   2.231  66.847  1.00  0.00    -0.039 C  
HETATM   14  O   UNL     1      -6.998   4.001  62.492  1.00  0.00    -0.034 OA 
HETATM   15  O   UNL     1      -5.828   1.479  67.452  1.00  0.00    -0.018 OA 
HETATM   16  C   UNL     1      -7.626   3.023  67.515  1.00  0.00    -0.065 A  
HETATM   17  C   UNL     1      -7.648   2.886  68.913  1.00  0.00    -0.047 A  
HETATM   18  C   UNL     1      -8.559   3.597  69.662  1.00  0.00    -0.109 A  
HETATM   19  C   UNL     1      -9.445   4.453  69.024  1.00  0.00    -0.168 A  
HETATM   20  O   UNL     1     -10.346   5.198  69.767  1.00  0.00    -0.271 OA 
HETATM   21  C   UNL     1     -10.378   5.054  71.152  1.00  0.00    -0.184 C  
HETATM   22  C   UNL     1     -11.379   5.847  71.918  1.00  0.00    -0.247 C  
HETATM   23  C   UNL     1      -9.567   4.250  71.854  1.00  0.00    -0.212 C  
HETATM   24  O   UNL     1     -11.519   5.810  73.130  1.00  0.00    -0.206 OA 
HETATM   25  C   UNL     1      -8.581   3.456  71.125  1.00  0.00    -0.072 C  
BRANCH   6  26
HETATM   26  C   UNL     1      -9.400   4.645  64.608  1.00  0.00    -0.085 C  
HETATM   27  C   UNL     1     -10.658   4.069  64.005  1.00  0.00    -0.180 C  
ENDBRANCH   6  26
ENDBRANCH   3   4
ENDBRANCH   2   3
TORSDOF 3
ENDMDL
MODEL      118
REMARK 921   NORMALIZED FREE ENERGY PREDICTED BY IDOCK:   -2.77 KCAL/MOL
REMARK 922        TOTAL FREE ENERGY PREDICTED BY IDOCK:   -3.73 KCAL/MOL
REMARK 923 INTER-LIGAND FREE ENERGY PREDICTED BY IDOCK:   -3.78 KCAL/MOL
REMARK 924 INTRA-LIGAND FREE ENERGY PREDICTED BY IDOCK:    0.05 KCAL/MOL
REMARK 927      BINDING AFFINITY PREDICTED BY RF-SCORE:    0.00 PKD
ROOT
HETATM    1  C   UNL     1     -10.361   7.234  66.475  1.00  0.00    -0.104 C  
HETATM    2  C   UNL     1     -10.731   7.358  67.945  1.00  0.00    -0.217 C  
ENDROOT
BRANCH   2   3
HETATM    3  C   UNL     1     -10.970   5.979  68.574  1.00  0.00    -0.350 C  
BRANCH   3   4
HETATM    4  C   UNL     1      -9.667   5.287  68.983  1.00  0.00    -0.217 A  
HETATM    5  C   UNL     1      -8.934   5.406  70.232  1.00  0.00    -0.135 A  
HETATM    6  N   UNL     1      -9.222   6.277  71.388  1.00  0.00    -0.149 NA 
HETATM    7  O   UNL     1      -6.607   1.991  67.203  1.00  0.00    -0.033 OA 
HETATM    8  C   UNL     1      -8.391   6.207  72.551  1.00  0.00    -0.115 C  
HETATM    9  C   UNL     1      -7.363   5.357  72.676  1.00  0.00    -0.095 C  
HETATM   10  O   UNL     1     -11.365   4.176  64.570  1.00  0.00    -0.301 OA 
HETATM   11  C   UNL     1      -8.601   6.955  73.851  1.00  0.00    -0.144 C  
HETATM   12  O   UNL     1      -7.471   7.337  74.501  1.00  0.00    -0.115 OA 
HETATM   13  C   UNL     1      -6.964   4.526  71.555  1.00  0.00    -0.039 C  
HETATM   14  O   UNL     1      -9.689   7.171  74.358  1.00  0.00    -0.221 OA 
HETATM   15  O   UNL     1      -5.958   3.832  71.661  1.00  0.00    -0.012 OA 
HETATM   16  C   UNL     1      -7.787   4.558  70.340  1.00  0.00    -0.053 A  
HETATM   17  C   UNL     1      -7.355   3.686  69.327  1.00  0.00    -0.049 A  
HETATM   18  C   UNL     1      -8.058   3.599  68.145  1.00  0.00    -0.086 A  
HETATM   19  C   UNL     1      -9.197   4.372  67.971  1.00  0.00    -0.136 A  
HETATM   20  O   UNL     1      -9.930   4.272  66.801  1.00  0.00    -0.223 OA 
HETATM   21  C   UNL     1      -9.497   3.417  65.790  1.00  0.00    -0.116 C  
HETATM   22  C   UNL     1     -10.293   3.357  64.533  1.00  0.00    -0.049 C  
HETATM   23  C   UNL     1      -8.410   2.638  65.865  1.00  0.00    -0.091 C  
HETATM   24  O   UNL     1     -10.021   2.658  63.569  1.00  0.00    -0.126 OA 
HETATM   25  C   UNL     1      -7.608   2.685  67.086  1.00  0.00    -0.069 C  
BRANCH   6  26
HETATM   26  C   UNL     1     -10.335   7.217  71.157  1.00  0.00    -0.202 C  
HETATM   27  C   UNL     1     -10.227   8.720  71.236  1.00  0.00    -0.332 C  
ENDBRANCH   6  26
ENDBRANCH   3   4
ENDBRANCH   2   3
TORSDOF 3
ENDMDL
MODEL      119
REMARK 921   NORMALIZED FREE ENERGY PREDICTED BY IDOCK:   -2.69 KCAL/MOL
REMARK 922        TOTAL FREE ENERGY PREDICTED BY IDOCK:   -3.64 KCAL/MOL
REMARK 923 INTER-LIGAND FREE ENERGY PREDICTED BY IDOCK:   -3.46 KCAL/MOL
REMARK 924 INTRA-LIGAND FREE ENERGY PREDICTED BY IDOCK:   -0.18 KCAL/MOL
REMARK 927      BINDING AFFINITY PREDICTED BY RF-SCORE:    0.00 PKD
ROOT
HETATM    1  C   UNL     1      -5.211  13.301  68.137  1.00  0.00    -0.101 C  
HETATM    2  C   UNL     1      -5.699  11.948  68.632  1.00  0.00    -0.052 C  
ENDROOT
BRANCH   2   3
HETATM    3  C   UNL     1      -7.169  12.015  69.068  1.00  0.00    -0.053 C  
BRANCH   3   4
HETATM    4  C   UNL     1      -7.940  10.736  68.728  1.00  0.00    -0.136 A  
HETATM    5  C   UNL     1      -8.815  10.481  67.597  1.00  0.00    -0.131 A  
HETATM    6  N   UNL     1      -9.237  11.413  66.533  1.00  0.00    -0.184 NA 
HETATM    7  O   UNL     1      -8.396   6.230  70.425  1.00  0.00    -0.122 OA 
HETATM    8  C   UNL     1     -10.077  10.943  65.474  1.00  0.00    -0.267 C  
HETATM    9  C   UNL     1     -10.488   9.673  65.364  1.00  0.00     0.550 C  
HETATM   10  O   UNL     1      -5.212  10.569  72.744  1.00  0.00    -0.320 OA 
HETATM   11  C   UNL     1     -10.521  11.735  64.261  1.00  0.00    -0.325 C  
HETATM   12  O   UNL     1     -11.768  11.455  63.799  1.00  0.00    -0.275 OA 
HETATM   13  C   UNL     1     -10.186   8.715  66.410  1.00  0.00    -0.154 C  
HETATM   14  O   UNL     1      -9.823  12.535  63.664  1.00  0.00    -0.323 OA 
HETATM   15  O   UNL     1     -10.659   7.586  66.336  1.00  0.00    -0.022 OA 
HETATM   16  C   UNL     1      -9.322   9.147  67.517  1.00  0.00    -0.157 A  
HETATM   17  C   UNL     1      -9.042   8.140  68.457  1.00  0.00    -0.136 A  
HETATM   18  C   UNL     1      -8.220   8.408  69.529  1.00  0.00    -0.118 A  
HETATM   19  C   UNL     1      -7.668   9.674  69.666  1.00  0.00    -0.124 A  
HETATM   20  O   UNL     1      -6.816   9.948  70.722  1.00  0.00    -0.247 OA 
HETATM   21  C   UNL     1      -6.546   8.955  71.662  1.00  0.00    -0.068 C  
HETATM   22  C   UNL     1      -5.649   9.293  72.802  1.00  0.00    -0.017 C  
HETATM   23  C   UNL     1      -7.036   7.709  71.617  1.00  0.00    -0.063 C  
HETATM   24  O   UNL     1      -5.338   8.522  73.697  1.00  0.00    -0.063 OA 
HETATM   25  C   UNL     1      -7.925   7.355  70.512  1.00  0.00    -0.099 C  
BRANCH   6  26
HETATM   26  C   UNL     1      -8.787  12.800  66.749  1.00  0.00    -0.159 C  
HETATM   27  C   UNL     1      -9.661  14.023  66.619  1.00  0.00    -0.296 C  
ENDBRANCH   6  26
ENDBRANCH   3   4
ENDBRANCH   2   3
TORSDOF 3
ENDMDL
MODEL      120
REMARK 921   NORMALIZED FREE ENERGY PREDICTED BY IDOCK:   -2.67 KCAL/MOL
REMARK 922        TOTAL FREE ENERGY PREDICTED BY IDOCK:   -3.62 KCAL/MOL
REMARK 923 INTER-LIGAND FREE ENERGY PREDICTED BY IDOCK:   -3.10 KCAL/MOL
REMARK 924 INTRA-LIGAND FREE ENERGY PREDICTED BY IDOCK:   -0.52 KCAL/MOL
REMARK 927      BINDING AFFINITY PREDICTED BY RF-SCORE:    0.00 PKD
ROOT
HETATM    1  C   UNL     1      -7.811   3.692  67.251  1.00  0.00    -0.079 C  
HETATM    2  C   UNL     1      -7.282   5.116  67.160  1.00  0.00    -0.081 C  
ENDROOT
BRANCH   2   3
HETATM    3  C   UNL     1      -8.390   6.137  67.448  1.00  0.00    -0.108 C  
BRANCH   3   4
HETATM    4  C   UNL     1      -7.853   7.421  68.088  1.00  0.00    -0.122 A  
HETATM    5  C   UNL     1      -7.654   7.713  69.497  1.00  0.00    -0.098 A  
HETATM    6  N   UNL     1      -7.987   6.875  70.666  1.00  0.00    -0.108 NA 
HETATM    7  O   UNL     1      -6.036  11.677  66.684  1.00  0.00    -0.146 OA 
HETATM    8  C   UNL     1      -7.664   7.336  71.982  1.00  0.00    -0.089 C  
HETATM    9  C   UNL     1      -7.032   8.492  72.226  1.00  0.00    -0.094 C  
HETATM   10  O   UNL     1      -8.090   7.406  63.236  1.00  0.00    -0.111 OA 
HETATM   11  C   UNL     1      -7.847   6.567  73.273  1.00  0.00    -0.096 C  
HETATM   12  O   UNL     1      -8.176   7.312  74.361  1.00  0.00    -0.152 OA 
HETATM   13  C   UNL     1      -6.743   9.410  71.140  1.00  0.00    -0.042 C  
HETATM   14  O   UNL     1      -7.663   5.369  73.397  1.00  0.00    -0.095 OA 
HETATM   15  O   UNL     1      -6.257  10.504  71.402  1.00  0.00    -0.313 OA 
HETATM   16  C   UNL     1      -7.052   8.981  69.769  1.00  0.00    -0.055 A  
HETATM   17  C   UNL     1      -6.694   9.911  68.779  1.00  0.00    -0.050 A  
HETATM   18  C   UNL     1      -6.903   9.618  67.449  1.00  0.00    -0.083 A  
HETATM   19  C   UNL     1      -7.463   8.397  67.100  1.00  0.00    -0.089 A  
HETATM   20  O   UNL     1      -7.651   8.078  65.767  1.00  0.00    -0.078 OA 
HETATM   21  C   UNL     1      -7.308   9.003  64.783  1.00  0.00    -0.100 C  
HETATM   22  C   UNL     1      -7.552   8.639  63.360  1.00  0.00    -0.117 C  
HETATM   23  C   UNL     1      -6.769  10.206  65.024  1.00  0.00    -0.127 C  
HETATM   24  O   UNL     1      -7.305   9.357  62.404  1.00  0.00    -0.103 OA 
HETATM   25  C   UNL     1      -6.527  10.590  66.413  1.00  0.00    -0.105 C  
BRANCH   6  26
HETATM   26  C   UNL     1      -8.724   5.645  70.321  1.00  0.00    -0.131 C  
HETATM   27  C   UNL     1     -10.192   5.416  70.580  1.00  0.00    -0.326 C  
ENDBRANCH   6  26
ENDBRANCH   3   4
ENDBRANCH   2   3
TORSDOF 3
ENDMDL
MODEL      121
REMARK 921   NORMALIZED FREE ENERGY PREDICTED BY IDOCK:   -2.60 KCAL/MOL
REMARK 922        TOTAL FREE ENERGY PREDICTED BY IDOCK:   -3.53 KCAL/MOL
REMARK 923 INTER-LIGAND FREE ENERGY PREDICTED BY IDOCK:   -3.18 KCAL/MOL
REMARK 924 INTRA-LIGAND FREE ENERGY PREDICTED BY IDOCK:   -0.36 KCAL/MOL
REMARK 927      BINDING AFFINITY PREDICTED BY RF-SCORE:    0.00 PKD
ROOT
HETATM    1  C   UNL     1      -6.715   9.901  71.063  1.00  0.00     0.086 C  
HETATM    2  C   UNL     1      -7.095   8.510  70.576  1.00  0.00    -0.041 C  
ENDROOT
BRANCH   2   3
HETATM    3  C   UNL     1      -8.580   8.444  70.194  1.00  0.00    -0.131 C  
BRANCH   3   4
HETATM    4  C   UNL     1      -8.803   7.814  68.815  1.00  0.00    -0.134 A  
HETATM    5  C   UNL     1      -9.007   6.415  68.483  1.00  0.00    -0.125 A  
HETATM    6  N   UNL     1      -8.978   5.243  69.380  1.00  0.00    -0.099 NA 
HETATM    7  O   UNL     1      -9.356   9.249  64.230  1.00  0.00    -0.054 OA 
HETATM    8  C   UNL     1      -9.252   3.941  68.853  1.00  0.00    -0.152 C  
HETATM    9  C   UNL     1      -9.575   3.715  67.573  1.00  0.00    -0.194 C  
HETATM   10  O   UNL     1      -8.274  12.642  68.884  1.00  0.00     0.057 OA 
HETATM   11  C   UNL     1      -9.357   2.655  69.646  1.00  0.00    -0.114 C  
HETATM   12  O   UNL     1      -8.914   1.536  69.015  1.00  0.00    -0.069 OA 
HETATM   13  C   UNL     1      -9.545   4.800  66.610  1.00  0.00    -0.174 C  
HETATM   14  O   UNL     1      -9.855   2.564  70.754  1.00  0.00    -0.089 OA 
HETATM   15  O   UNL     1      -9.744   4.548  65.427  1.00  0.00    -0.172 OA 
HETATM   16  C   UNL     1      -9.273   6.157  67.102  1.00  0.00    -0.120 A  
HETATM   17  C   UNL     1      -9.314   7.150  66.109  1.00  0.00    -0.097 A  
HETATM   18  C   UNL     1      -9.105   8.469  66.445  1.00  0.00    -0.229 A  
HETATM   19  C   UNL     1      -8.862   8.806  67.769  1.00  0.00    -0.136 A  
HETATM   20  O   UNL     1      -8.681  10.131  68.125  1.00  0.00    -0.120 OA 
HETATM   21  C   UNL     1      -8.708  11.117  67.141  1.00  0.00    -0.141 C  
HETATM   22  C   UNL     1      -8.479  12.529  67.554  1.00  0.00    -0.177 C  
HETATM   23  C   UNL     1      -8.928  10.888  65.839  1.00  0.00    -0.206 C  
HETATM   24  O   UNL     1      -8.469  13.485  66.794  1.00  0.00    -0.115 OA 
HETATM   25  C   UNL     1      -9.149   9.509  65.407  1.00  0.00    -0.221 C  
BRANCH   6  26
HETATM   26  C   UNL     1      -8.568   5.565  70.760  1.00  0.00    -0.126 C  
HETATM   27  C   UNL     1      -7.374   4.972  71.467  1.00  0.00    -0.081 C  
ENDBRANCH   6  26
ENDBRANCH   3   4
ENDBRANCH   2   3
TORSDOF 3
ENDMDL
MODEL      122
REMARK 921   NORMALIZED FREE ENERGY PREDICTED BY IDOCK:   -2.46 KCAL/MOL
REMARK 922        TOTAL FREE ENERGY PREDICTED BY IDOCK:   -3.37 KCAL/MOL
REMARK 923 INTER-LIGAND FREE ENERGY PREDICTED BY IDOCK:   -3.47 KCAL/MOL
REMARK 924 INTRA-LIGAND FREE ENERGY PREDICTED BY IDOCK:    0.10 KCAL/MOL
REMARK 927      BINDING AFFINITY PREDICTED BY RF-SCORE:    0.00 PKD
ROOT
HETATM    1  C   UNL     1      -8.812   9.846  64.068  1.00  0.00    -0.253 C  
HETATM    2  C   UNL     1      -7.439   9.340  63.652  1.00  0.00    -0.106 C  
ENDROOT
BRANCH   2   3
HETATM    3  C   UNL     1      -6.710   8.682  64.831  1.00  0.00    -0.068 C  
BRANCH   3   4
HETATM    4  C   UNL     1      -7.673   8.206  65.923  1.00  0.00    -0.091 A  
HETATM    5  C   UNL     1      -8.454   6.982  65.967  1.00  0.00    -0.139 A  
HETATM    6  N   UNL     1      -8.571   5.927  64.941  1.00  0.00    -0.089 NA 
HETATM    7  O   UNL     1      -9.173   9.625  70.296  1.00  0.00    -0.242 OA 
HETATM    8  C   UNL     1      -9.367   4.768  65.204  1.00  0.00    -0.127 C  
HETATM    9  C   UNL     1     -10.001   4.555  66.365  1.00  0.00    -0.267 C  
HETATM   10  O   UNL     1      -5.477  12.460  66.741  1.00  0.00    -0.335 OA 
HETATM   11  C   UNL     1      -9.516   3.557  64.307  1.00  0.00    -0.149 C  
HETATM   12  O   UNL     1     -10.736   2.960  64.321  1.00  0.00     0.020 OA 
HETATM   13  C   UNL     1     -10.005   5.578  67.393  1.00  0.00    -0.162 C  
HETATM   14  O   UNL     1      -8.616   3.072  63.643  1.00  0.00    -0.089 OA 
HETATM   15  O   UNL     1     -10.677   5.401  68.404  1.00  0.00    -0.138 OA 
HETATM   16  C   UNL     1      -9.198   6.786  67.172  1.00  0.00    -0.145 A  
HETATM   17  C   UNL     1      -9.221   7.698  68.241  1.00  0.00    -0.139 A  
HETATM   18  C   UNL     1      -8.483   8.859  68.172  1.00  0.00    -0.129 A  
HETATM   19  C   UNL     1      -7.715   9.113  67.044  1.00  0.00    -0.098 A  
HETATM   20  O   UNL     1      -6.944  10.261  66.974  1.00  0.00    -0.085 OA 
HETATM   21  C   UNL     1      -6.974  11.173  68.027  1.00  0.00    -0.068 C  
HETATM   22  C   UNL     1      -6.157  12.412  67.906  1.00  0.00    -0.093 C  
HETATM   23  C   UNL     1      -7.689  11.017  69.150  1.00  0.00    -0.102 C  
HETATM   24  O   UNL     1      -6.099  13.294  68.749  1.00  0.00    -0.078 OA 
HETATM   25  C   UNL     1      -8.504   9.813  69.289  1.00  0.00    -0.152 C  
BRANCH   6  26
HETATM   26  C   UNL     1      -7.886   6.255  63.676  1.00  0.00    -0.113 C  
HETATM   27  C   UNL     1      -6.596   5.631  63.204  1.00  0.00    -0.032 C  
ENDBRANCH   6  26
ENDBRANCH   3   4
ENDBRANCH   2   3
TORSDOF 3
ENDMDL
MODEL      123
REMARK 921   NORMALIZED FREE ENERGY PREDICTED BY IDOCK:   -2.43 KCAL/MOL
REMARK 922        TOTAL FREE ENERGY PREDICTED BY IDOCK:   -3.34 KCAL/MOL
REMARK 923 INTER-LIGAND FREE ENERGY PREDICTED BY IDOCK:   -3.44 KCAL/MOL
REMARK 924 INTRA-LIGAND FREE ENERGY PREDICTED BY IDOCK:    0.10 KCAL/MOL
REMARK 927      BINDING AFFINITY PREDICTED BY RF-SCORE:    0.00 PKD
ROOT
HETATM    1  C   UNL     1      -8.664  10.249  69.170  1.00  0.00    -0.176 C  
HETATM    2  C   UNL     1      -7.219  10.164  68.701  1.00  0.00    -0.080 C  
ENDROOT
BRANCH   2   3
HETATM    3  C   UNL     1      -6.668   8.741  68.864  1.00  0.00    -0.053 C  
BRANCH   3   4
HETATM    4  C   UNL     1      -7.720   7.667  68.572  1.00  0.00    -0.119 A  
HETATM    5  C   UNL     1      -8.078   7.077  67.294  1.00  0.00    -0.115 A  
HETATM    6  N   UNL     1      -7.570   7.416  65.950  1.00  0.00    -0.086 NA 
HETATM    7  O   UNL     1     -10.784   4.842  71.026  1.00  0.00    -0.086 OA 
HETATM    8  C   UNL     1      -8.026   6.675  64.813  1.00  0.00    -0.118 C  
HETATM    9  C   UNL     1      -8.879   5.645  64.896  1.00  0.00     0.023 C  
HETATM   10  O   UNL     1      -7.229   8.945  73.232  1.00  0.00    -0.353 OA 
HETATM   11  C   UNL     1      -7.539   6.827  63.388  1.00  0.00    -0.090 C  
HETATM   12  O   UNL     1      -8.474   6.633  62.422  1.00  0.00    -0.051 OA 
HETATM   13  C   UNL     1      -9.487   5.301  66.168  1.00  0.00    -0.158 C  
HETATM   14  O   UNL     1      -6.382   7.046  63.071  1.00  0.00    -0.043 OA 
HETATM   15  O   UNL     1     -10.341   4.422  66.198  1.00  0.00    -0.242 OA 
HETATM   16  C   UNL     1      -9.049   6.030  67.365  1.00  0.00    -0.106 A  
HETATM   17  C   UNL     1      -9.653   5.597  68.558  1.00  0.00    -0.160 A  
HETATM   18  C   UNL     1      -9.308   6.179  69.757  1.00  0.00    -0.162 A  
HETATM   19  C   UNL     1      -8.355   7.188  69.776  1.00  0.00    -0.132 A  
HETATM   20  O   UNL     1      -7.976   7.761  70.977  1.00  0.00    -0.087 OA 
HETATM   21  C   UNL     1      -8.583   7.342  72.159  1.00  0.00    -0.113 C  
HETATM   22  C   UNL     1      -8.174   8.001  73.431  1.00  0.00    -0.202 C  
HETATM   23  C   UNL     1      -9.514   6.382  72.239  1.00  0.00    -0.149 C  
HETATM   24  O   UNL     1      -8.630   7.735  74.532  1.00  0.00    -0.205 OA 
HETATM   25  C   UNL     1      -9.938   5.726  71.005  1.00  0.00    -0.190 C  
BRANCH   6  26
HETATM   26  C   UNL     1      -6.676   8.589  65.934  1.00  0.00    -0.057 C  
HETATM   27  C   UNL     1      -6.954   9.878  65.201  1.00  0.00    -0.128 C  
ENDBRANCH   6  26
ENDBRANCH   3   4
ENDBRANCH   2   3
TORSDOF 3
ENDMDL
MODEL      124
REMARK 921   NORMALIZED FREE ENERGY PREDICTED BY IDOCK:   -2.40 KCAL/MOL
REMARK 922        TOTAL FREE ENERGY PREDICTED BY IDOCK:   -3.29 KCAL/MOL
REMARK 923 INTER-LIGAND FREE ENERGY PREDICTED BY IDOCK:   -3.24 KCAL/MOL
REMARK 924 INTRA-LIGAND FREE ENERGY PREDICTED BY IDOCK:   -0.05 KCAL/MOL
REMARK 927      BINDING AFFINITY PREDICTED BY RF-SCORE:    0.00 PKD
ROOT
HETATM    1  C   UNL     1     -10.027   8.116  71.517  1.00  0.00    -0.237 C  
HETATM    2  C   UNL     1      -9.632   7.049  70.506  1.00  0.00    -0.169 C  
ENDROOT
BRANCH   2   3
HETATM    3  C   UNL     1      -8.160   7.190  70.098  1.00  0.00    -0.130 C  
BRANCH   3   4
HETATM    4  C   UNL     1      -7.989   7.432  68.595  1.00  0.00    -0.123 A  
HETATM    5  C   UNL     1      -7.562   8.645  67.918  1.00  0.00    -0.098 A  
HETATM    6  N   UNL     1      -7.257   9.966  68.502  1.00  0.00    -0.075 NA 
HETATM    7  O   UNL     1      -8.279   4.924  64.471  1.00  0.00    -0.109 OA 
HETATM    8  C   UNL     1      -6.805  11.027  67.655  1.00  0.00    -0.081 C  
HETATM    9  C   UNL     1      -6.602  10.886  66.338  1.00  0.00    -0.134 C  
HETATM   10  O   UNL     1      -9.420   2.971  69.877  1.00  0.00    -0.158 OA 
HETATM   11  C   UNL     1      -6.361  12.404  68.101  1.00  0.00    -0.065 C  
HETATM   12  O   UNL     1      -6.655  13.422  67.249  1.00  0.00    -0.234 OA 
HETATM   13  C   UNL     1      -6.955   9.646  65.674  1.00  0.00    -0.096 C  
HETATM   14  O   UNL     1      -5.725  12.632  69.115  1.00  0.00    -0.069 OA 
HETATM   15  O   UNL     1      -6.856   9.578  64.454  1.00  0.00    -0.092 OA 
HETATM   16  C   UNL     1      -7.420   8.524  66.501  1.00  0.00    -0.088 A  
HETATM   17  C   UNL     1      -7.691   7.349  65.780  1.00  0.00    -0.102 A  
HETATM   18  C   UNL     1      -8.107   6.215  66.441  1.00  0.00    -0.111 A  
HETATM   19  C   UNL     1      -8.247   6.243  67.821  1.00  0.00    -0.118 A  
HETATM   20  O   UNL     1      -8.635   5.101  68.501  1.00  0.00    -0.095 OA 
HETATM   21  C   UNL     1      -8.915   3.938  67.788  1.00  0.00    -0.129 C  
HETATM   22  C   UNL     1      -9.359   2.737  68.548  1.00  0.00    -0.186 C  
HETATM   23  C   UNL     1      -8.814   3.818  66.457  1.00  0.00    -0.126 C  
HETATM   24  O   UNL     1      -9.643   1.660  68.047  1.00  0.00    -0.176 OA 
HETATM   25  C   UNL     1      -8.388   4.984  65.687  1.00  0.00    -0.120 C  
BRANCH   6  26
HETATM   26  C   UNL     1      -7.552  10.056  69.945  1.00  0.00    -0.170 C  
HETATM   27  C   UNL     1      -6.542   9.858  71.048  1.00  0.00     0.051 C  
ENDBRANCH   6  26
ENDBRANCH   3   4
ENDBRANCH   2   3
TORSDOF 3
ENDMDL
MODEL      125
REMARK 921   NORMALIZED FREE ENERGY PREDICTED BY IDOCK:   -2.29 KCAL/MOL
REMARK 922        TOTAL FREE ENERGY PREDICTED BY IDOCK:   -3.17 KCAL/MOL
REMARK 923 INTER-LIGAND FREE ENERGY PREDICTED BY IDOCK:   -3.30 KCAL/MOL
REMARK 924 INTRA-LIGAND FREE ENERGY PREDICTED BY IDOCK:    0.13 KCAL/MOL
REMARK 927      BINDING AFFINITY PREDICTED BY RF-SCORE:    0.00 PKD
ROOT
HETATM    1  C   UNL     1     -11.144   6.554  68.155  1.00  0.00    -0.332 C  
HETATM    2  C   UNL     1     -10.540   5.821  66.967  1.00  0.00    -0.373 C  
ENDROOT
BRANCH   2   3
HETATM    3  C   UNL     1      -9.141   6.359  66.637  1.00  0.00    -0.155 C  
BRANCH   3   4
HETATM    4  C   UNL     1      -8.403   6.873  67.877  1.00  0.00    -0.121 A  
HETATM    5  C   UNL     1      -7.739   6.105  68.916  1.00  0.00    -0.093 A  
HETATM    6  N   UNL     1      -7.671   4.639  69.075  1.00  0.00    -0.070 NA 
HETATM    7  O   UNL     1      -7.105  11.108  69.818  1.00  0.00    -0.111 OA 
HETATM    8  C   UNL     1      -6.919   4.078  70.156  1.00  0.00    -0.041 C  
HETATM    9  C   UNL     1      -6.226   4.815  71.035  1.00  0.00    -0.019 C  
HETATM   10  O   UNL     1     -10.253  10.276  64.946  1.00  0.00    -0.327 OA 
HETATM   11  C   UNL     1      -6.669   2.606  70.408  1.00  0.00    -0.033 C  
HETATM   12  O   UNL     1      -6.604   2.235  71.713  1.00  0.00    -0.018 OA 
HETATM   13  C   UNL     1      -6.307   6.263  70.997  1.00  0.00    -0.048 C  
HETATM   14  O   UNL     1      -6.470   1.779  69.536  1.00  0.00    -0.028 OA 
HETATM   15  O   UNL     1      -5.746   6.911  71.874  1.00  0.00    -0.036 OA 
HETATM   16  C   UNL     1      -7.063   6.887  69.904  1.00  0.00    -0.071 A  
HETATM   17  C   UNL     1      -7.045   8.292  69.918  1.00  0.00    -0.055 A  
HETATM   18  C   UNL     1      -7.693   9.000  68.929  1.00  0.00    -0.094 A  
HETATM   19  C   UNL     1      -8.353   8.314  67.920  1.00  0.00    -0.128 A  
HETATM   20  O   UNL     1      -8.982   9.012  66.904  1.00  0.00    -0.120 OA 
HETATM   21  C   UNL     1      -8.976  10.405  66.922  1.00  0.00    -0.139 C  
HETATM   22  C   UNL     1      -9.689  11.125  65.831  1.00  0.00    -0.229 C  
HETATM   23  C   UNL     1      -8.372  11.153  67.857  1.00  0.00    -0.129 C  
HETATM   24  O   UNL     1      -9.767  12.340  65.731  1.00  0.00    -0.247 OA 
HETATM   25  C   UNL     1      -7.673  10.470  68.943  1.00  0.00    -0.117 C  
BRANCH   6  26
HETATM   26  C   UNL     1      -8.497   3.900  68.102  1.00  0.00    -0.093 C  
HETATM   27  C   UNL     1      -7.960   3.129  66.921  1.00  0.00    -0.079 C  
ENDBRANCH   6  26
ENDBRANCH   3   4
ENDBRANCH   2   3
TORSDOF 3
ENDMDL
MODEL      126
REMARK 921   NORMALIZED FREE ENERGY PREDICTED BY IDOCK:   -2.27 KCAL/MOL
REMARK 922        TOTAL FREE ENERGY PREDICTED BY IDOCK:   -3.15 KCAL/MOL
REMARK 923 INTER-LIGAND FREE ENERGY PREDICTED BY IDOCK:   -3.03 KCAL/MOL
REMARK 924 INTRA-LIGAND FREE ENERGY PREDICTED BY IDOCK:   -0.12 KCAL/MOL
REMARK 927      BINDING AFFINITY PREDICTED BY RF-SCORE:    0.00 PKD
ROOT
HETATM    1  C   UNL     1      -9.434   7.959  70.675  1.00  0.00    -0.162 C  
HETATM    2  C   UNL     1      -9.361   6.964  69.526  1.00  0.00    -0.147 C  
ENDROOT
BRANCH   2   3
HETATM    3  C   UNL     1      -7.907   6.695  69.118  1.00  0.00    -0.111 C  
BRANCH   3   4
HETATM    4  C   UNL     1      -7.547   7.336  67.774  1.00  0.00    -0.110 A  
HETATM    5  C   UNL     1      -7.757   6.810  66.437  1.00  0.00    -0.098 A  
HETATM    6  N   UNL     1      -8.304   5.497  66.040  1.00  0.00    -0.118 NA 
HETATM    7  O   UNL     1      -5.714  11.497  66.127  1.00  0.00    -0.200 OA 
HETATM    8  C   UNL     1      -8.472   5.190  64.653  1.00  0.00    -0.146 C  
HETATM    9  C   UNL     1      -8.191   6.052  63.666  1.00  0.00    -0.025 C  
HETATM   10  O   UNL     1      -6.474   9.947  71.727  1.00  0.00    -0.288 OA 
HETATM   11  C   UNL     1      -9.103   3.938  64.079  1.00  0.00    -0.129 C  
HETATM   12  O   UNL     1      -8.571   3.492  62.911  1.00  0.00    -0.084 OA 
HETATM   13  C   UNL     1      -7.574   7.330  63.966  1.00  0.00    -0.110 C  
HETATM   14  O   UNL     1     -10.065   3.365  64.560  1.00  0.00    -0.168 OA 
HETATM   15  O   UNL     1      -7.234   8.056  63.039  1.00  0.00    -0.084 OA 
HETATM   16  C   UNL     1      -7.385   7.694  65.376  1.00  0.00    -0.071 A  
HETATM   17  C   UNL     1      -6.828   8.969  65.574  1.00  0.00    -0.073 A  
HETATM   18  C   UNL     1      -6.625   9.442  66.851  1.00  0.00    -0.068 A  
HETATM   19  C   UNL     1      -6.982   8.653  67.936  1.00  0.00    -0.078 A  
HETATM   20  O   UNL     1      -6.812   9.129  69.224  1.00  0.00    -0.048 OA 
HETATM   21  C   UNL     1      -6.249  10.388  69.423  1.00  0.00    -0.049 C  
HETATM   22  C   UNL     1      -6.052  10.856  70.823  1.00  0.00     0.020 C  
HETATM   23  C   UNL     1      -5.868  11.216  68.441  1.00  0.00    -0.042 C  
HETATM   24  O   UNL     1      -5.564  11.931  71.137  1.00  0.00    -0.348 OA 
HETATM   25  C   UNL     1      -6.044  10.776  67.059  1.00  0.00    -0.068 C  
BRANCH   6  26
HETATM   26  C   UNL     1      -8.541   4.588  67.177  1.00  0.00    -0.104 C  
HETATM   27  C   UNL     1      -9.901   4.167  67.679  1.00  0.00    -0.122 C  
ENDBRANCH   6  26
ENDBRANCH   3   4
ENDBRANCH   2   3
TORSDOF 3
ENDMDL
MODEL      127
REMARK 921   NORMALIZED FREE ENERGY PREDICTED BY IDOCK:   -2.19 KCAL/MOL
REMARK 922        TOTAL FREE ENERGY PREDICTED BY IDOCK:   -3.05 KCAL/MOL
REMARK 923 INTER-LIGAND FREE ENERGY PREDICTED BY IDOCK:   -2.94 KCAL/MOL
REMARK 924 INTRA-LIGAND FREE ENERGY PREDICTED BY IDOCK:   -0.10 KCAL/MOL
REMARK 927      BINDING AFFINITY PREDICTED BY RF-SCORE:    0.00 PKD
ROOT
HETATM    1  C   UNL     1      -9.925   8.757  71.312  1.00  0.00    -0.333 C  
HETATM    2  C   UNL     1      -9.749   7.504  70.468  1.00  0.00    -0.179 C  
ENDROOT
BRANCH   2   3
HETATM    3  C   UNL     1      -8.344   7.441  69.855  1.00  0.00    -0.134 C  
BRANCH   3   4
HETATM    4  C   UNL     1      -8.259   6.460  68.683  1.00  0.00    -0.121 A  
HETATM    5  C   UNL     1      -8.104   6.754  67.268  1.00  0.00    -0.118 A  
HETATM    6  N   UNL     1      -8.064   8.070  66.601  1.00  0.00    -0.102 NA 
HETATM    7  O   UNL     1      -8.118   1.679  67.968  1.00  0.00    -0.057 OA 
HETATM    8  C   UNL     1      -7.858   8.141  65.187  1.00  0.00    -0.118 C  
HETATM    9  C   UNL     1      -7.659   7.064  64.414  1.00  0.00    -0.108 C  
HETATM   10  O   UNL     1      -8.717   4.467  73.088  1.00  0.00    -0.107 OA 
HETATM   11  C   UNL     1      -7.695   9.402  64.365  1.00  0.00    -0.119 C  
HETATM   12  O   UNL     1      -8.210   9.356  63.108  1.00  0.00    -0.144 OA 
HETATM   13  C   UNL     1      -7.765   5.732  64.978  1.00  0.00    -0.096 C  
HETATM   14  O   UNL     1      -7.097  10.398  64.735  1.00  0.00    -0.120 OA 
HETATM   15  O   UNL     1      -7.680   4.764  64.230  1.00  0.00    -0.074 OA 
HETATM   16  C   UNL     1      -7.971   5.606  66.426  1.00  0.00    -0.101 A  
HETATM   17  C   UNL     1      -8.011   4.280  66.891  1.00  0.00    -0.098 A  
HETATM   18  C   UNL     1      -8.171   4.025  68.235  1.00  0.00    -0.095 A  
HETATM   19  C   UNL     1      -8.285   5.086  69.122  1.00  0.00    -0.083 A  
HETATM   20  O   UNL     1      -8.415   4.844  70.478  1.00  0.00    -0.093 OA 
HETATM   21  C   UNL     1      -8.467   3.531  70.940  1.00  0.00    -0.070 C  
HETATM   22  C   UNL     1      -8.639   3.307  72.402  1.00  0.00    -0.083 C  
HETATM   23  C   UNL     1      -8.372   2.445  70.160  1.00  0.00    -0.073 C  
HETATM   24  O   UNL     1      -8.707   2.210  72.936  1.00  0.00    -0.065 OA 
HETATM   25  C   UNL     1      -8.211   2.639  68.721  1.00  0.00    -0.055 C  
BRANCH   6  26
HETATM   26  C   UNL     1      -8.340   9.201  67.508  1.00  0.00    -0.116 C  
HETATM   27  C   UNL     1      -7.286  10.055  68.169  1.00  0.00    -0.083 C  
ENDBRANCH   6  26
ENDBRANCH   3   4
ENDBRANCH   2   3
TORSDOF 3
ENDMDL
MODEL      128
REMARK 921   NORMALIZED FREE ENERGY PREDICTED BY IDOCK:   -2.08 KCAL/MOL
REMARK 922        TOTAL FREE ENERGY PREDICTED BY IDOCK:   -2.92 KCAL/MOL
REMARK 923 INTER-LIGAND FREE ENERGY PREDICTED BY IDOCK:   -3.47 KCAL/MOL
REMARK 924 INTRA-LIGAND FREE ENERGY PREDICTED BY IDOCK:    0.55 KCAL/MOL
REMARK 927      BINDING AFFINITY PREDICTED BY RF-SCORE:    0.00 PKD
ROOT
HETATM    1  C   UNL     1     -11.707  11.659  66.245  1.00  0.00     0.012 C  
HETATM    2  C   UNL     1     -10.733  11.038  67.236  1.00  0.00    -0.312 C  
ENDROOT
BRANCH   2   3
HETATM    3  C   UNL     1      -9.340  10.874  66.615  1.00  0.00    -0.191 C  
BRANCH   3   4
HETATM    4  C   UNL     1      -8.221  10.944  67.658  1.00  0.00    -0.116 A  
HETATM    5  C   UNL     1      -7.716  12.108  68.366  1.00  0.00    -0.134 A  
HETATM    6  N   UNL     1      -8.105  13.523  68.204  1.00  0.00    -0.144 NA 
HETATM    7  O   UNL     1      -5.294   7.913  70.032  1.00  0.00    -0.023 OA 
HETATM    8  C   UNL     1      -7.512  14.520  69.041  1.00  0.00    -0.131 C  
HETATM    9  C   UNL     1      -6.629  14.242  70.010  1.00  0.00    -0.088 C  
HETATM   10  O   UNL     1      -9.213   6.525  65.901  1.00  0.00    -0.108 OA 
HETATM   11  C   UNL     1      -7.865  15.992  69.073  1.00  0.00    -0.222 C  
HETATM   12  O   UNL     1      -6.833  16.840  69.323  1.00  0.00    -0.218 OA 
HETATM   13  C   UNL     1      -6.133  12.889  70.179  1.00  0.00    -0.092 C  
HETATM   14  O   UNL     1      -8.993  16.437  68.950  1.00  0.00    -0.240 OA 
HETATM   15  O   UNL     1      -5.250  12.681  71.004  1.00  0.00    -0.140 OA 
HETATM   16  C   UNL     1      -6.714  11.828  69.347  1.00  0.00    -0.098 A  
HETATM   17  C   UNL     1      -6.211  10.544  69.614  1.00  0.00    -0.063 A  
HETATM   18  C   UNL     1      -6.694   9.456  68.921  1.00  0.00    -0.051 A  
HETATM   19  C   UNL     1      -7.685   9.640  67.968  1.00  0.00    -0.086 A  
HETATM   20  O   UNL     1      -8.202   8.552  67.286  1.00  0.00    -0.107 OA 
HETATM   21  C   UNL     1      -7.696   7.279  67.540  1.00  0.00    -0.111 C  
HETATM   22  C   UNL     1      -8.254   6.134  66.767  1.00  0.00    -0.109 C  
HETATM   23  C   UNL     1      -6.738   7.005  68.436  1.00  0.00    -0.064 C  
HETATM   24  O   UNL     1      -7.896   4.973  66.886  1.00  0.00    -0.095 OA 
HETATM   25  C   UNL     1      -6.170   8.112  69.201  1.00  0.00    -0.039 C  
BRANCH   6  26
HETATM   26  C   UNL     1      -9.042  13.754  67.088  1.00  0.00    -0.239 C  
HETATM   27  C   UNL     1     -10.223  14.691  67.131  1.00  0.00    -0.256 C  
ENDBRANCH   6  26
ENDBRANCH   3   4
ENDBRANCH   2   3
TORSDOF 3
ENDMDL
MODEL      129
REMARK 921   NORMALIZED FREE ENERGY PREDICTED BY IDOCK:   -1.92 KCAL/MOL
REMARK 922        TOTAL FREE ENERGY PREDICTED BY IDOCK:   -2.73 KCAL/MOL
REMARK 923 INTER-LIGAND FREE ENERGY PREDICTED BY IDOCK:   -4.03 KCAL/MOL
REMARK 924 INTRA-LIGAND FREE ENERGY PREDICTED BY IDOCK:    1.30 KCAL/MOL
REMARK 927      BINDING AFFINITY PREDICTED BY RF-SCORE:    0.00 PKD
ROOT
HETATM    1  C   UNL     1     -12.267  15.503  67.625  1.00  0.00     0.662 C  
HETATM    2  C   UNL     1     -11.068  15.409  68.557  1.00  0.00    -0.295 C  
ENDROOT
BRANCH   2   3
HETATM    3  C   UNL     1     -10.686  13.947  68.823  1.00  0.00    -0.278 C  
BRANCH   3   4
HETATM    4  C   UNL     1      -9.298  13.595  68.280  1.00  0.00    -0.204 A  
HETATM    5  C   UNL     1      -8.805  12.306  67.827  1.00  0.00    -0.174 A  
HETATM    6  N   UNL     1      -9.494  11.000  67.844  1.00  0.00    -0.162 NA 
HETATM    7  O   UNL     1      -5.174  15.856  67.155  1.00  0.00    -0.335 OA 
HETATM    8  C   UNL     1      -8.839   9.848  67.303  1.00  0.00    -0.132 C  
HETATM    9  C   UNL     1      -7.626   9.885  66.736  1.00  0.00    -0.095 C  
HETATM   10  O   UNL     1      -9.988  18.249  69.487  1.00  0.00    -0.054 OA 
HETATM   11  C   UNL     1      -9.435   8.463  67.156  1.00  0.00    -0.163 C  
HETATM   12  O   UNL     1      -8.569   7.429  67.322  1.00  0.00    -0.117 OA 
HETATM   13  C   UNL     1      -6.849  11.110  66.753  1.00  0.00    -0.134 C  
HETATM   14  O   UNL     1     -10.592   8.236  66.848  1.00  0.00    -0.321 OA 
HETATM   15  O   UNL     1      -5.703  11.091  66.319  1.00  0.00    -0.114 OA 
HETATM   16  C   UNL     1      -7.479  12.322  67.293  1.00  0.00    -0.147 A  
HETATM   17  C   UNL     1      -6.673  13.471  67.223  1.00  0.00     0.136 A  
HETATM   18  C   UNL     1      -7.156  14.681  67.671  1.00  0.00    -0.203 A  
HETATM   19  C   UNL     1      -8.444  14.754  68.182  1.00  0.00    -0.149 A  
HETATM   20  O   UNL     1      -8.953  15.969  68.607  1.00  0.00    -0.190 OA 
HETATM   21  C   UNL     1      -8.153  17.107  68.550  1.00  0.00    -0.260 C  
HETATM   22  C   UNL     1      -8.721  18.392  69.043  1.00  0.00    -0.032 C  
HETATM   23  C   UNL     1      -6.898  17.133  68.079  1.00  0.00    -0.174 C  
HETATM   24  O   UNL     1      -8.126  19.458  69.057  1.00  0.00    -0.347 OA 
HETATM   25  C   UNL     1      -6.314  15.884  67.596  1.00  0.00    -0.164 C  
BRANCH   6  26
HETATM   26  C   UNL     1     -10.801  11.030  68.527  1.00  0.00    -0.213 C  
HETATM   27  C   UNL     1     -11.092  10.394  69.864  1.00  0.00    -0.367 C  
ENDBRANCH   6  26
ENDBRANCH   3   4
ENDBRANCH   2   3
TORSDOF 3
ENDMDL
MODEL      130
REMARK 921   NORMALIZED FREE ENERGY PREDICTED BY IDOCK:   -1.10 KCAL/MOL
REMARK 922        TOTAL FREE ENERGY PREDICTED BY IDOCK:   -1.76 KCAL/MOL
REMARK 923 INTER-LIGAND FREE ENERGY PREDICTED BY IDOCK:   -2.43 KCAL/MOL
REMARK 924 INTRA-LIGAND FREE ENERGY PREDICTED BY IDOCK:    0.67 KCAL/MOL
REMARK 927      BINDING AFFINITY PREDICTED BY RF-SCORE:    0.00 PKD
ROOT
HETATM    1  C   UNL     1     -11.321  18.551  67.887  1.00  0.00     0.645 C  
HETATM    2  C   UNL     1     -10.139  18.628  68.843  1.00  0.00    -0.357 C  
ENDROOT
BRANCH   2   3
HETATM    3  C   UNL     1     -10.000  17.334  69.655  1.00  0.00     0.209 C  
BRANCH   3   4
HETATM    4  C   UNL     1      -9.146  16.282  68.941  1.00  0.00    -0.250 A  
HETATM    5  C   UNL     1      -9.395  14.857  68.805  1.00  0.00    -0.203 A  
HETATM    6  N   UNL     1     -10.492  14.055  69.382  1.00  0.00    -0.018 NA 
HETATM    7  O   UNL     1      -5.131  16.100  66.251  1.00  0.00     0.323 OA 
HETATM    8  C   UNL     1     -10.579  12.658  69.086  1.00  0.00     0.050 C  
HETATM    9  C   UNL     1      -9.728  12.021  68.270  1.00  0.00    -0.205 C  
HETATM   10  O   UNL     1      -7.471  20.838  68.783  1.00  0.00     0.317 OA 
HETATM   11  C   UNL     1     -11.685  11.717  69.514  1.00  0.00    -0.344 C  
HETATM   12  O   UNL     1     -11.302  10.442  69.784  1.00  0.00    -0.252 OA 
HETATM   13  C   UNL     1      -8.577  12.717  67.728  1.00  0.00    -0.184 C  
HETATM   14  O   UNL     1     -12.866  12.015  69.568  1.00  0.00     0.443 OA 
HETATM   15  O   UNL     1      -7.759  12.085  67.068  1.00  0.00    -0.159 OA 
HETATM   16  C   UNL     1      -8.445  14.154  68.000  1.00  0.00    -0.171 A  
HETATM   17  C   UNL     1      -7.328  14.756  67.395  1.00  0.00    -0.214 A  
HETATM   18  C   UNL     1      -7.105  16.106  67.548  1.00  0.00    -0.191 A  
HETATM   19  C   UNL     1      -7.995  16.864  68.296  1.00  0.00    -0.211 A  
HETATM   20  O   UNL     1      -7.799  18.228  68.432  1.00  0.00    -0.286 OA 
HETATM   21  C   UNL     1      -6.687  18.824  67.844  1.00  0.00    -0.215 C  
HETATM   22  C   UNL     1      -6.490  20.288  68.036  1.00  0.00    -0.277 C  
HETATM   23  C   UNL     1      -5.772  18.175  67.110  1.00  0.00    -0.154 C  
HETATM   24  O   UNL     1      -5.557  20.932  67.582  1.00  0.00    -0.218 OA 
HETATM   25  C   UNL     1      -5.938  16.737  66.914  1.00  0.00    -0.158 C  
BRANCH   6  26
HETATM   26  C   UNL     1     -11.355  14.814  70.306  1.00  0.00    -0.231 C  
HETATM   27  C   UNL     1     -12.803  15.157  70.051  1.00  0.00    -0.121 C  
ENDBRANCH   6  26
ENDBRANCH   3   4
ENDBRANCH   2   3
TORSDOF 3
ENDMDL
MODEL      131
REMARK 921   NORMALIZED FREE ENERGY PREDICTED BY IDOCK:   -0.86 KCAL/MOL
REMARK 922        TOTAL FREE ENERGY PREDICTED BY IDOCK:   -1.48 KCAL/MOL
REMARK 923 INTER-LIGAND FREE ENERGY PREDICTED BY IDOCK:   -2.61 KCAL/MOL
REMARK 924 INTRA-LIGAND FREE ENERGY PREDICTED BY IDOCK:    1.13 KCAL/MOL
REMARK 927      BINDING AFFINITY PREDICTED BY RF-SCORE:    0.00 PKD
ROOT
HETATM    1  C   UNL     1     -10.211  10.098  68.949  1.00  0.00    -0.213 C  
HETATM    2  C   UNL     1      -9.229  11.235  68.712  1.00  0.00    -0.133 C  
ENDROOT
BRANCH   2   3
HETATM    3  C   UNL     1      -8.083  10.795  67.793  1.00  0.00    -0.111 C  
BRANCH   3   4
HETATM    4  C   UNL     1      -8.574  10.363  66.408  1.00  0.00    -0.137 A  
HETATM    5  C   UNL     1      -8.152   9.222  65.614  1.00  0.00    -0.112 A  
HETATM    6  N   UNL     1      -7.095   8.235  65.912  1.00  0.00    -0.070 NA 
HETATM    7  O   UNL     1     -11.904  11.709  63.170  1.00  0.00    -0.274 OA 
HETATM    8  C   UNL     1      -6.866   7.149  65.009  1.00  0.00    -0.047 C  
HETATM    9  C   UNL     1      -7.591   6.944  63.900  1.00  0.00    -0.109 C  
HETATM   10  O   UNL     1     -10.670  14.334  68.261  1.00  0.00    -0.237 OA 
HETATM   11  C   UNL     1      -5.895   6.005  65.208  1.00  0.00    -0.025 C  
HETATM   12  O   UNL     1      -5.303   5.531  64.080  1.00  0.00    -0.012 OA 
HETATM   13  C   UNL     1      -8.593   7.911  63.494  1.00  0.00     0.354 C  
HETATM   14  O   UNL     1      -5.669   5.466  66.278  1.00  0.00    -0.016 OA 
HETATM   15  O   UNL     1      -9.170   7.753  62.424  1.00  0.00     0.610 OA 
HETATM   16  C   UNL     1      -8.868   9.042  64.390  1.00  0.00    -0.107 A  
HETATM   17  C   UNL     1      -9.887   9.899  63.941  1.00  0.00     0.223 A  
HETATM   18  C   UNL     1     -10.262  10.983  64.703  1.00  0.00    -0.392 A  
HETATM   19  C   UNL     1      -9.631  11.214  65.918  1.00  0.00    -0.218 A  
HETATM   20  O   UNL     1     -10.019  12.282  66.708  1.00  0.00    -0.201 OA 
HETATM   21  C   UNL     1     -11.021  13.140  66.260  1.00  0.00    -0.280 C  
HETATM   22  C   UNL     1     -11.392  14.297  67.122  1.00  0.00    -0.337 C  
HETATM   23  C   UNL     1     -11.681  13.002  65.102  1.00  0.00    -0.379 C  
HETATM   24  O   UNL     1     -12.245  15.126  66.845  1.00  0.00     0.082 OA 
HETATM   25  C   UNL     1     -11.329  11.879  64.235  1.00  0.00    -0.353 C  
BRANCH   6  26
HETATM   26  C   UNL     1      -6.310   8.556  67.119  1.00  0.00    -0.057 C  
HETATM   27  C   UNL     1      -6.610   8.042  68.506  1.00  0.00    -0.058 C  
ENDBRANCH   6  26
ENDBRANCH   3   4
ENDBRANCH   2   3
TORSDOF 3
ENDMDL
MODEL      132
REMARK 921   NORMALIZED FREE ENERGY PREDICTED BY IDOCK:   -0.18 KCAL/MOL
REMARK 922        TOTAL FREE ENERGY PREDICTED BY IDOCK:   -0.69 KCAL/MOL
REMARK 923 INTER-LIGAND FREE ENERGY PREDICTED BY IDOCK:   -2.87 KCAL/MOL
REMARK 924 INTRA-LIGAND FREE ENERGY PREDICTED BY IDOCK:    2.19 KCAL/MOL
REMARK 927      BINDING AFFINITY PREDICTED BY RF-SCORE:    0.00 PKD
ROOT
HETATM    1  C   UNL     1     -11.409  18.536  68.022  1.00  0.00     0.754 C  
HETATM    2  C   UNL     1     -10.249  18.698  68.994  1.00  0.00    -0.176 C  
ENDROOT
BRANCH   2   3
HETATM    3  C   UNL     1     -10.194  17.531  69.989  1.00  0.00     0.681 C  
BRANCH   3   4
HETATM    4  C   UNL     1     -10.394  16.172  69.311  1.00  0.00    -0.265 A  
HETATM    5  C   UNL     1     -11.205  15.051  69.755  1.00  0.00    -0.277 A  
HETATM    6  N   UNL     1     -11.979  14.914  71.005  1.00  0.00    -0.300 NA 
HETATM    7  O   UNL     1      -9.102  13.946  65.216  1.00  0.00     0.665 OA 
HETATM    8  C   UNL     1     -12.754  13.733  71.231  1.00  0.00    -0.371 C  
HETATM    9  C   UNL     1     -12.854  12.733  70.345  1.00  0.00     0.144 C  
HETATM   10  O   UNL     1      -7.504  19.302  66.978  1.00  0.00    -0.219 OA 
HETATM   11  C   UNL     1     -13.675  13.474  72.405  1.00  0.00    -0.602 C  
HETATM   12  O   UNL     1     -13.738  12.185  72.831  1.00  0.00     0.192 OA 
HETATM   13  C   UNL     1     -12.060  12.752  69.130  1.00  0.00    -0.158 C  
HETATM   14  O   UNL     1     -14.381  14.317  72.930  1.00  0.00    -0.301 OA 
HETATM   15  O   UNL     1     -12.092  11.779  68.386  1.00  0.00    -0.490 OA 
HETATM   16  C   UNL     1     -11.251  13.946  68.850  1.00  0.00    -0.304 A  
HETATM   17  C   UNL     1     -10.557  13.898  67.629  1.00  0.00    -0.247 A  
HETATM   18  C   UNL     1      -9.783  14.967  67.234  1.00  0.00    -0.220 A  
HETATM   19  C   UNL     1      -9.704  16.089  68.046  1.00  0.00    -0.217 A  
HETATM   20  O   UNL     1      -8.956  17.183  67.647  1.00  0.00    -0.222 OA 
HETATM   21  C   UNL     1      -8.257  17.134  66.443  1.00  0.00    -0.292 C  
HETATM   22  C   UNL     1      -7.436  18.316  66.058  1.00  0.00    -0.220 C  
HETATM   23  C   UNL     1      -8.267  16.094  65.597  1.00  0.00     1.151 C  
HETATM   24  O   UNL     1      -6.771  18.400  65.037  1.00  0.00    -0.473 OA 
HETATM   25  C   UNL     1      -9.058  14.919  65.956  1.00  0.00    -0.074 C  
BRANCH   6  26
HETATM   26  C   UNL     1     -11.780  16.030  71.948  1.00  0.00    -0.504 C  
HETATM   27  C   UNL     1     -11.913  15.928  73.448  1.00  0.00    -0.527 C  
ENDBRANCH   6  26
ENDBRANCH   3   4
ENDBRANCH   2   3
TORSDOF 3
ENDMDL
MODEL      133
REMARK 921   NORMALIZED FREE ENERGY PREDICTED BY IDOCK:   -0.03 KCAL/MOL
REMARK 922        TOTAL FREE ENERGY PREDICTED BY IDOCK:   -0.50 KCAL/MOL
REMARK 923 INTER-LIGAND FREE ENERGY PREDICTED BY IDOCK:   -1.67 KCAL/MOL
REMARK 924 INTRA-LIGAND FREE ENERGY PREDICTED BY IDOCK:    1.16 KCAL/MOL
REMARK 927      BINDING AFFINITY PREDICTED BY RF-SCORE:    0.00 PKD
ROOT
HETATM    1  C   UNL     1     -10.775  20.034  68.790  1.00  0.00     0.244 C  
HETATM    2  C   UNL     1     -10.385  19.921  70.257  1.00  0.00     0.875 C  
ENDROOT
BRANCH   2   3
HETATM    3  C   UNL     1      -9.665  18.595  70.538  1.00  0.00     2.261 C  
BRANCH   3   4
HETATM    4  C   UNL     1      -9.832  17.584  69.400  1.00  0.00     0.060 A  
HETATM    5  C   UNL     1      -9.123  17.525  68.133  1.00  0.00    -0.277 A  
HETATM    6  N   UNL     1      -8.118  18.463  67.596  1.00  0.00    -0.247 NA 
HETATM    7  O   UNL     1     -12.336  13.550  68.483  1.00  0.00    -0.223 OA 
HETATM    8  C   UNL     1      -7.502  18.194  66.333  1.00  0.00    -0.252 C  
HETATM    9  C   UNL     1      -7.758  17.099  65.604  1.00  0.00     0.617 C  
HETATM   10  O   UNL     1     -12.660  16.890  73.287  1.00  0.00     0.059 OA 
HETATM   11  C   UNL     1      -6.391  18.995  65.686  1.00  0.00    -0.251 C  
HETATM   12  O   UNL     1      -6.431  19.069  64.330  1.00  0.00    -0.415 OA 
HETATM   13  C   UNL     1      -8.791  16.170  66.020  1.00  0.00    -0.278 C  
HETATM   14  O   UNL     1      -5.465  19.507  66.290  1.00  0.00    -0.161 OA 
HETATM   15  O   UNL     1      -9.077  15.232  65.284  1.00  0.00     0.325 OA 
HETATM   16  C   UNL     1      -9.451  16.400  67.312  1.00  0.00    -0.231 A  
HETATM   17  C   UNL     1     -10.401  15.424  67.658  1.00  0.00    -0.262 A  
HETATM   18  C   UNL     1     -11.070  15.508  68.858  1.00  0.00    -0.282 A  
HETATM   19  C   UNL     1     -10.792  16.558  69.722  1.00  0.00    -0.302 A  
HETATM   20  O   UNL     1     -11.436  16.637  70.945  1.00  0.00    -0.214 OA 
HETATM   21  C   UNL     1     -12.387  15.678  71.285  1.00  0.00    -0.426 C  
HETATM   22  C   UNL     1     -13.082  15.810  72.595  1.00  0.00    -0.491 C  
HETATM   23  C   UNL     1     -12.726  14.634  70.515  1.00  0.00    -0.394 C  
HETATM   24  O   UNL     1     -13.939  15.045  73.011  1.00  0.00    -0.444 OA 
HETATM   25  C   UNL     1     -12.063  14.486  69.221  1.00  0.00    -0.290 C  
BRANCH   6  26
HETATM   26  C   UNL     1      -7.927  19.665  68.430  1.00  0.00    -0.322 C  
HETATM   27  C   UNL     1      -6.649  20.025  69.146  1.00  0.00    -0.345 C  
ENDBRANCH   6  26
ENDBRANCH   3   4
ENDBRANCH   2   3
TORSDOF 3
ENDMDL
MODEL      134
REMARK 921   NORMALIZED FREE ENERGY PREDICTED BY IDOCK:    0.18 KCAL/MOL
REMARK 922        TOTAL FREE ENERGY PREDICTED BY IDOCK:   -0.26 KCAL/MOL
REMARK 923 INTER-LIGAND FREE ENERGY PREDICTED BY IDOCK:   -3.42 KCAL/MOL
REMARK 924 INTRA-LIGAND FREE ENERGY PREDICTED BY IDOCK:    3.16 KCAL/MOL
REMARK 927      BINDING AFFINITY PREDICTED BY RF-SCORE:    0.00 PKD
ROOT
HETATM    1  C   UNL     1     -12.296   6.969  70.303  1.00  0.00     0.042 C  
HETATM    2  C   UNL     1     -11.251   7.072  71.405  1.00  0.00    -0.283 C  
ENDROOT
BRANCH   2   3
HETATM    3  C   UNL     1      -9.906   6.489  70.949  1.00  0.00    -0.201 C  
BRANCH   3   4
HETATM    4  C   UNL     1      -9.380   7.156  69.674  1.00  0.00    -0.149 A  
HETATM    5  C   UNL     1      -8.522   6.591  68.647  1.00  0.00    -0.121 A  
HETATM    6  N   UNL     1      -7.885   5.260  68.610  1.00  0.00    -0.086 NA 
HETATM    7  O   UNL     1      -9.865  11.355  67.324  1.00  0.00    -0.187 OA 
HETATM    8  C   UNL     1      -7.105   4.880  67.472  1.00  0.00    -0.066 C  
HETATM    9  C   UNL     1      -6.940   5.660  66.395  1.00  0.00    -0.060 C  
HETATM   10  O   UNL     1     -12.260   9.893  72.469  1.00  0.00     0.203 OA 
HETATM   11  C   UNL     1      -6.467   3.528  67.231  1.00  0.00    -0.037 C  
HETATM   12  O   UNL     1      -5.278   3.547  66.575  1.00  0.00    -0.011 OA 
HETATM   13  C   UNL     1      -7.464   7.013  66.386  1.00  0.00    -0.084 C  
HETATM   14  O   UNL     1      -6.973   2.461  67.531  1.00  0.00    -0.043 OA 
HETATM   15  O   UNL     1      -7.212   7.740  65.432  1.00  0.00    -0.065 OA 
HETATM   16  C   UNL     1      -8.276   7.449  67.530  1.00  0.00    -0.113 A  
HETATM   17  C   UNL     1      -8.783   8.754  67.413  1.00  0.00    -0.132 A  
HETATM   18  C   UNL     1      -9.584   9.274  68.406  1.00  0.00    -0.158 A  
HETATM   19  C   UNL     1      -9.890   8.496  69.513  1.00  0.00    -0.187 A  
HETATM   20  O   UNL     1     -10.718   8.995  70.503  1.00  0.00    -0.215 OA 
HETATM   21  C   UNL     1     -11.213  10.293  70.396  1.00  0.00    -0.332 C  
HETATM   22  C   UNL     1     -12.077  10.809  71.494  1.00  0.00    -0.102 C  
HETATM   23  C   UNL     1     -10.968  11.119  69.369  1.00  0.00    -0.298 C  
HETATM   24  O   UNL     1     -12.568  11.926  71.528  1.00  0.00    -0.291 OA 
HETATM   25  C   UNL     1     -10.117  10.639  68.283  1.00  0.00    -0.157 C  
BRANCH   6  26
HETATM   26  C   UNL     1      -8.071   4.482  69.849  1.00  0.00    -0.067 C  
HETATM   27  C   UNL     1      -9.269   3.617  70.155  1.00  0.00    -0.221 C  
ENDBRANCH   6  26
ENDBRANCH   3   4
ENDBRANCH   2   3
TORSDOF 3
ENDMDL
MODEL      135
REMARK 921   NORMALIZED FREE ENERGY PREDICTED BY IDOCK:    0.70 KCAL/MOL
REMARK 922        TOTAL FREE ENERGY PREDICTED BY IDOCK:    0.34 KCAL/MOL
REMARK 923 INTER-LIGAND FREE ENERGY PREDICTED BY IDOCK:   -1.25 KCAL/MOL
REMARK 924 INTRA-LIGAND FREE ENERGY PREDICTED BY IDOCK:    1.60 KCAL/MOL
REMARK 927      BINDING AFFINITY PREDICTED BY RF-SCORE:    0.00 PKD
ROOT
HETATM    1  C   UNL     1      -8.913   7.331  70.915  1.00  0.00    -0.150 C  
HETATM    2  C   UNL     1      -8.483   6.451  69.750  1.00  0.00    -0.127 C  
ENDROOT
BRANCH   2   3
HETATM    3  C   UNL     1      -6.974   6.571  69.493  1.00  0.00    -0.067 C  
BRANCH   3   4
HETATM    4  C   UNL     1      -6.653   7.481  68.304  1.00  0.00    -0.050 A  
HETATM    5  C   UNL     1      -6.327   8.897  68.311  1.00  0.00    -0.055 A  
HETATM    6  N   UNL     1      -6.296   9.828  69.457  1.00  0.00    -0.044 NA 
HETATM    7  O   UNL     1      -6.049   7.104  63.520  1.00  0.00    -0.043 OA 
HETATM    8  C   UNL     1      -5.902  11.188  69.253  1.00  0.00    -0.044 C  
HETATM    9  C   UNL     1      -5.516  11.676  68.066  1.00  0.00    -0.045 C  
HETATM   10  O   UNL     1      -7.562   2.831  67.234  1.00  0.00    -0.067 OA 
HETATM   11  C   UNL     1      -5.725  12.242  70.325  1.00  0.00    -0.167 C  
HETATM   12  O   UNL     1      -6.055  13.510  69.965  1.00  0.00    -0.134 OA 
HETATM   13  C   UNL     1      -5.597  10.850  66.876  1.00  0.00    -0.065 C  
HETATM   14  O   UNL     1      -5.262  12.032  71.433  1.00  0.00    -0.269 OA 
HETATM   15  O   UNL     1      -5.335  11.351  65.788  1.00  0.00    -0.267 OA 
HETATM   16  C   UNL     1      -5.992   9.444  67.034  1.00  0.00    -0.056 A  
HETATM   17  C   UNL     1      -5.994   8.707  65.837  1.00  0.00    -0.048 A  
HETATM   18  C   UNL     1      -6.318   7.369  65.851  1.00  0.00    -0.041 A  
HETATM   19  C   UNL     1      -6.634   6.757  67.056  1.00  0.00    -0.044 A  
HETATM   20  O   UNL     1      -6.932   5.406  67.090  1.00  0.00    -0.062 OA 
HETATM   21  C   UNL     1      -6.946   4.676  65.903  1.00  0.00    -0.063 C  
HETATM   22  C   UNL     1      -7.301   3.231  65.971  1.00  0.00    -0.072 C  
HETATM   23  C   UNL     1      -6.662   5.180  64.694  1.00  0.00    -0.047 C  
HETATM   24  O   UNL     1      -7.359   2.481  65.009  1.00  0.00    -0.060 OA 
HETATM   25  C   UNL     1      -6.318   6.597  64.600  1.00  0.00    -0.038 C  
BRANCH   6  26
HETATM   26  C   UNL     1      -6.780   9.231  70.716  1.00  0.00    -0.094 C  
HETATM   27  C   UNL     1      -8.023   9.664  71.455  1.00  0.00     0.967 C  
ENDBRANCH   6  26
ENDBRANCH   3   4
ENDBRANCH   2   3
TORSDOF 3
ENDMDL
MODEL      136
REMARK 921   NORMALIZED FREE ENERGY PREDICTED BY IDOCK:    1.84 KCAL/MOL
REMARK 922        TOTAL FREE ENERGY PREDICTED BY IDOCK:    1.69 KCAL/MOL
REMARK 923 INTER-LIGAND FREE ENERGY PREDICTED BY IDOCK:   -1.90 KCAL/MOL
REMARK 924 INTRA-LIGAND FREE ENERGY PREDICTED BY IDOCK:    3.59 KCAL/MOL
REMARK 927      BINDING AFFINITY PREDICTED BY RF-SCORE:    0.00 PKD
ROOT
HETATM    1  C   UNL     1     -10.263   5.390  69.792  1.00  0.00    -0.348 C  
HETATM    2  C   UNL     1     -10.024   4.823  68.400  1.00  0.00    -0.156 C  
ENDROOT
BRANCH   2   3
HETATM    3  C   UNL     1      -8.928   5.605  67.664  1.00  0.00    -0.107 C  
BRANCH   3   4
HETATM    4  C   UNL     1      -8.125   6.512  68.601  1.00  0.00    -0.118 A  
HETATM    5  C   UNL     1      -7.738   7.898  68.405  1.00  0.00    -0.114 A  
HETATM    6  N   UNL     1      -7.957   8.756  67.223  1.00  0.00    -0.097 NA 
HETATM    7  O   UNL     1      -6.184   6.330  73.027  1.00  0.00    -0.053 OA 
HETATM    8  C   UNL     1      -7.532  10.122  67.251  1.00  0.00    -0.091 C  
HETATM    9  C   UNL     1      -6.963  10.698  68.320  1.00  0.00    -0.072 C  
HETATM   10  O   UNL     1      -8.957   2.005  70.208  1.00  0.00    -0.069 OA 
HETATM   11  C   UNL     1      -7.764  11.158  66.171  1.00  0.00    -0.053 C  
HETATM   12  O   UNL     1      -6.773  12.073  66.010  1.00  0.00     0.541 OA 
HETATM   13  C   UNL     1      -6.638   9.904  69.490  1.00  0.00    -0.051 C  
HETATM   14  O   UNL     1      -8.780  11.247  65.504  1.00  0.00    -0.148 OA 
HETATM   15  O   UNL     1      -6.026  10.431  70.412  1.00  0.00    -0.079 OA 
HETATM   16  C   UNL     1      -7.058   8.497  69.512  1.00  0.00    -0.052 A  
HETATM   17  C   UNL     1      -6.747   7.820  70.703  1.00  0.00    -0.038 A  
HETATM   18  C   UNL     1      -7.112   6.501  70.863  1.00  0.00    -0.069 A  
HETATM   19  C   UNL     1      -7.796   5.855  69.843  1.00  0.00    -0.096 A  
HETATM   20  O   UNL     1      -8.196   4.539  70.002  1.00  0.00    -0.066 OA 
HETATM   21  C   UNL     1      -7.878   3.862  71.177  1.00  0.00    -0.063 C  
HETATM   22  C   UNL     1      -8.297   2.439  71.303  1.00  0.00    -0.057 C  
HETATM   23  C   UNL     1      -7.217   4.400  72.212  1.00  0.00    -0.063 C  
HETATM   24  O   UNL     1      -8.076   1.730  72.273  1.00  0.00    -0.047 OA 
HETATM   25  C   UNL     1      -6.788   5.793  72.109  1.00  0.00    -0.073 C  
BRANCH   6  26
HETATM   26  C   UNL     1      -8.541   8.040  66.074  1.00  0.00    -0.145 C  
HETATM   27  C   UNL     1      -7.773   7.589  64.856  1.00  0.00    -0.115 C  
ENDBRANCH   6  26
ENDBRANCH   3   4
ENDBRANCH   2   3
TORSDOF 3
ENDMDL
MODEL      137
REMARK 921   NORMALIZED FREE ENERGY PREDICTED BY IDOCK:    3.05 KCAL/MOL
REMARK 922        TOTAL FREE ENERGY PREDICTED BY IDOCK:    3.10 KCAL/MOL
REMARK 923 INTER-LIGAND FREE ENERGY PREDICTED BY IDOCK:   -2.07 KCAL/MOL
REMARK 924 INTRA-LIGAND FREE ENERGY PREDICTED BY IDOCK:    5.17 KCAL/MOL
REMARK 927      BINDING AFFINITY PREDICTED BY RF-SCORE:    0.00 PKD
ROOT
HETATM    1  C   UNL     1      -9.658   7.248  71.014  1.00  0.00    -0.158 C  
HETATM    2  C   UNL     1      -8.952   8.455  70.414  1.00  0.00    -0.152 C  
ENDROOT
BRANCH   2   3
HETATM    3  C   UNL     1      -8.618   8.222  68.934  1.00  0.00    -0.132 C  
BRANCH   3   4
HETATM    4  C   UNL     1      -8.005   6.842  68.681  1.00  0.00    -0.119 A  
HETATM    5  C   UNL     1      -7.919   6.106  67.432  1.00  0.00    -0.105 A  
HETATM    6  N   UNL     1      -8.465   6.472  66.110  1.00  0.00    -0.132 NA 
HETATM    7  O   UNL     1      -5.573   3.459  71.137  1.00  0.00    -0.011 OA 
HETATM    8  C   UNL     1      -8.228   5.619  64.985  1.00  0.00    -0.137 C  
HETATM    9  C   UNL     1      -7.494   4.499  65.049  1.00  0.00    -0.073 C  
HETATM   10  O   UNL     1      -7.742   8.477  73.247  1.00  0.00    -0.339 OA 
HETATM   11  C   UNL     1      -8.631   5.890  63.551  1.00  0.00     0.206 C  
HETATM   12  O   UNL     1      -8.982   4.800  62.821  1.00  0.00    -0.130 OA 
HETATM   13  C   UNL     1      -6.992   4.027  66.325  1.00  0.00    -0.063 C  
HETATM   14  O   UNL     1      -8.600   6.987  63.019  1.00  0.00     0.190 OA 
HETATM   15  O   UNL     1      -6.412   2.948  66.371  1.00  0.00    -0.031 OA 
HETATM   16  C   UNL     1      -7.206   4.869  67.509  1.00  0.00    -0.070 A  
HETATM   17  C   UNL     1      -6.642   4.358  68.690  1.00  0.00    -0.045 A  
HETATM   18  C   UNL     1      -6.747   5.067  69.867  1.00  0.00    -0.040 A  
HETATM   19  C   UNL     1      -7.405   6.288  69.871  1.00  0.00    -0.079 A  
HETATM   20  O   UNL     1      -7.491   7.025  71.040  1.00  0.00    -0.079 OA 
HETATM   21  C   UNL     1      -6.943   6.515  72.215  1.00  0.00    -0.073 C  
HETATM   22  C   UNL     1      -7.080   7.320  73.461  1.00  0.00    -0.072 C  
HETATM   23  C   UNL     1      -6.297   5.345  72.309  1.00  0.00    -0.046 C  
HETATM   24  O   UNL     1      -6.655   6.987  74.556  1.00  0.00    -0.086 OA 
HETATM   25  C   UNL     1      -6.156   4.534  71.103  1.00  0.00    -0.018 C  
BRANCH   6  26
HETATM   26  C   UNL     1      -9.300   7.688  66.131  1.00  0.00    -0.080 C  
HETATM   27  C   UNL     1      -9.068   8.910  65.278  1.00  0.00    -0.196 C  
ENDBRANCH   6  26
ENDBRANCH   3   4
ENDBRANCH   2   3
TORSDOF 3
ENDMDL
MODEL      138
REMARK 921   NORMALIZED FREE ENERGY PREDICTED BY IDOCK:    3.22 KCAL/MOL
REMARK 922        TOTAL FREE ENERGY PREDICTED BY IDOCK:    3.31 KCAL/MOL
REMARK 923 INTER-LIGAND FREE ENERGY PREDICTED BY IDOCK:    1.54 KCAL/MOL
REMARK 924 INTRA-LIGAND FREE ENERGY PREDICTED BY IDOCK:    1.77 KCAL/MOL
REMARK 927      BINDING AFFINITY PREDICTED BY RF-SCORE:    0.00 PKD
ROOT
HETATM    1  C   UNL     1     -12.698  16.081  68.177  1.00  0.00     2.002 C  
HETATM    2  C   UNL     1     -12.272  14.986  69.144  1.00  0.00    -0.186 C  
ENDROOT
BRANCH   2   3
HETATM    3  C   UNL     1     -10.838  15.214  69.641  1.00  0.00    -0.297 C  
BRANCH   3   4
HETATM    4  C   UNL     1      -9.882  14.102  69.201  1.00  0.00     0.054 A  
HETATM    5  C   UNL     1     -10.050  12.664  69.324  1.00  0.00     0.504 A  
HETATM    6  N   UNL     1     -11.150  11.918  69.967  1.00  0.00     0.132 NA 
HETATM    7  O   UNL     1      -5.663  13.668  66.877  1.00  0.00     0.245 OA 
HETATM    8  C   UNL     1     -11.146  10.487  69.939  1.00  0.00    -0.307 C  
HETATM    9  C   UNL     1     -10.204   9.763  69.320  1.00  0.00    -0.216 C  
HETATM   10  O   UNL     1      -8.420  18.643  68.290  1.00  0.00    -0.304 OA 
HETATM   11  C   UNL     1     -12.236   9.576  70.462  1.00  0.00    -0.034 C  
HETATM   12  O   UNL     1     -11.815   8.400  70.997  1.00  0.00    -0.282 OA 
HETATM   13  C   UNL     1      -9.048  10.415  68.735  1.00  0.00    -0.165 C  
HETATM   14  O   UNL     1     -13.430   9.805  70.377  1.00  0.00     0.028 OA 
HETATM   15  O   UNL     1      -8.151   9.723  68.266  1.00  0.00    -0.103 OA 
HETATM   16  C   UNL     1      -9.007  11.883  68.735  1.00  0.00     0.045 A  
HETATM   17  C   UNL     1      -7.876  12.429  68.104  1.00  0.00    -0.146 A  
HETATM   18  C   UNL     1      -7.730  13.796  68.011  1.00  0.00    -0.152 A  
HETATM   19  C   UNL     1      -8.712  14.623  68.537  1.00  0.00    -0.176 A  
HETATM   20  O   UNL     1      -8.594  15.998  68.423  1.00  0.00    -0.173 OA 
HETATM   21  C   UNL     1      -7.468  16.541  67.809  1.00  0.00    -0.145 C  
HETATM   22  C   UNL     1      -7.358  18.025  67.730  1.00  0.00    -0.213 C  
HETATM   23  C   UNL     1      -6.468  15.824  67.278  1.00  0.00    -0.139 C  
HETATM   24  O   UNL     1      -6.423  18.629  67.227  1.00  0.00    -0.192 OA 
HETATM   25  C   UNL     1      -6.549  14.367  67.349  1.00  0.00     0.071 C  
BRANCH   6  26
HETATM   26  C   UNL     1     -12.119  12.781  70.668  1.00  0.00    -0.228 C  
HETATM   27  C   UNL     1     -13.569  12.941  70.283  1.00  0.00     1.915 C  
ENDBRANCH   6  26
ENDBRANCH   3   4
ENDBRANCH   2   3
TORSDOF 3
ENDMDL
MODEL      139
REMARK 921   NORMALIZED FREE ENERGY PREDICTED BY IDOCK:    4.67 KCAL/MOL
REMARK 922        TOTAL FREE ENERGY PREDICTED BY IDOCK:    5.02 KCAL/MOL
REMARK 923 INTER-LIGAND FREE ENERGY PREDICTED BY IDOCK:    3.07 KCAL/MOL
REMARK 924 INTRA-LIGAND FREE ENERGY PREDICTED BY IDOCK:    1.94 KCAL/MOL
REMARK 927      BINDING AFFINITY PREDICTED BY RF-SCORE:    0.00 PKD
ROOT
HETATM    1  C   UNL     1      -7.276   6.969  70.683  1.00  0.00    -0.068 C  
HETATM    2  C   UNL     1      -7.515   8.285  71.409  1.00  0.00    -0.089 C  
ENDROOT
BRANCH   2   3
HETATM    3  C   UNL     1      -8.732   9.022  70.834  1.00  0.00    -0.280 C  
BRANCH   3   4
HETATM    4  C   UNL     1      -8.916   8.771  69.334  1.00  0.00    -0.145 A  
HETATM    5  C   UNL     1      -8.623   9.663  68.226  1.00  0.00    -0.119 A  
HETATM    6  N   UNL     1      -8.145  11.059  68.271  1.00  0.00    -0.121 NA 
HETATM    7  O   UNL     1     -10.260   5.162  66.408  1.00  0.00    -0.214 OA 
HETATM    8  C   UNL     1      -7.873  11.754  67.050  1.00  0.00    -0.161 C  
HETATM    9  C   UNL     1      -7.993  11.194  65.838  1.00  0.00     0.010 C  
HETATM   10  O   UNL     1     -10.146   5.099  72.267  1.00  0.00    -0.179 OA 
HETATM   11  C   UNL     1      -7.290  13.145  66.919  1.00  0.00     0.450 C  
HETATM   12  O   UNL     1      -7.744  13.877  65.868  1.00  0.00     2.281 OA 
HETATM   13  C   UNL     1      -8.535   9.855  65.704  1.00  0.00    -0.144 C  
HETATM   14  O   UNL     1      -6.424  13.604  67.643  1.00  0.00    -0.161 OA 
HETATM   15  O   UNL     1      -8.730   9.405  64.580  1.00  0.00    -0.187 OA 
HETATM   16  C   UNL     1      -8.826   9.098  66.928  1.00  0.00    -0.137 A  
HETATM   17  C   UNL     1      -9.299   7.794  66.703  1.00  0.00    -0.238 A  
HETATM   18  C   UNL     1      -9.582   6.970  67.769  1.00  0.00    -0.138 A  
HETATM   19  C   UNL     1      -9.390   7.435  69.061  1.00  0.00    -0.145 A  
HETATM   20  O   UNL     1      -9.642   6.607  70.141  1.00  0.00    -0.161 OA 
HETATM   21  C   UNL     1     -10.122   5.318  69.921  1.00  0.00    -0.263 C  
HETATM   22  C   UNL     1     -10.411   4.464  71.106  1.00  0.00     0.162 C  
HETATM   23  C   UNL     1     -10.344   4.784  68.712  1.00  0.00     0.028 C  
HETATM   24  O   UNL     1     -10.841   3.322  71.054  1.00  0.00     1.426 OA 
HETATM   25  C   UNL     1     -10.075   5.605  67.533  1.00  0.00    -0.174 C  
BRANCH   6  26
HETATM   26  C   UNL     1      -8.085  11.620  69.634  1.00  0.00     0.972 C  
HETATM   27  C   UNL     1      -6.824  12.070  70.329  1.00  0.00     0.870 C  
ENDBRANCH   6  26
ENDBRANCH   3   4
ENDBRANCH   2   3
TORSDOF 3
ENDMDL
MODEL      140
REMARK 921   NORMALIZED FREE ENERGY PREDICTED BY IDOCK:    6.33 KCAL/MOL
REMARK 922        TOTAL FREE ENERGY PREDICTED BY IDOCK:    6.97 KCAL/MOL
REMARK 923 INTER-LIGAND FREE ENERGY PREDICTED BY IDOCK:    1.47 KCAL/MOL
REMARK 924 INTRA-LIGAND FREE ENERGY PREDICTED BY IDOCK:    5.50 KCAL/MOL
REMARK 927      BINDING AFFINITY PREDICTED BY RF-SCORE:    0.00 PKD
ROOT
HETATM    1  C   UNL     1      -9.309   7.006  72.221  1.00  0.00    -0.150 C  
HETATM    2  C   UNL     1      -8.234   7.648  73.085  1.00  0.00    -0.177 C  
ENDROOT
BRANCH   2   3
HETATM    3  C   UNL     1      -7.021   8.064  72.242  1.00  0.00    -0.089 C  
BRANCH   3   4
HETATM    4  C   UNL     1      -7.378   8.281  70.769  1.00  0.00    -0.056 A  
HETATM    5  C   UNL     1      -7.278   9.500  69.985  1.00  0.00    -0.101 A  
HETATM    6  N   UNL     1      -6.878  10.850  70.430  1.00  0.00    -0.206 NA 
HETATM    7  O   UNL     1      -8.875   5.667  66.986  1.00  0.00    -0.112 OA 
HETATM    8  C   UNL     1      -6.802  11.916  69.478  1.00  0.00    -0.004 C  
HETATM    9  C   UNL     1      -7.042  11.756  68.170  1.00  0.00    -0.079 C  
HETATM   10  O   UNL     1      -8.019   3.776  72.466  1.00  0.00    -0.071 OA 
HETATM   11  C   UNL     1      -6.320  13.326  69.745  1.00  0.00    -0.073 C  
HETATM   12  O   UNL     1      -6.943  14.305  69.040  1.00  0.00    -0.102 OA 
HETATM   13  C   UNL     1      -7.520  10.483  67.665  1.00  0.00    -0.092 C  
HETATM   14  O   UNL     1      -5.396  13.613  70.487  1.00  0.00    -0.105 OA 
HETATM   15  O   UNL     1      -7.830  10.393  66.482  1.00  0.00    -0.115 OA 
HETATM   16  C   UNL     1      -7.611   9.356  68.602  1.00  0.00    -0.080 A  
HETATM   17  C   UNL     1      -8.034   8.151  68.016  1.00  0.00    -0.127 A  
HETATM   18  C   UNL     1      -8.134   7.010  68.781  1.00  0.00    -0.121 A  
HETATM   19  C   UNL     1      -7.806   7.061  70.129  1.00  0.00    -0.109 A  
HETATM   20  O   UNL     1      -7.873   5.916  70.902  1.00  0.00    -0.098 OA 
HETATM   21  C   UNL     1      -8.303   4.722  70.327  1.00  0.00    -0.079 C  
HETATM   22  C   UNL     1      -8.392   3.515  71.195  1.00  0.00    -0.067 C  
HETATM   23  C   UNL     1      -8.646   4.577  69.039  1.00  0.00    -0.102 C  
HETATM   24  O   UNL     1      -8.761   2.413  70.821  1.00  0.00    -0.054 OA 
HETATM   25  C   UNL     1      -8.575   5.748  68.169  1.00  0.00    -0.108 C  
BRANCH   6  26
HETATM   26  C   UNL     1      -6.678  10.956  71.888  1.00  0.00     3.312 C  
HETATM   27  C   UNL     1      -5.869   9.994  72.722  1.00  0.00     0.633 C  
ENDBRANCH   6  26
ENDBRANCH   3   4
ENDBRANCH   2   3
TORSDOF 3
ENDMDL
MODEL      141
REMARK 921   NORMALIZED FREE ENERGY PREDICTED BY IDOCK:    6.85 KCAL/MOL
REMARK 922        TOTAL FREE ENERGY PREDICTED BY IDOCK:    7.58 KCAL/MOL
REMARK 923 INTER-LIGAND FREE ENERGY PREDICTED BY IDOCK:    5.27 KCAL/MOL
REMARK 924 INTRA-LIGAND FREE ENERGY PREDICTED BY IDOCK:    2.30 KCAL/MOL
REMARK 927      BINDING AFFINITY PREDICTED BY RF-SCORE:    0.00 PKD
ROOT
HETATM    1  C   UNL     1      -6.901  15.144  65.832  1.00  0.00     5.327 C  
HETATM    2  C   UNL     1      -6.285  14.187  66.842  1.00  0.00     1.575 C  
ENDROOT
BRANCH   2   3
HETATM    3  C   UNL     1      -6.843  12.768  66.671  1.00  0.00     0.996 C  
BRANCH   3   4
HETATM    4  C   UNL     1      -6.650  11.907  67.923  1.00  0.00    -0.075 A  
HETATM    5  C   UNL     1      -6.810  10.470  68.065  1.00  0.00    -0.073 A  
HETATM    6  N   UNL     1      -7.266   9.491  67.059  1.00  0.00    -0.086 NA 
HETATM    7  O   UNL     1      -5.205  12.459  72.505  1.00  0.00    -0.357 OA 
HETATM    8  C   UNL     1      -7.309   8.101  67.393  1.00  0.00    -0.089 C  
HETATM    9  C   UNL     1      -6.920   7.613  68.579  1.00  0.00    -0.072 C  
HETATM   10  O   UNL     1      -5.813  16.661  68.465  1.00  0.00    -0.121 OA 
HETATM   11  C   UNL     1      -7.658   6.962  66.457  1.00  0.00    -0.089 C  
HETATM   12  O   UNL     1      -8.322   5.919  67.020  1.00  0.00    -0.105 OA 
HETATM   13  C   UNL     1      -6.537   8.514  69.649  1.00  0.00    -0.040 C  
HETATM   14  O   UNL     1      -7.334   6.907  65.284  1.00  0.00    -0.076 OA 
HETATM   15  O   UNL     1      -6.283   8.048  70.754  1.00  0.00    -0.033 OA 
HETATM   16  C   UNL     1      -6.472   9.952  69.354  1.00  0.00    -0.046 A  
HETATM   17  C   UNL     1      -6.044  10.743  70.433  1.00  0.00    -0.135 A  
HETATM   18  C   UNL     1      -5.912  12.106  70.280  1.00  0.00    -0.137 A  
HETATM   19  C   UNL     1      -6.199  12.684  69.051  1.00  0.00    -0.091 A  
HETATM   20  O   UNL     1      -6.042  14.048  68.874  1.00  0.00    -0.080 OA 
HETATM   21  C   UNL     1      -5.629  14.837  69.946  1.00  0.00    -0.105 C  
HETATM   22  C   UNL     1      -5.500  16.304  69.729  1.00  0.00    -0.148 C  
HETATM   23  C   UNL     1      -5.336  14.370  71.168  1.00  0.00    -0.158 C  
HETATM   24  O   UNL     1      -5.156  17.108  70.583  1.00  0.00    -0.232 OA 
HETATM   25  C   UNL     1      -5.463  12.934  71.408  1.00  0.00    -0.072 C  
BRANCH   6  26
HETATM   26  C   UNL     1      -7.723  10.108  65.799  1.00  0.00    -0.136 C  
HETATM   27  C   UNL     1      -6.894  10.225  64.544  1.00  0.00    -0.069 C  
ENDBRANCH   6  26
ENDBRANCH   3   4
ENDBRANCH   2   3
TORSDOF 3
ENDMDL
MODEL      142
REMARK 921   NORMALIZED FREE ENERGY PREDICTED BY IDOCK:    8.53 KCAL/MOL
REMARK 922        TOTAL FREE ENERGY PREDICTED BY IDOCK:    9.55 KCAL/MOL
REMARK 923 INTER-LIGAND FREE ENERGY PREDICTED BY IDOCK:    9.22 KCAL/MOL
REMARK 924 INTRA-LIGAND FREE ENERGY PREDICTED BY IDOCK:    0.33 KCAL/MOL
REMARK 927      BINDING AFFINITY PREDICTED BY RF-SCORE:    0.00 PKD
ROOT
HETATM    1  C   UNL     1      -9.837  12.987  70.115  1.00  0.00     3.160 C  
HETATM    2  C   UNL     1      -9.904  14.386  69.520  1.00  0.00     0.246 C  
ENDROOT
BRANCH   2   3
HETATM    3  C   UNL     1     -11.232  14.610  68.784  1.00  0.00    -0.285 C  
BRANCH   3   4
HETATM    4  C   UNL     1     -11.148  15.741  67.754  1.00  0.00    -0.313 A  
HETATM    5  C   UNL     1     -10.828  17.141  67.974  1.00  0.00    -0.317 A  
HETATM    6  N   UNL     1     -10.575  17.837  69.251  1.00  0.00    -0.025 NA 
HETATM    7  O   UNL     1     -11.486  16.304  62.963  1.00  0.00     1.485 OA 
HETATM    8  C   UNL     1     -10.229  19.226  69.243  1.00  0.00    -0.009 C  
HETATM    9  C   UNL     1     -10.081  19.945  68.122  1.00  0.00    -0.569 C  
HETATM   10  O   UNL     1     -12.247  11.348  65.997  1.00  0.00     0.298 OA 
HETATM   11  C   UNL     1      -9.846  20.063  70.446  1.00  0.00     1.013 C  
HETATM   12  O   UNL     1     -10.241  21.362  70.408  1.00  0.00     1.896 OA 
HETATM   13  C   UNL     1     -10.391  19.357  66.832  1.00  0.00    -0.437 C  
HETATM   14  O   UNL     1      -9.177  19.663  71.383  1.00  0.00     2.255 OA 
HETATM   15  O   UNL     1     -10.346  20.066  65.832  1.00  0.00    -0.485 OA 
HETATM   16  C   UNL     1     -10.747  17.933  66.787  1.00  0.00    -0.157 A  
HETATM   17  C   UNL     1     -10.982  17.438  65.493  1.00  0.00     0.133 A  
HETATM   18  C   UNL     1     -11.297  16.110  65.309  1.00  0.00     0.060 A  
HETATM   19  C   UNL     1     -11.372  15.269  66.410  1.00  0.00    -0.161 A  
HETATM   20  O   UNL     1     -11.658  13.925  66.237  1.00  0.00    -0.337 OA 
HETATM   21  C   UNL     1     -11.902  13.434  64.956  1.00  0.00    -0.352 C  
HETATM   22  C   UNL     1     -12.237  11.991  64.809  1.00  0.00    -0.156 C  
HETATM   23  C   UNL     1     -11.859  14.170  63.837  1.00  0.00    -0.211 C  
HETATM   24  O   UNL     1     -12.480  11.435  63.749  1.00  0.00    -0.064 OA 
HETATM   25  C   UNL     1     -11.540  15.591  63.955  1.00  0.00     0.093 C  
BRANCH   6  26
HETATM   26  C   UNL     1     -10.805  16.995  70.439  1.00  0.00     0.493 C  
HETATM   27  C   UNL     1     -11.561  17.426  71.672  1.00  0.00     1.967 C  
ENDBRANCH   6  26
ENDBRANCH   3   4
ENDBRANCH   2   3
TORSDOF 3
ENDMDL
MODEL      143
REMARK 921   NORMALIZED FREE ENERGY PREDICTED BY IDOCK:    9.54 KCAL/MOL
REMARK 922        TOTAL FREE ENERGY PREDICTED BY IDOCK:   10.74 KCAL/MOL
REMARK 923 INTER-LIGAND FREE ENERGY PREDICTED BY IDOCK:    6.27 KCAL/MOL
REMARK 924 INTRA-LIGAND FREE ENERGY PREDICTED BY IDOCK:    4.47 KCAL/MOL
REMARK 927      BINDING AFFINITY PREDICTED BY RF-SCORE:    0.00 PKD
ROOT
HETATM    1  C   UNL     1     -13.199  15.267  69.984  1.00  0.00     0.206 C  
HETATM    2  C   UNL     1     -13.221  14.167  71.035  1.00  0.00    -0.337 C  
ENDROOT
BRANCH   2   3
HETATM    3  C   UNL     1     -12.158  13.100  70.741  1.00  0.00    -0.290 C  
BRANCH   3   4
HETATM    4  C   UNL     1     -11.068  13.604  69.791  1.00  0.00     0.006 A  
HETATM    5  C   UNL     1     -10.421  12.895  68.700  1.00  0.00    -0.213 A  
HETATM    6  N   UNL     1     -10.600  11.491  68.282  1.00  0.00    -0.191 NA 
HETATM    7  O   UNL     1      -8.666  17.704  68.890  1.00  0.00    -0.231 OA 
HETATM    8  C   UNL     1      -9.893  10.996  67.140  1.00  0.00    -0.184 C  
HETATM    9  C   UNL     1      -9.084  11.754  66.387  1.00  0.00    -0.215 C  
HETATM   10  O   UNL     1     -12.633  16.791  73.105  1.00  0.00    -0.081 OA 
HETATM   11  C   UNL     1     -10.033   9.621  66.523  1.00  0.00    -0.246 C  
HETATM   12  O   UNL     1      -8.898   9.094  65.993  1.00  0.00    -0.148 OA 
HETATM   13  C   UNL     1      -8.790  13.120  66.777  1.00  0.00    -0.132 C  
HETATM   14  O   UNL     1     -11.083   9.009  66.425  1.00  0.00     0.495 OA 
HETATM   15  O   UNL     1      -7.969  13.758  66.128  1.00  0.00     1.242 OA 
HETATM   16  C   UNL     1      -9.495  13.675  67.939  1.00  0.00    -0.213 A  
HETATM   17  C   UNL     1      -9.187  15.019  68.214  1.00  0.00    -0.184 A  
HETATM   18  C   UNL     1      -9.803  15.668  69.261  1.00  0.00    -0.269 A  
HETATM   19  C   UNL     1     -10.732  14.986  70.034  1.00  0.00    -0.192 A  
HETATM   20  O   UNL     1     -11.380  15.635  71.071  1.00  0.00    -0.324 OA 
HETATM   21  C   UNL     1     -11.068  16.963  71.352  1.00  0.00     0.830 C  
HETATM   22  C   UNL     1     -11.762  17.621  72.493  1.00  0.00     2.130 C  
HETATM   23  C   UNL     1     -10.182  17.699  70.667  1.00  0.00     2.095 C  
HETATM   24  O   UNL     1     -11.577  18.774  72.851  1.00  0.00     3.116 OA 
HETATM   25  C   UNL     1      -9.482  17.073  69.547  1.00  0.00     0.269 C  
BRANCH   6  26
HETATM   26  C   UNL     1     -11.464  10.710  69.187  1.00  0.00    -0.280 C  
HETATM   27  C   UNL     1     -10.992   9.994  70.429  1.00  0.00    -0.384 C  
ENDBRANCH   6  26
ENDBRANCH   3   4
ENDBRANCH   2   3
TORSDOF 3
ENDMDL
MODEL      144
REMARK 921   NORMALIZED FREE ENERGY PREDICTED BY IDOCK:    9.83 KCAL/MOL
REMARK 922        TOTAL FREE ENERGY PREDICTED BY IDOCK:   11.08 KCAL/MOL
REMARK 923 INTER-LIGAND FREE ENERGY PREDICTED BY IDOCK:   10.79 KCAL/MOL
REMARK 924 INTRA-LIGAND FREE ENERGY PREDICTED BY IDOCK:    0.29 KCAL/MOL
REMARK 927      BINDING AFFINITY PREDICTED BY RF-SCORE:    0.00 PKD
ROOT
HETATM    1  C   UNL     1      -5.916  13.555  71.386  1.00  0.00     0.172 C  
HETATM    2  C   UNL     1      -6.533  14.941  71.489  1.00  0.00     0.800 C  
ENDROOT
BRANCH   2   3
HETATM    3  C   UNL     1      -7.974  14.947  70.961  1.00  0.00     2.443 C  
BRANCH   3   4
HETATM    4  C   UNL     1      -8.037  14.945  69.431  1.00  0.00    -0.103 A  
HETATM    5  C   UNL     1      -8.500  13.890  68.547  1.00  0.00    -0.127 A  
HETATM    6  N   UNL     1      -8.957  12.530  68.898  1.00  0.00     0.206 NA 
HETATM    7  O   UNL     1      -7.202  17.995  65.772  1.00  0.00    -0.467 OA 
HETATM    8  C   UNL     1      -9.420  11.651  67.868  1.00  0.00    -0.181 C  
HETATM    9  C   UNL     1      -9.500  12.002  66.577  1.00  0.00    -0.234 C  
HETATM   10  O   UNL     1      -6.368  19.020  71.481  1.00  0.00     0.645 OA 
HETATM   11  C   UNL     1     -10.009  10.270  68.063  1.00  0.00    -0.153 C  
HETATM   12  O   UNL     1      -9.727   9.366  67.089  1.00  0.00    -0.156 OA 
HETATM   13  C   UNL     1      -8.994  13.289  66.138  1.00  0.00     0.239 C  
HETATM   14  O   UNL     1     -10.744   9.954  68.982  1.00  0.00    -0.210 OA 
HETATM   15  O   UNL     1      -8.986  13.544  64.938  1.00  0.00     1.393 OA 
HETATM   16  C   UNL     1      -8.513  14.230  67.158  1.00  0.00    -0.220 A  
HETATM   17  C   UNL     1      -8.090  15.468  66.647  1.00  0.00    -0.189 A  
HETATM   18  C   UNL     1      -7.642  16.450  67.503  1.00  0.00    -0.168 A  
HETATM   19  C   UNL     1      -7.620  16.207  68.869  1.00  0.00    -0.201 A  
HETATM   20  O   UNL     1      -7.202  17.196  69.742  1.00  0.00     0.128 OA 
HETATM   21  C   UNL     1      -6.770  18.420  69.238  1.00  0.00    -0.233 C  
HETATM   22  C   UNL     1      -6.297  19.451  70.203  1.00  0.00    -0.148 C  
HETATM   23  C   UNL     1      -6.749  18.744  67.937  1.00  0.00    -0.226 C  
HETATM   24  O   UNL     1      -5.887  20.559  69.895  1.00  0.00    -0.345 OA 
HETATM   25  C   UNL     1      -7.201  17.747  66.969  1.00  0.00    -0.182 C  
BRANCH   6  26
HETATM   26  C   UNL     1      -8.793  12.202  70.326  1.00  0.00     4.699 C  
HETATM   27  C   UNL     1      -8.444  10.837  70.865  1.00  0.00     3.612 C  
ENDBRANCH   6  26
ENDBRANCH   3   4
ENDBRANCH   2   3
TORSDOF 3
ENDMDL
MODEL      145
REMARK 921   NORMALIZED FREE ENERGY PREDICTED BY IDOCK:   10.00 KCAL/MOL
REMARK 922        TOTAL FREE ENERGY PREDICTED BY IDOCK:   11.28 KCAL/MOL
REMARK 923 INTER-LIGAND FREE ENERGY PREDICTED BY IDOCK:   11.18 KCAL/MOL
REMARK 924 INTRA-LIGAND FREE ENERGY PREDICTED BY IDOCK:    0.10 KCAL/MOL
REMARK 927      BINDING AFFINITY PREDICTED BY RF-SCORE:    0.00 PKD
ROOT
HETATM    1  C   UNL     1      -7.671  13.229  65.360  1.00  0.00     5.462 C  
HETATM    2  C   UNL     1      -8.428  12.170  66.147  1.00  0.00     0.241 C  
ENDROOT
BRANCH   2   3
HETATM    3  C   UNL     1      -8.180  12.318  67.654  1.00  0.00    -0.166 C  
BRANCH   3   4
HETATM    4  C   UNL     1      -9.184  11.522  68.494  1.00  0.00    -0.167 A  
HETATM    5  C   UNL     1      -8.954  10.321  69.279  1.00  0.00    -0.179 A  
HETATM    6  N   UNL     1      -7.715   9.527  69.404  1.00  0.00    -0.086 NA 
HETATM    7  O   UNL     1     -13.816  11.831  69.850  1.00  0.00     2.804 OA 
HETATM    8  C   UNL     1      -7.688   8.391  70.274  1.00  0.00    -0.080 C  
HETATM    9  C   UNL     1      -8.729   8.012  71.028  1.00  0.00    -0.146 C  
HETATM   10  O   UNL     1     -10.937  15.467  66.267  1.00  0.00    -0.324 OA 
HETATM   11  C   UNL     1      -6.482   7.532  70.591  1.00  0.00    -0.039 C  
HETATM   12  O   UNL     1      -6.737   6.212  70.794  1.00  0.00    -0.056 OA 
HETATM   13  C   UNL     1     -10.007   8.688  70.901  1.00  0.00    -0.206 C  
HETATM   14  O   UNL     1      -5.347   7.954  70.729  1.00  0.00    -0.026 OA 
HETATM   15  O   UNL     1     -10.970   8.256  71.526  1.00  0.00    -0.236 OA 
HETATM   16  C   UNL     1     -10.085   9.863  70.024  1.00  0.00    -0.308 A  
HETATM   17  C   UNL     1     -11.346  10.484  70.002  1.00  0.00    -0.392 A  
HETATM   18  C   UNL     1     -11.545  11.614  69.240  1.00  0.00    -0.385 A  
HETATM   19  C   UNL     1     -10.489  12.135  68.505  1.00  0.00    -0.233 A  
HETATM   20  O   UNL     1     -10.667  13.288  67.760  1.00  0.00    -0.237 OA 
HETATM   21  C   UNL     1     -11.919  13.898  67.727  1.00  0.00    -0.355 C  
HETATM   22  C   UNL     1     -12.083  15.120  66.891  1.00  0.00     0.276 C  
HETATM   23  C   UNL     1     -12.996  13.465  68.397  1.00  0.00     2.024 C  
HETATM   24  O   UNL     1     -13.125  15.746  66.767  1.00  0.00     2.852 OA 
HETATM   25  C   UNL     1     -12.862  12.265  69.218  1.00  0.00     1.231 C  
BRANCH   6  26
HETATM   26  C   UNL     1      -6.632   9.977  68.510  1.00  0.00    -0.053 C  
HETATM   27  C   UNL     1      -5.251  10.382  68.961  1.00  0.00    -0.038 C  
ENDBRANCH   6  26
ENDBRANCH   3   4
ENDBRANCH   2   3
TORSDOF 3
ENDMDL
MODEL      146
REMARK 921   NORMALIZED FREE ENERGY PREDICTED BY IDOCK:   12.56 KCAL/MOL
REMARK 922        TOTAL FREE ENERGY PREDICTED BY IDOCK:   14.29 KCAL/MOL
REMARK 923 INTER-LIGAND FREE ENERGY PREDICTED BY IDOCK:    4.12 KCAL/MOL
REMARK 924 INTRA-LIGAND FREE ENERGY PREDICTED BY IDOCK:   10.17 KCAL/MOL
REMARK 927      BINDING AFFINITY PREDICTED BY RF-SCORE:    0.00 PKD
ROOT
HETATM    1  C   UNL     1     -12.643   6.598  68.291  1.00  0.00     5.890 C  
HETATM    2  C   UNL     1     -11.360   6.000  68.850  1.00  0.00    -0.082 C  
ENDROOT
BRANCH   2   3
HETATM    3  C   UNL     1     -10.363   5.682  67.727  1.00  0.00    -0.260 C  
BRANCH   3   4
HETATM    4  C   UNL     1      -9.967   6.925  66.925  1.00  0.00    -0.264 A  
HETATM    5  C   UNL     1     -10.228   8.321  67.234  1.00  0.00    -0.274 A  
HETATM    6  N   UNL     1     -11.001   8.885  68.358  1.00  0.00     0.032 NA 
HETATM    7  O   UNL     1      -7.439   8.012  62.949  1.00  0.00    -0.100 OA 
HETATM    8  C   UNL     1     -11.101  10.305  68.506  1.00  0.00    -0.242 C  
HETATM    9  C   UNL     1     -10.493  11.178  67.691  1.00  0.00    -0.230 C  
HETATM   10  O   UNL     1      -8.565   2.664  65.063  1.00  0.00    -0.094 OA 
HETATM   11  C   UNL     1     -11.769  11.044  69.647  1.00  0.00    -0.329 C  
HETATM   12  O   UNL     1     -12.381  12.211  69.314  1.00  0.00    -0.111 OA 
HETATM   13  C   UNL     1      -9.783  10.707  66.517  1.00  0.00    -0.194 C  
HETATM   14  O   UNL     1     -11.737  10.692  70.813  1.00  0.00    -0.328 OA 
HETATM   15  O   UNL     1      -9.324  11.530  65.733  1.00  0.00    -0.226 OA 
HETATM   16  C   UNL     1      -9.649   9.258  66.322  1.00  0.00    -0.313 A  
HETATM   17  C   UNL     1      -8.904   8.894  65.188  1.00  0.00    -0.209 A  
HETATM   18  C   UNL     1      -8.680   7.564  64.907  1.00  0.00     0.223 A  
HETATM   19  C   UNL     1      -9.189   6.593  65.757  1.00  0.00     0.106 A  
HETATM   20  O   UNL     1      -8.946   5.254  65.503  1.00  0.00    -0.157 OA 
HETATM   21  C   UNL     1      -8.217   4.890  64.373  1.00  0.00    -0.124 C  
HETATM   22  C   UNL     1      -8.000   3.440  64.114  1.00  0.00    -0.082 C  
HETATM   23  C   UNL     1      -7.693   5.755  63.493  1.00  0.00    -0.093 C  
HETATM   24  O   UNL     1      -7.388   2.986  63.159  1.00  0.00    -0.050 OA 
HETATM   25  C   UNL     1      -7.899   7.183  63.722  1.00  0.00    -0.110 C  
BRANCH   6  26
HETATM   26  C   UNL     1     -11.679   7.865  69.180  1.00  0.00     1.176 C  
HETATM   27  C   UNL     1     -12.475   8.151  70.429  1.00  0.00     0.565 C  
ENDBRANCH   6  26
ENDBRANCH   3   4
ENDBRANCH   2   3
TORSDOF 3
ENDMDL
MODEL      147
REMARK 921   NORMALIZED FREE ENERGY PREDICTED BY IDOCK:   15.03 KCAL/MOL
REMARK 922        TOTAL FREE ENERGY PREDICTED BY IDOCK:   17.19 KCAL/MOL
REMARK 923 INTER-LIGAND FREE ENERGY PREDICTED BY IDOCK:    6.72 KCAL/MOL
REMARK 924 INTRA-LIGAND FREE ENERGY PREDICTED BY IDOCK:   10.48 KCAL/MOL
REMARK 927      BINDING AFFINITY PREDICTED BY RF-SCORE:    0.00 PKD
ROOT
HETATM    1  C   UNL     1     -11.941  12.174  71.125  1.00  0.00     0.342 C  
HETATM    2  C   UNL     1     -13.033  13.013  70.479  1.00  0.00     0.134 C  
ENDROOT
BRANCH   2   3
HETATM    3  C   UNL     1     -12.564  13.594  69.138  1.00  0.00     0.344 C  
BRANCH   3   4
HETATM    4  C   UNL     1     -11.053  13.836  69.100  1.00  0.00    -0.282 A  
HETATM    5  C   UNL     1     -10.342  15.073  68.828  1.00  0.00    -0.240 A  
HETATM    6  N   UNL     1     -10.897  16.388  68.449  1.00  0.00    -0.327 NA 
HETATM    7  O   UNL     1      -6.973  11.379  69.942  1.00  0.00    -0.057 OA 
HETATM    8  C   UNL     1     -10.017  17.502  68.268  1.00  0.00    -0.330 C  
HETATM    9  C   UNL     1      -8.692  17.436  68.459  1.00  0.00    -0.277 C  
HETATM   10  O   UNL     1     -12.450   9.309  70.171  1.00  0.00     0.309 OA 
HETATM   11  C   UNL     1     -10.425  18.930  67.975  1.00  0.00    -0.358 C  
HETATM   12  O   UNL     1      -9.581  19.631  67.173  1.00  0.00    -0.317 OA 
HETATM   13  C   UNL     1      -8.059  16.164  68.752  1.00  0.00    -0.218 C  
HETATM   14  O   UNL     1     -11.401  19.483  68.451  1.00  0.00     0.770 OA 
HETATM   15  O   UNL     1      -6.836  16.113  68.821  1.00  0.00    -0.129 OA 
HETATM   16  C   UNL     1      -8.920  14.991  68.952  1.00  0.00    -0.202 A  
HETATM   17  C   UNL     1      -8.226  13.815  69.281  1.00  0.00     0.465 A  
HETATM   18  C   UNL     1      -8.919  12.649  69.522  1.00  0.00     1.634 A  
HETATM   19  C   UNL     1     -10.304  12.651  69.445  1.00  0.00     0.486 A  
HETATM   20  O   UNL     1     -11.015  11.495  69.715  1.00  0.00    -0.141 OA 
HETATM   21  C   UNL     1     -10.329  10.324  70.030  1.00  0.00    -0.202 C  
HETATM   22  C   UNL     1     -11.123   9.091  70.285  1.00  0.00    -0.235 C  
HETATM   23  C   UNL     1      -8.995  10.224  70.122  1.00  0.00     0.251 C  
HETATM   24  O   UNL     1     -10.648   8.000  70.562  1.00  0.00    -0.212 OA 
HETATM   25  C   UNL     1      -8.193  11.419  69.869  1.00  0.00     1.413 C  
BRANCH   6  26
HETATM   26  C   UNL     1     -12.352  16.369  68.209  1.00  0.00     1.315 C  
HETATM   27  C   UNL     1     -13.301  15.319  68.735  1.00  0.00     2.782 C  
ENDBRANCH   6  26
ENDBRANCH   3   4
ENDBRANCH   2   3
TORSDOF 3
ENDMDL
MODEL      148
REMARK 921   NORMALIZED FREE ENERGY PREDICTED BY IDOCK:   18.72 KCAL/MOL
REMARK 922        TOTAL FREE ENERGY PREDICTED BY IDOCK:   21.53 KCAL/MOL
REMARK 923 INTER-LIGAND FREE ENERGY PREDICTED BY IDOCK:   20.41 KCAL/MOL
REMARK 924 INTRA-LIGAND FREE ENERGY PREDICTED BY IDOCK:    1.11 KCAL/MOL
REMARK 927      BINDING AFFINITY PREDICTED BY RF-SCORE:    0.00 PKD
ROOT
HETATM    1  C   UNL     1      -7.924   6.704  69.784  1.00  0.00    -0.120 C  
HETATM    2  C   UNL     1      -8.149   8.072  69.158  1.00  0.00    -0.119 C  
ENDROOT
BRANCH   2   3
HETATM    3  C   UNL     1      -9.522   8.152  68.478  1.00  0.00    -0.144 C  
BRANCH   3   4
HETATM    4  C   UNL     1      -9.474   8.907  67.146  1.00  0.00    -0.202 A  
HETATM    5  C   UNL     1      -9.191  10.313  66.915  1.00  0.00    -0.150 A  
HETATM    6  N   UNL     1      -8.950  11.379  67.908  1.00  0.00    -0.147 NA 
HETATM    7  O   UNL     1      -9.852   7.940  62.423  1.00  0.00     2.544 OA 
HETATM    8  C   UNL     1      -8.642  12.703  67.463  1.00  0.00    -0.185 C  
HETATM    9  C   UNL     1      -8.519  13.040  66.172  1.00  0.00     0.749 C  
HETATM   10  O   UNL     1     -10.462   4.160  66.859  1.00  0.00     0.180 OA 
HETATM   11  C   UNL     1      -8.276  13.883  68.340  1.00  0.00    -0.153 C  
HETATM   12  O   UNL     1      -8.706  15.096  67.905  1.00  0.00    -0.153 OA 
HETATM   13  C   UNL     1      -8.820  12.073  65.134  1.00  0.00     0.627 C  
HETATM   14  O   UNL     1      -7.591  13.812  69.346  1.00  0.00     0.108 OA 
HETATM   15  O   UNL     1      -8.800  12.435  63.962  1.00  0.00     0.964 OA 
HETATM   16  C   UNL     1      -9.138  10.698  65.538  1.00  0.00    -0.214 A  
HETATM   17  C   UNL     1      -9.365   9.818  64.466  1.00  0.00    -0.298 A  
HETATM   18  C   UNL     1      -9.645   8.492  64.710  1.00  0.00     1.144 A  
HETATM   19  C   UNL     1      -9.692   8.034  66.019  1.00  0.00     0.068 A  
HETATM   20  O   UNL     1      -9.942   6.697  66.277  1.00  0.00    -0.063 OA 
HETATM   21  C   UNL     1     -10.180   5.826  65.216  1.00  0.00     1.087 C  
HETATM   22  C   UNL     1     -10.475   4.400  65.531  1.00  0.00    -0.199 C  
HETATM   23  C   UNL     1     -10.162   6.176  63.923  1.00  0.00     4.446 C  
HETATM   24  O   UNL     1     -10.709   3.537  64.699  1.00  0.00    -0.049 OA 
HETATM   25  C   UNL     1      -9.881   7.571  63.589  1.00  0.00     5.209 C  
BRANCH   6  26
HETATM   26  C   UNL     1      -9.151  10.943  69.302  1.00  0.00     0.023 C  
HETATM   27  C   UNL     1      -8.828  11.771  70.522  1.00  0.00     5.461 C  
ENDBRANCH   6  26
ENDBRANCH   3   4
ENDBRANCH   2   3
TORSDOF 3
ENDMDL
MODEL      149
REMARK 921   NORMALIZED FREE ENERGY PREDICTED BY IDOCK:   21.10 KCAL/MOL
REMARK 922        TOTAL FREE ENERGY PREDICTED BY IDOCK:   24.32 KCAL/MOL
REMARK 923 INTER-LIGAND FREE ENERGY PREDICTED BY IDOCK:    8.91 KCAL/MOL
REMARK 924 INTRA-LIGAND FREE ENERGY PREDICTED BY IDOCK:   15.41 KCAL/MOL
REMARK 927      BINDING AFFINITY PREDICTED BY RF-SCORE:    0.00 PKD
ROOT
HETATM    1  C   UNL     1     -10.714   7.404  65.936  1.00  0.00     2.199 C  
HETATM    2  C   UNL     1     -11.083   8.051  67.263  1.00  0.00     0.286 C  
ENDROOT
BRANCH   2   3
HETATM    3  C   UNL     1     -11.168   7.006  68.383  1.00  0.00     0.021 C  
BRANCH   3   4
HETATM    4  C   UNL     1      -9.899   6.156  68.490  1.00  0.00    -0.157 A  
HETATM    5  C   UNL     1      -9.444   5.348  69.608  1.00  0.00    -0.144 A  
HETATM    6  N   UNL     1     -10.053   5.201  70.945  1.00  0.00    -0.219 NA 
HETATM    7  O   UNL     1      -6.188   4.828  65.688  1.00  0.00    -0.032 OA 
HETATM    8  C   UNL     1      -9.464   4.309  71.897  1.00  0.00    -0.142 C  
HETATM    9  C   UNL     1      -8.389   3.554  71.636  1.00  0.00    -0.077 C  
HETATM   10  O   UNL     1     -10.557   8.466  64.268  1.00  0.00     5.947 OA 
HETATM   11  C   UNL     1     -10.011   3.970  73.268  1.00  0.00    -0.137 C  
HETATM   12  O   UNL     1      -9.082   3.744  74.233  1.00  0.00    -0.087 OA 
HETATM   13  C   UNL     1      -7.683   3.699  70.377  1.00  0.00    -0.047 C  
HETATM   14  O   UNL     1     -11.194   3.836  73.528  1.00  0.00    -0.243 OA 
HETATM   15  O   UNL     1      -6.645   3.071  70.203  1.00  0.00    -0.032 OA 
HETATM   16  C   UNL     1      -8.251   4.599  69.364  1.00  0.00    -0.073 A  
HETATM   17  C   UNL     1      -7.530   4.639  68.158  1.00  0.00    -0.066 A  
HETATM   18  C   UNL     1      -7.972   5.423  67.116  1.00  0.00    -0.101 A  
HETATM   19  C   UNL     1      -9.136   6.163  67.265  1.00  0.00    -0.115 A  
HETATM   20  O   UNL     1      -9.609   6.931  66.215  1.00  0.00    -0.135 OA 
HETATM   21  C   UNL     1      -8.890   6.981  65.023  1.00  0.00     0.346 C  
HETATM   22  C   UNL     1      -9.410   7.842  63.925  1.00  0.00     2.317 C  
HETATM   23  C   UNL     1      -7.755   6.308  64.789  1.00  0.00    -0.101 C  
HETATM   24  O   UNL     1      -8.876   7.982  62.836  1.00  0.00     0.209 OA 
HETATM   25  C   UNL     1      -7.219   5.463  65.854  1.00  0.00    -0.069 C  
BRANCH   6  26
HETATM   26  C   UNL     1     -11.201   6.099  71.173  1.00  0.00    -0.292 C  
HETATM   27  C   UNL     1     -11.921   6.263  72.489  1.00  0.00    -0.146 C  
ENDBRANCH   6  26
ENDBRANCH   3   4
ENDBRANCH   2   3
TORSDOF 3
ENDMDL
MODEL      150
REMARK 921   NORMALIZED FREE ENERGY PREDICTED BY IDOCK:   21.19 KCAL/MOL
REMARK 922        TOTAL FREE ENERGY PREDICTED BY IDOCK:   24.43 KCAL/MOL
REMARK 923 INTER-LIGAND FREE ENERGY PREDICTED BY IDOCK:   22.62 KCAL/MOL
REMARK 924 INTRA-LIGAND FREE ENERGY PREDICTED BY IDOCK:    1.82 KCAL/MOL
REMARK 927      BINDING AFFINITY PREDICTED BY RF-SCORE:    0.00 PKD
ROOT
HETATM    1  C   UNL     1      -6.111  16.857  70.640  1.00  0.00     0.554 C  
HETATM    2  C   UNL     1      -6.697  15.606  71.275  1.00  0.00     1.770 C  
ENDROOT
BRANCH   2   3
HETATM    3  C   UNL     1      -8.228  15.597  71.170  1.00  0.00     3.662 C  
BRANCH   3   4
HETATM    4  C   UNL     1      -8.722  14.982  69.857  1.00  0.00     0.264 A  
HETATM    5  C   UNL     1      -9.506  15.607  68.805  1.00  0.00    -0.214 A  
HETATM    6  N   UNL     1     -10.085  16.965  68.772  1.00  0.00    -0.277 NA 
HETATM    7  O   UNL     1      -8.305  10.822  67.427  1.00  0.00    -0.118 OA 
HETATM    8  C   UNL     1     -10.794  17.404  67.610  1.00  0.00    -0.233 C  
HETATM    9  C   UNL     1     -10.941  16.657  66.507  1.00  0.00     0.112 C  
HETATM   10  O   UNL     1      -6.094  12.060  72.711  1.00  0.00     1.809 OA 
HETATM   11  C   UNL     1     -11.362  18.788  67.374  1.00  0.00     0.515 C  
HETATM   12  O   UNL     1     -12.519  18.836  66.663  1.00  0.00     4.255 OA 
HETATM   13  C   UNL     1     -10.474  15.283  66.489  1.00  0.00    -0.298 C  
HETATM   14  O   UNL     1     -10.826  19.825  67.722  1.00  0.00    -0.362 OA 
HETATM   15  O   UNL     1     -10.712  14.590  65.506  1.00  0.00    -0.304 OA 
HETATM   16  C   UNL     1      -9.736  14.786  67.657  1.00  0.00    -0.213 A  
HETATM   17  C   UNL     1      -9.279  13.463  67.531  1.00  0.00    -0.219 A  
HETATM   18  C   UNL     1      -8.548  12.887  68.546  1.00  0.00    -0.042 A  
HETATM   19  C   UNL     1      -8.262  13.625  69.686  1.00  0.00     1.176 A  
HETATM   20  O   UNL     1      -7.503  13.069  70.700  1.00  0.00     2.200 OA 
HETATM   21  C   UNL     1      -7.059  11.754  70.583  1.00  0.00     2.366 C  
HETATM   22  C   UNL     1      -6.270  11.176  71.706  1.00  0.00     1.801 C  
HETATM   23  C   UNL     1      -7.290  10.962  69.526  1.00  0.00    -0.095 C  
HETATM   24  O   UNL     1      -5.829  10.037  71.735  1.00  0.00    -0.285 OA 
HETATM   25  C   UNL     1      -8.068  11.503  68.414  1.00  0.00    -0.149 C  
BRANCH   6  26
HETATM   26  C   UNL     1      -9.924  17.706  70.037  1.00  0.00     0.957 C  
HETATM   27  C   UNL     1      -8.622  18.269  70.550  1.00  0.00     3.986 C  
ENDBRANCH   6  26
ENDBRANCH   3   4
ENDBRANCH   2   3
TORSDOF 3
ENDMDL
MODEL      151
REMARK 921   NORMALIZED FREE ENERGY PREDICTED BY IDOCK:   26.05 KCAL/MOL
REMARK 922        TOTAL FREE ENERGY PREDICTED BY IDOCK:   30.14 KCAL/MOL
REMARK 923 INTER-LIGAND FREE ENERGY PREDICTED BY IDOCK:   29.17 KCAL/MOL
REMARK 924 INTRA-LIGAND FREE ENERGY PREDICTED BY IDOCK:    0.97 KCAL/MOL
REMARK 927      BINDING AFFINITY PREDICTED BY RF-SCORE:    0.00 PKD
ROOT
HETATM    1  C   UNL     1     -12.448   5.844  71.117  1.00  0.00     1.095 C  
HETATM    2  C   UNL     1     -11.393   5.684  72.202  1.00  0.00    -0.277 C  
ENDROOT
BRANCH   2   3
HETATM    3  C   UNL     1     -10.132   5.005  71.652  1.00  0.00    -0.260 C  
BRANCH   3   4
HETATM    4  C   UNL     1      -9.417   5.858  70.601  1.00  0.00    -0.199 A  
HETATM    5  C   UNL     1      -8.718   7.118  70.783  1.00  0.00    -0.147 A  
HETATM    6  N   UNL     1      -8.584   7.927  72.011  1.00  0.00    -0.122 NA 
HETATM    7  O   UNL     1      -8.309   5.629  65.899  1.00  0.00    -0.118 OA 
HETATM    8  C   UNL     1      -7.807   9.128  71.987  1.00  0.00     0.481 C  
HETATM    9  C   UNL     1      -7.147   9.560  70.903  1.00  0.00    -0.070 C  
HETATM   10  O   UNL     1     -11.421   1.739  68.985  1.00  0.00     6.126 OA 
HETATM   11  C   UNL     1      -7.490  10.017  73.171  1.00  0.00     4.101 C  
HETATM   12  O   UNL     1      -7.407  11.347  72.904  1.00  0.00     8.905 OA 
HETATM   13  C   UNL     1      -7.293   8.868  69.636  1.00  0.00    -0.056 C  
HETATM   14  O   UNL     1      -7.255   9.614  74.296  1.00  0.00     0.316 OA 
HETATM   15  O   UNL     1      -6.761   9.342  68.638  1.00  0.00    -0.053 OA 
HETATM   16  C   UNL     1      -8.077   7.627  69.610  1.00  0.00    -0.126 A  
HETATM   17  C   UNL     1      -8.123   6.999  68.354  1.00  0.00    -0.124 A  
HETATM   18  C   UNL     1      -8.802   5.811  68.201  1.00  0.00    -0.105 A  
HETATM   19  C   UNL     1      -9.432   5.240  69.297  1.00  0.00    -0.134 A  
HETATM   20  O   UNL     1     -10.093   4.030  69.165  1.00  0.00     0.022 OA 
HETATM   21  C   UNL     1     -10.150   3.412  67.918  1.00  0.00     0.778 C  
HETATM   22  C   UNL     1     -10.895   2.128  67.804  1.00  0.00     5.539 C  
HETATM   23  C   UNL     1      -9.579   3.890  66.803  1.00  0.00    -0.222 C  
HETATM   24  O   UNL     1     -11.028   1.488  66.772  1.00  0.00     4.268 OA 
HETATM   25  C   UNL     1      -8.849   5.153  66.887  1.00  0.00    -0.110 C  
BRANCH   6  26
HETATM   26  C   UNL     1      -9.377   7.415  73.145  1.00  0.00    -0.188 C  
HETATM   27  C   UNL     1      -8.923   6.340  74.101  1.00  0.00    -0.147 C  
ENDBRANCH   6  26
ENDBRANCH   3   4
ENDBRANCH   2   3
TORSDOF 3
ENDMDL
MODEL      152
REMARK 921   NORMALIZED FREE ENERGY PREDICTED BY IDOCK:   34.00 KCAL/MOL
REMARK 922        TOTAL FREE ENERGY PREDICTED BY IDOCK:   39.48 KCAL/MOL
REMARK 923 INTER-LIGAND FREE ENERGY PREDICTED BY IDOCK:   39.22 KCAL/MOL
REMARK 924 INTRA-LIGAND FREE ENERGY PREDICTED BY IDOCK:    0.26 KCAL/MOL
REMARK 927      BINDING AFFINITY PREDICTED BY RF-SCORE:    0.00 PKD
ROOT
HETATM    1  C   UNL     1     -13.863   5.767  70.273  1.00  0.00     7.611 C  
HETATM    2  C   UNL     1     -13.669   6.192  68.825  1.00  0.00    15.136 C  
ENDROOT
BRANCH   2   3
HETATM    3  C   UNL     1     -12.440   7.100  68.675  1.00  0.00     3.964 C  
BRANCH   3   4
HETATM    4  C   UNL     1     -11.125   6.349  68.902  1.00  0.00    -0.420 A  
HETATM    5  C   UNL     1     -10.239   6.405  70.051  1.00  0.00    -0.180 A  
HETATM    6  N   UNL     1     -10.346   7.253  71.255  1.00  0.00    -0.194 NA 
HETATM    7  O   UNL     1      -8.445   2.994  66.677  1.00  0.00    -0.094 OA 
HETATM    8  C   UNL     1      -9.381   7.121  72.303  1.00  0.00    -0.138 C  
HETATM    9  C   UNL     1      -8.381   6.229  72.278  1.00  0.00    -0.108 C  
HETATM   10  O   UNL     1     -13.401   5.426  64.711  1.00  0.00     5.241 OA 
HETATM   11  C   UNL     1      -9.398   7.838  73.636  1.00  0.00    -0.275 C  
HETATM   12  O   UNL     1      -8.182   8.160  74.148  1.00  0.00    -0.242 OA 
HETATM   13  C   UNL     1      -8.157   5.417  71.098  1.00  0.00    -0.111 C  
HETATM   14  O   UNL     1     -10.405   8.080  74.280  1.00  0.00     1.072 OA 
HETATM   15  O   UNL     1      -7.175   4.683  71.061  1.00  0.00    -0.045 OA 
HETATM   16  C   UNL     1      -9.123   5.513  69.996  1.00  0.00    -0.160 A  
HETATM   17  C   UNL     1      -8.855   4.654  68.916  1.00  0.00    -0.128 A  
HETATM   18  C   UNL     1      -9.702   4.627  67.830  1.00  0.00    -0.198 A  
HETATM   19  C   UNL     1     -10.821   5.446  67.818  1.00  0.00     0.120 A  
HETATM   20  O   UNL     1     -11.697   5.406  66.747  1.00  0.00     1.394 OA 
HETATM   21  C   UNL     1     -11.428   4.565  65.670  1.00  0.00     1.302 C  
HETATM   22  C   UNL     1     -12.375   4.569  64.521  1.00  0.00     4.088 C  
HETATM   23  C   UNL     1     -10.371   3.744  65.590  1.00  0.00     0.231 C  
HETATM   24  O   UNL     1     -12.253   3.888  63.514  1.00  0.00     2.041 OA 
HETATM   25  C   UNL     1      -9.423   3.727  66.702  1.00  0.00    -0.192 C  
BRANCH   6  26
HETATM   26  C   UNL     1     -11.441   8.240  71.187  1.00  0.00    -0.273 C  
HETATM   27  C   UNL     1     -11.457   9.452  70.288  1.00  0.00    -0.223 C  
ENDBRANCH   6  26
ENDBRANCH   3   4
ENDBRANCH   2   3
TORSDOF 3
ENDMDL
MODEL      153
REMARK 921   NORMALIZED FREE ENERGY PREDICTED BY IDOCK:   49.80 KCAL/MOL
REMARK 922        TOTAL FREE ENERGY PREDICTED BY IDOCK:   58.06 KCAL/MOL
REMARK 923 INTER-LIGAND FREE ENERGY PREDICTED BY IDOCK:   51.65 KCAL/MOL
REMARK 924 INTRA-LIGAND FREE ENERGY PREDICTED BY IDOCK:    6.41 KCAL/MOL
REMARK 927      BINDING AFFINITY PREDICTED BY RF-SCORE:    0.00 PKD
ROOT
HETATM    1  C   UNL     1     -13.921  11.075  68.097  1.00  0.00    11.927 C  
HETATM    2  C   UNL     1     -12.477  10.596  68.110  1.00  0.00     1.939 C  
ENDROOT
BRANCH   2   3
HETATM    3  C   UNL     1     -12.309   9.365  69.011  1.00  0.00     2.183 C  
BRANCH   3   4
HETATM    4  C   UNL     1     -11.596   9.693  70.325  1.00  0.00    -0.255 A  
HETATM    5  C   UNL     1     -11.017   8.777  71.293  1.00  0.00    -0.275 A  
HETATM    6  N   UNL     1     -11.036   7.301  71.287  1.00  0.00    -0.244 NA 
HETATM    7  O   UNL     1     -10.151  13.602  72.779  1.00  0.00     7.840 OA 
HETATM    8  C   UNL     1     -10.361   6.580  72.323  1.00  0.00    -0.191 C  
HETATM    9  C   UNL     1      -9.665   7.173  73.303  1.00  0.00    -0.251 C  
HETATM   10  O   UNL     1     -13.138  13.504  67.739  1.00  0.00     1.402 OA 
HETATM   11  C   UNL     1     -10.201   5.077  72.414  1.00  0.00    -0.201 C  
HETATM   12  O   UNL     1     -10.210   4.559  73.670  1.00  0.00    -0.148 OA 
HETATM   13  C   UNL     1      -9.666   8.618  73.427  1.00  0.00     0.813 C  
HETATM   14  O   UNL     1     -10.012   4.342  71.461  1.00  0.00    -0.183 OA 
HETATM   15  O   UNL     1      -9.107   9.130  74.391  1.00  0.00     2.025 OA 
HETATM   16  C   UNL     1     -10.341   9.403  72.386  1.00  0.00     1.154 A  
HETATM   17  C   UNL     1     -10.248  10.795  72.560  1.00  0.00    10.195 A  
HETATM   18  C   UNL     1     -10.815  11.645  71.637  1.00  0.00     5.845 A  
HETATM   19  C   UNL     1     -11.470  11.115  70.534  1.00  0.00    -0.065 A  
HETATM   20  O   UNL     1     -12.018  11.959  69.583  1.00  0.00    -0.304 OA 
HETATM   21  C   UNL     1     -11.937  13.338  69.760  1.00  0.00    -0.324 C  
HETATM   22  C   UNL     1     -12.564  14.216  68.733  1.00  0.00     0.437 C  
HETATM   23  C   UNL     1     -11.332  13.940  70.793  1.00  0.00     0.390 C  
HETATM   24  O   UNL     1     -12.573  15.436  68.770  1.00  0.00     0.155 OA 
HETATM   25  C   UNL     1     -10.716  13.100  71.818  1.00  0.00     7.003 C  
BRANCH   6  26
HETATM   26  C   UNL     1     -11.861   6.725  70.208  1.00  0.00    -0.301 C  
HETATM   27  C   UNL     1     -11.798   7.138  68.758  1.00  0.00     1.080 C  
ENDBRANCH   6  26
ENDBRANCH   3   4
ENDBRANCH   2   3
TORSDOF 3
ENDMDL
MODEL      154
REMARK 921   NORMALIZED FREE ENERGY PREDICTED BY IDOCK:   58.01 KCAL/MOL
REMARK 922        TOTAL FREE ENERGY PREDICTED BY IDOCK:   67.71 KCAL/MOL
REMARK 923 INTER-LIGAND FREE ENERGY PREDICTED BY IDOCK:   59.14 KCAL/MOL
REMARK 924 INTRA-LIGAND FREE ENERGY PREDICTED BY IDOCK:    8.57 KCAL/MOL
REMARK 927      BINDING AFFINITY PREDICTED BY RF-SCORE:    0.00 PKD
ROOT
HETATM    1  C   UNL     1      -8.546  12.532  64.830  1.00  0.00     2.019 C  
HETATM    2  C   UNL     1      -9.118  12.228  66.206  1.00  0.00    -0.125 C  
ENDROOT
BRANCH   2   3
HETATM    3  C   UNL     1      -8.312  11.129  66.911  1.00  0.00    -0.147 C  
BRANCH   3   4
HETATM    4  C   UNL     1      -8.918  10.731  68.260  1.00  0.00    -0.143 A  
HETATM    5  C   UNL     1      -9.068  11.540  69.457  1.00  0.00     0.904 A  
HETATM    6  N   UNL     1      -8.609  12.923  69.696  1.00  0.00     1.632 NA 
HETATM    7  O   UNL     1     -11.141   6.922  70.246  1.00  0.00    -0.264 OA 
HETATM    8  C   UNL     1      -8.901  13.560  70.944  1.00  0.00     7.317 C  
HETATM    9  C   UNL     1      -9.611  12.980  71.921  1.00  0.00    15.765 C  
HETATM   10  O   UNL     1      -8.928   7.290  64.832  1.00  0.00     0.309 OA 
HETATM   11  C   UNL     1      -8.591  14.995  71.314  1.00  0.00     3.598 C  
HETATM   12  O   UNL     1      -8.267  15.211  72.616  1.00  0.00     5.979 OA 
HETATM   13  C   UNL     1     -10.027  11.596  71.799  1.00  0.00    11.877 C  
HETATM   14  O   UNL     1      -8.671  15.940  70.549  1.00  0.00     1.224 OA 
HETATM   15  O   UNL     1     -10.586  11.059  72.749  1.00  0.00     8.549 OA 
HETATM   16  C   UNL     1      -9.755  10.899  70.535  1.00  0.00     2.023 A  
HETATM   17  C   UNL     1     -10.237   9.580  70.487  1.00  0.00    -0.349 A  
HETATM   18  C   UNL     1     -10.072   8.826  69.346  1.00  0.00    -0.203 A  
HETATM   19  C   UNL     1      -9.435   9.384  68.247  1.00  0.00    -0.137 A  
HETATM   20  O   UNL     1      -9.290   8.648  67.084  1.00  0.00    -0.142 OA 
HETATM   21  C   UNL     1      -9.756   7.336  67.038  1.00  0.00    -0.181 C  
HETATM   22  C   UNL     1      -9.557   6.563  65.781  1.00  0.00     0.330 C  
HETATM   23  C   UNL     1     -10.377   6.712  68.049  1.00  0.00    -0.226 C  
HETATM   24  O   UNL     1      -9.909   5.406  65.610  1.00  0.00    -0.050 OA 
HETATM   25  C   UNL     1     -10.578   7.447  69.295  1.00  0.00    -0.213 C  
BRANCH   6  26
HETATM   26  C   UNL     1      -7.795  13.473  68.596  1.00  0.00    -0.084 C  
HETATM   27  C   UNL     1      -7.697  12.881  67.212  1.00  0.00    -0.122 C  
ENDBRANCH   6  26
ENDBRANCH   3   4
ENDBRANCH   2   3
TORSDOF 3
ENDMDL
MODEL      155
REMARK 921   NORMALIZED FREE ENERGY PREDICTED BY IDOCK:   72.72 KCAL/MOL
REMARK 922        TOTAL FREE ENERGY PREDICTED BY IDOCK:   85.00 KCAL/MOL
REMARK 923 INTER-LIGAND FREE ENERGY PREDICTED BY IDOCK:   84.50 KCAL/MOL
REMARK 924 INTRA-LIGAND FREE ENERGY PREDICTED BY IDOCK:    0.50 KCAL/MOL
REMARK 927      BINDING AFFINITY PREDICTED BY RF-SCORE:    0.00 PKD
ROOT
HETATM    1  C   UNL     1      -6.576  10.051  71.407  1.00  0.00     0.432 C  
HETATM    2  C   UNL     1      -7.714   9.117  71.021  1.00  0.00    -0.132 C  
ENDROOT
BRANCH   2   3
HETATM    3  C   UNL     1      -9.063   9.651  71.522  1.00  0.00     0.955 C  
BRANCH   3   4
HETATM    4  C   UNL     1      -9.853  10.369  70.424  1.00  0.00     0.446 A  
HETATM    5  C   UNL     1     -10.829   9.813  69.503  1.00  0.00    -0.240 A  
HETATM    6  N   UNL     1     -11.250   8.407  69.347  1.00  0.00     0.112 NA 
HETATM    7  O   UNL     1     -10.454  14.867  68.752  1.00  0.00    -0.228 OA 
HETATM    8  C   UNL     1     -12.271   8.075  68.400  1.00  0.00     4.068 C  
HETATM    9  C   UNL     1     -12.910   8.984  67.653  1.00  0.00    11.277 C  
HETATM   10  O   UNL     1      -6.842  13.147  73.033  1.00  0.00     3.598 OA 
HETATM   11  C   UNL     1     -12.883   6.707  68.183  1.00  0.00     8.547 C  
HETATM   12  O   UNL     1     -13.237   6.416  66.904  1.00  0.00     9.017 OA 
HETATM   13  C   UNL     1     -12.500  10.375  67.687  1.00  0.00     4.014 C  
HETATM   14  O   UNL     1     -13.123   5.906  69.070  1.00  0.00     6.802 OA 
HETATM   15  O   UNL     1     -13.033  11.169  66.918  1.00  0.00     4.059 OA 
HETATM   16  C   UNL     1     -11.459  10.768  68.645  1.00  0.00    -0.365 A  
HETATM   17  C   UNL     1     -11.162  12.142  68.644  1.00  0.00    -0.318 A  
HETATM   18  C   UNL     1     -10.223  12.645  69.517  1.00  0.00     0.791 A  
HETATM   19  C   UNL     1      -9.583  11.786  70.399  1.00  0.00     4.148 A  
HETATM   20  O   UNL     1      -8.659  12.283  71.302  1.00  0.00    10.008 OA 
HETATM   21  C   UNL     1      -8.354  13.642  71.295  1.00  0.00     7.967 C  
HETATM   22  C   UNL     1      -7.334  14.138  72.260  1.00  0.00     4.779 C  
HETATM   23  C   UNL     1      -8.915  14.545  70.478  1.00  0.00     2.131 C  
HETATM   24  O   UNL     1      -6.969  15.300  72.353  1.00  0.00     2.645 OA 
HETATM   25  C   UNL     1      -9.913  14.082  69.517  1.00  0.00     0.475 C  
BRANCH   6  26
HETATM   26  C   UNL     1     -10.468   7.462  70.165  1.00  0.00    -0.220 C  
HETATM   27  C   UNL     1     -10.215   6.017  69.812  1.00  0.00    -0.265 C  
ENDBRANCH   6  26
ENDBRANCH   3   4
ENDBRANCH   2   3
TORSDOF 3
ENDMDL
