MODEL        1
REMARK 921   NORMALIZED FREE ENERGY PREDICTED BY IDOCK:   -6.08 KCAL/MOL
REMARK 922        TOTAL FREE ENERGY PREDICTED BY IDOCK:   -7.00 KCAL/MOL
REMARK 923 INTER-LIGAND FREE ENERGY PREDICTED BY IDOCK:   -6.43 KCAL/MOL
REMARK 924 INTRA-LIGAND FREE ENERGY PREDICTED BY IDOCK:   -0.57 KCAL/MOL
REMARK 927      BINDING AFFINITY PREDICTED BY RF-SCORE:    0.00 PKD
ROOT
HETATM    1  C   UNL     1      -7.286  13.780  67.470  1.00  0.00    -0.162 C  
HETATM    2  N   UNL     1      -8.664  13.943  67.887  1.00  0.00    -0.173 NA 
HETATM    3  C   UNL     1      -9.625  13.999  66.783  1.00  0.00    -0.286 C  
HETATM    4  C   UNL     1     -10.802  15.004  66.745  1.00  0.00    -0.318 C  
HETATM    5  O   UNL     1     -11.611  14.902  67.905  1.00  0.00    -0.329 OA 
HETATM    6  C   UNL     1     -11.582  16.000  68.834  1.00  0.00    -0.354 C  
HETATM    7  C   UNL     1      -8.855  14.737  69.092  1.00  0.00    -0.084 C  
HETATM    8  C   UNL     1     -10.291  16.823  68.802  1.00  0.00    -0.318 A  
HETATM    9  C   UNL     1      -9.012  16.226  68.887  1.00  0.00    -0.248 A  
HETATM   10  C   UNL     1     -10.376  18.207  68.536  1.00  0.00    -0.352 A  
HETATM   11  C   UNL     1      -7.868  17.022  68.705  1.00  0.00    -0.257 A  
HETATM   12  C   UNL     1      -9.229  18.974  68.337  1.00  0.00    -0.398 A  
HETATM   13  C   UNL     1      -7.975  18.382  68.420  1.00  0.00    -0.325 A  
ENDROOT
BRANCH   6  14
HETATM   14  C   UNL     1     -11.987  15.482  70.220  1.00  0.00    -0.401 A  
HETATM   15  C   UNL     1     -12.121  15.766  72.637  1.00  0.00    -0.591 A  
HETATM   16  C   UNL     1     -13.132  13.832  71.621  1.00  0.00    -0.456 A  
HETATM   17  C   UNL     1     -12.711  14.282  70.368  1.00  0.00    -0.355 A  
HETATM   18  C   UNL     1     -11.693  16.213  71.382  1.00  0.00    -0.506 A  
HETATM   19  C   UNL     1     -12.846  14.581  72.755  1.00  0.00    -0.518 A  
ENDBRANCH   6  14
TORSDOF 1
ENDMDL
MODEL        2
REMARK 921   NORMALIZED FREE ENERGY PREDICTED BY IDOCK:   -6.06 KCAL/MOL
REMARK 922        TOTAL FREE ENERGY PREDICTED BY IDOCK:   -6.98 KCAL/MOL
REMARK 923 INTER-LIGAND FREE ENERGY PREDICTED BY IDOCK:   -6.47 KCAL/MOL
REMARK 924 INTRA-LIGAND FREE ENERGY PREDICTED BY IDOCK:   -0.52 KCAL/MOL
REMARK 927      BINDING AFFINITY PREDICTED BY RF-SCORE:    0.00 PKD
ROOT
HETATM    1  C   UNL     1     -10.417  17.417  66.133  1.00  0.00    -0.284 C  
HETATM    2  N   UNL     1     -10.423  16.933  67.498  1.00  0.00    -0.326 NA 
HETATM    3  C   UNL     1      -9.114  16.498  67.989  1.00  0.00    -0.209 C  
HETATM    4  C   UNL     1      -8.917  15.214  68.831  1.00  0.00    -0.206 C  
HETATM    5  O   UNL     1      -9.738  15.220  69.988  1.00  0.00    -0.190 OA 
HETATM    6  C   UNL     1     -10.826  14.279  70.035  1.00  0.00     0.148 C  
HETATM    7  C   UNL     1     -11.644  16.255  67.907  1.00  0.00     0.059 C  
HETATM    8  C   UNL     1     -11.343  13.839  68.662  1.00  0.00    -0.321 A  
HETATM    9  C   UNL     1     -11.693  14.766  67.654  1.00  0.00    -0.364 A  
HETATM   10  C   UNL     1     -11.336  12.463  68.345  1.00  0.00    -0.330 A  
HETATM   11  C   UNL     1     -12.019  14.296  66.370  1.00  0.00    -0.438 A  
HETATM   12  C   UNL     1     -11.642  12.019  67.060  1.00  0.00    -0.387 A  
HETATM   13  C   UNL     1     -11.984  12.934  66.072  1.00  0.00    -0.505 A  
ENDROOT
BRANCH   6  14
HETATM   14  C   UNL     1     -11.899  14.817  70.991  1.00  0.00    -0.383 A  
HETATM   15  C   UNL     1     -14.218  14.933  71.729  1.00  0.00    -0.635 A  
HETATM   16  C   UNL     1     -12.518  16.060  73.008  1.00  0.00    -0.614 A  
HETATM   17  C   UNL     1     -11.554  15.612  72.102  1.00  0.00    -0.538 A  
HETATM   18  C   UNL     1     -13.253  14.492  70.817  1.00  0.00    -0.313 A  
HETATM   19  C   UNL     1     -13.850  15.709  72.826  1.00  0.00    -0.628 A  
ENDBRANCH   6  14
TORSDOF 1
ENDMDL
MODEL        3
REMARK 921   NORMALIZED FREE ENERGY PREDICTED BY IDOCK:   -5.95 KCAL/MOL
REMARK 922        TOTAL FREE ENERGY PREDICTED BY IDOCK:   -6.87 KCAL/MOL
REMARK 923 INTER-LIGAND FREE ENERGY PREDICTED BY IDOCK:   -6.28 KCAL/MOL
REMARK 924 INTRA-LIGAND FREE ENERGY PREDICTED BY IDOCK:   -0.58 KCAL/MOL
REMARK 927      BINDING AFFINITY PREDICTED BY RF-SCORE:    0.00 PKD
ROOT
HETATM    1  C   UNL     1     -12.021  14.426  64.564  1.00  0.00    -0.472 C  
HETATM    2  N   UNL     1     -11.842  14.707  65.974  1.00  0.00    -0.322 NA 
HETATM    3  C   UNL     1     -10.608  15.431  66.292  1.00  0.00    -0.308 C  
HETATM    4  C   UNL     1      -9.715  15.074  67.504  1.00  0.00    -0.215 C  
HETATM    5  O   UNL     1     -10.451  15.092  68.716  1.00  0.00    -0.224 OA 
HETATM    6  C   UNL     1     -10.685  13.832  69.371  1.00  0.00     0.025 C  
HETATM    7  C   UNL     1     -12.378  13.700  66.877  1.00  0.00    -0.262 C  
HETATM    8  C   UNL     1     -10.673  12.620  68.434  1.00  0.00    -0.260 A  
HETATM    9  C   UNL     1     -11.440  12.574  67.247  1.00  0.00    -0.416 A  
HETATM   10  C   UNL     1      -9.759  11.575  68.691  1.00  0.00    -0.172 A  
HETATM   11  C   UNL     1     -11.271  11.497  66.360  1.00  0.00    -0.307 A  
HETATM   12  C   UNL     1      -9.591  10.526  67.787  1.00  0.00    -0.173 A  
HETATM   13  C   UNL     1     -10.347  10.487  66.621  1.00  0.00    -0.295 A  
ENDROOT
BRANCH   6  14
HETATM   14  C   UNL     1     -11.936  13.959  70.249  1.00  0.00    -0.401 A  
HETATM   15  C   UNL     1     -13.524  13.007  71.833  1.00  0.00    -0.498 A  
HETATM   16  C   UNL     1     -13.712  15.330  71.230  1.00  0.00    -0.570 A  
HETATM   17  C   UNL     1     -12.607  15.191  70.389  1.00  0.00    -0.405 A  
HETATM   18  C   UNL     1     -12.421  12.866  70.983  1.00  0.00    -0.374 A  
HETATM   19  C   UNL     1     -14.163  14.239  71.962  1.00  0.00    -0.631 A  
ENDBRANCH   6  14
TORSDOF 1
ENDMDL
MODEL        4
REMARK 921   NORMALIZED FREE ENERGY PREDICTED BY IDOCK:   -5.90 KCAL/MOL
REMARK 922        TOTAL FREE ENERGY PREDICTED BY IDOCK:   -6.81 KCAL/MOL
REMARK 923 INTER-LIGAND FREE ENERGY PREDICTED BY IDOCK:   -6.26 KCAL/MOL
REMARK 924 INTRA-LIGAND FREE ENERGY PREDICTED BY IDOCK:   -0.55 KCAL/MOL
REMARK 927      BINDING AFFINITY PREDICTED BY RF-SCORE:    0.00 PKD
ROOT
HETATM    1  C   UNL     1      -8.389  10.374  67.364  1.00  0.00    -0.121 C  
HETATM    2  N   UNL     1      -9.190  11.530  67.713  1.00  0.00    -0.161 NA 
HETATM    3  C   UNL     1     -10.390  11.218  68.492  1.00  0.00    -0.203 C  
HETATM    4  C   UNL     1     -11.763  11.879  68.221  1.00  0.00    -0.321 C  
HETATM    5  O   UNL     1     -11.676  13.294  68.266  1.00  0.00    -0.312 OA 
HETATM    6  C   UNL     1     -11.840  14.010  67.029  1.00  0.00    -0.428 C  
HETATM    7  C   UNL     1      -9.189  12.601  66.728  1.00  0.00    -0.225 C  
HETATM    8  C   UNL     1     -11.477  13.204  65.778  1.00  0.00    -0.355 A  
HETATM    9  C   UNL     1     -10.248  12.515  65.653  1.00  0.00    -0.287 A  
HETATM   10  C   UNL     1     -12.457  13.027  64.778  1.00  0.00    -0.485 A  
HETATM   11  C   UNL     1     -10.039  11.676  64.545  1.00  0.00    -0.321 A  
HETATM   12  C   UNL     1     -12.238  12.174  63.697  1.00  0.00    -0.663 A  
HETATM   13  C   UNL     1     -11.030  11.498  63.580  1.00  0.00    -0.482 A  
ENDROOT
BRANCH   6  14
HETATM   14  C   UNL     1     -11.138  15.369  67.151  1.00  0.00    -0.291 A  
HETATM   15  C   UNL     1     -10.145  17.346  66.128  1.00  0.00    -0.309 A  
HETATM   16  C   UNL     1     -10.342  17.233  68.525  1.00  0.00    -0.371 A  
HETATM   17  C   UNL     1     -10.929  15.972  68.408  1.00  0.00    -0.331 A  
HETATM   18  C   UNL     1     -10.727  16.078  66.011  1.00  0.00    -0.271 A  
HETATM   19  C   UNL     1      -9.961  17.925  67.382  1.00  0.00    -0.325 A  
ENDBRANCH   6  14
TORSDOF 1
ENDMDL
MODEL        5
REMARK 921   NORMALIZED FREE ENERGY PREDICTED BY IDOCK:   -5.85 KCAL/MOL
REMARK 922        TOTAL FREE ENERGY PREDICTED BY IDOCK:   -6.76 KCAL/MOL
REMARK 923 INTER-LIGAND FREE ENERGY PREDICTED BY IDOCK:   -6.18 KCAL/MOL
REMARK 924 INTRA-LIGAND FREE ENERGY PREDICTED BY IDOCK:   -0.59 KCAL/MOL
REMARK 927      BINDING AFFINITY PREDICTED BY RF-SCORE:    0.00 PKD
ROOT
HETATM    1  C   UNL     1      -8.935  15.714  66.211  1.00  0.00    -0.342 C  
HETATM    2  N   UNL     1      -9.674  14.485  66.415  1.00  0.00    -0.282 NA 
HETATM    3  C   UNL     1     -10.972  14.442  65.736  1.00  0.00    -0.314 C  
HETATM    4  C   UNL     1     -12.251  13.883  66.405  1.00  0.00    -0.449 C  
HETATM    5  O   UNL     1     -12.057  12.557  66.870  1.00  0.00    -0.537 OA 
HETATM    6  C   UNL     1     -12.031  12.350  68.294  1.00  0.00    -0.214 C  
HETATM    7  C   UNL     1      -9.484  13.859  67.715  1.00  0.00    -0.214 C  
HETATM    8  C   UNL     1     -11.602  13.577  69.105  1.00  0.00    -0.359 A  
HETATM    9  C   UNL     1     -10.426  14.303  68.810  1.00  0.00    -0.249 A  
HETATM   10  C   UNL     1     -12.482  14.080  70.088  1.00  0.00    -0.380 A  
HETATM   11  C   UNL     1     -10.167  15.502  69.497  1.00  0.00    -0.279 A  
HETATM   12  C   UNL     1     -12.217  15.282  70.743  1.00  0.00    -0.411 A  
HETATM   13  C   UNL     1     -11.061  15.994  70.448  1.00  0.00    -0.376 A  
ENDROOT
BRANCH   6  14
HETATM   14  C   UNL     1     -11.240  11.068  68.589  1.00  0.00    -0.322 A  
HETATM   15  C   UNL     1     -10.263   9.494  70.171  1.00  0.00    -0.291 A  
HETATM   16  C   UNL     1     -10.178   9.003  67.816  1.00  0.00    -0.284 A  
HETATM   17  C   UNL     1     -10.848  10.198  67.552  1.00  0.00    -0.349 A  
HETATM   18  C   UNL     1     -10.928  10.696  69.906  1.00  0.00    -0.337 A  
HETATM   19  C   UNL     1      -9.896   8.645  69.129  1.00  0.00    -0.185 A  
ENDBRANCH   6  14
TORSDOF 1
ENDMDL
MODEL        6
REMARK 921   NORMALIZED FREE ENERGY PREDICTED BY IDOCK:   -5.85 KCAL/MOL
REMARK 922        TOTAL FREE ENERGY PREDICTED BY IDOCK:   -6.76 KCAL/MOL
REMARK 923 INTER-LIGAND FREE ENERGY PREDICTED BY IDOCK:   -6.22 KCAL/MOL
REMARK 924 INTRA-LIGAND FREE ENERGY PREDICTED BY IDOCK:   -0.54 KCAL/MOL
REMARK 927      BINDING AFFINITY PREDICTED BY RF-SCORE:    0.00 PKD
ROOT
HETATM    1  C   UNL     1      -8.321  10.528  67.343  1.00  0.00    -0.121 C  
HETATM    2  N   UNL     1      -9.160  11.648  67.718  1.00  0.00    -0.169 NA 
HETATM    3  C   UNL     1     -10.337  11.281  68.508  1.00  0.00    -0.203 C  
HETATM    4  C   UNL     1     -11.737  11.894  68.263  1.00  0.00    -0.321 C  
HETATM    5  O   UNL     1     -11.703  13.311  68.327  1.00  0.00    -0.312 OA 
HETATM    6  C   UNL     1     -11.910  14.036  67.102  1.00  0.00    -0.411 C  
HETATM    7  C   UNL     1      -9.213  12.732  66.748  1.00  0.00    -0.225 C  
HETATM    8  C   UNL     1     -11.533  13.261  65.835  1.00  0.00    -0.359 A  
HETATM    9  C   UNL     1     -10.282  12.620  65.686  1.00  0.00    -0.290 A  
HETATM   10  C   UNL     1     -12.520  13.061  64.846  1.00  0.00    -0.512 A  
HETATM   11  C   UNL     1     -10.057  11.804  64.563  1.00  0.00    -0.312 A  
HETATM   12  C   UNL     1     -12.284  12.230  63.751  1.00  0.00    -0.642 A  
HETATM   13  C   UNL     1     -11.052  11.602  63.609  1.00  0.00    -0.506 A  
ENDROOT
BRANCH   6  14
HETATM   14  C   UNL     1     -11.257  15.419  67.234  1.00  0.00    -0.270 A  
HETATM   15  C   UNL     1     -10.421  17.249  68.608  1.00  0.00    -0.356 A  
HETATM   16  C   UNL     1     -10.127  17.340  66.220  1.00  0.00    -0.323 A  
HETATM   17  C   UNL     1     -10.772  16.108  66.104  1.00  0.00    -0.222 A  
HETATM   18  C   UNL     1     -11.076  16.018  68.490  1.00  0.00    -0.347 A  
HETATM   19  C   UNL     1      -9.941  17.905  67.476  1.00  0.00    -0.322 A  
ENDBRANCH   6  14
TORSDOF 1
ENDMDL
MODEL        7
REMARK 921   NORMALIZED FREE ENERGY PREDICTED BY IDOCK:   -5.82 KCAL/MOL
REMARK 922        TOTAL FREE ENERGY PREDICTED BY IDOCK:   -6.73 KCAL/MOL
REMARK 923 INTER-LIGAND FREE ENERGY PREDICTED BY IDOCK:   -6.14 KCAL/MOL
REMARK 924 INTRA-LIGAND FREE ENERGY PREDICTED BY IDOCK:   -0.59 KCAL/MOL
REMARK 927      BINDING AFFINITY PREDICTED BY RF-SCORE:    0.00 PKD
ROOT
HETATM    1  C   UNL     1      -9.754   8.272  69.600  1.00  0.00    -0.173 C  
HETATM    2  N   UNL     1      -9.641   9.293  68.579  1.00  0.00    -0.146 NA 
HETATM    3  C   UNL     1      -8.440  10.124  68.688  1.00  0.00    -0.122 C  
HETATM    4  C   UNL     1      -8.461  11.659  68.488  1.00  0.00    -0.135 C  
HETATM    5  O   UNL     1      -9.016  12.012  67.231  1.00  0.00    -0.168 OA 
HETATM    6  C   UNL     1     -10.296  12.669  67.232  1.00  0.00    -0.224 C  
HETATM    7  C   UNL     1     -10.905   9.852  68.124  1.00  0.00    -0.234 C  
HETATM    8  C   UNL     1     -11.163  12.366  68.457  1.00  0.00    -0.321 A  
HETATM    9  C   UNL     1     -11.419  11.046  68.894  1.00  0.00    -0.364 A  
HETATM   10  C   UNL     1     -11.604  13.443  69.258  1.00  0.00    -0.365 A  
HETATM   11  C   UNL     1     -12.098  10.843  70.108  1.00  0.00    -0.431 A  
HETATM   12  C   UNL     1     -12.258  13.219  70.469  1.00  0.00    -0.416 A  
HETATM   13  C   UNL     1     -12.505  11.920  70.895  1.00  0.00    -0.397 A  
ENDROOT
BRANCH   6  14
HETATM   14  C   UNL     1     -10.976  12.420  65.879  1.00  0.00    -0.323 A  
HETATM   15  C   UNL     1     -12.870  12.699  64.371  1.00  0.00    -0.344 A  
HETATM   16  C   UNL     1     -10.885  11.594  63.576  1.00  0.00    -0.497 A  
HETATM   17  C   UNL     1     -10.294  11.775  64.827  1.00  0.00    -0.333 A  
HETATM   18  C   UNL     1     -12.281  12.873  65.629  1.00  0.00    -0.519 A  
HETATM   19  C   UNL     1     -12.170  12.068  63.345  1.00  0.00    -0.627 A  
ENDBRANCH   6  14
TORSDOF 1
ENDMDL
MODEL        8
REMARK 921   NORMALIZED FREE ENERGY PREDICTED BY IDOCK:   -5.81 KCAL/MOL
REMARK 922        TOTAL FREE ENERGY PREDICTED BY IDOCK:   -6.72 KCAL/MOL
REMARK 923 INTER-LIGAND FREE ENERGY PREDICTED BY IDOCK:   -6.11 KCAL/MOL
REMARK 924 INTRA-LIGAND FREE ENERGY PREDICTED BY IDOCK:   -0.60 KCAL/MOL
REMARK 927      BINDING AFFINITY PREDICTED BY RF-SCORE:    0.00 PKD
ROOT
HETATM    1  C   UNL     1      -9.736   8.412  69.553  1.00  0.00    -0.177 C  
HETATM    2  N   UNL     1      -9.620   9.456  68.555  1.00  0.00    -0.145 NA 
HETATM    3  C   UNL     1      -8.422  10.288  68.690  1.00  0.00    -0.127 C  
HETATM    4  C   UNL     1      -8.446  11.827  68.524  1.00  0.00    -0.125 C  
HETATM    5  O   UNL     1      -8.994  12.206  67.272  1.00  0.00    -0.171 OA 
HETATM    6  C   UNL     1     -10.276  12.859  67.278  1.00  0.00    -0.234 C  
HETATM    7  C   UNL     1     -10.883  10.022  68.105  1.00  0.00    -0.255 C  
HETATM    8  C   UNL     1     -11.150  12.527  68.492  1.00  0.00    -0.297 A  
HETATM    9  C   UNL     1     -11.404  11.197  68.898  1.00  0.00    -0.344 A  
HETATM   10  C   UNL     1     -11.599  13.584  69.313  1.00  0.00    -0.369 A  
HETATM   11  C   UNL     1     -12.091  10.965  70.103  1.00  0.00    -0.431 A  
HETATM   12  C   UNL     1     -12.259  13.332  70.514  1.00  0.00    -0.416 A  
HETATM   13  C   UNL     1     -12.506  12.023  70.910  1.00  0.00    -0.384 A  
ENDROOT
BRANCH   6  14
HETATM   14  C   UNL     1     -10.947  12.638  65.916  1.00  0.00    -0.310 A  
HETATM   15  C   UNL     1     -10.920  11.711  63.663  1.00  0.00    -0.507 A  
HETATM   16  C   UNL     1     -12.909  12.808  64.462  1.00  0.00    -0.323 A  
HETATM   17  C   UNL     1     -12.272  13.055  65.679  1.00  0.00    -0.521 A  
HETATM   18  C   UNL     1     -10.279  11.966  64.880  1.00  0.00    -0.310 A  
HETATM   19  C   UNL     1     -12.235  12.125  63.457  1.00  0.00    -0.670 A  
ENDBRANCH   6  14
TORSDOF 1
ENDMDL
MODEL        9
REMARK 921   NORMALIZED FREE ENERGY PREDICTED BY IDOCK:   -5.78 KCAL/MOL
REMARK 922        TOTAL FREE ENERGY PREDICTED BY IDOCK:   -6.69 KCAL/MOL
REMARK 923 INTER-LIGAND FREE ENERGY PREDICTED BY IDOCK:   -6.15 KCAL/MOL
REMARK 924 INTRA-LIGAND FREE ENERGY PREDICTED BY IDOCK:   -0.53 KCAL/MOL
REMARK 927      BINDING AFFINITY PREDICTED BY RF-SCORE:    0.00 PKD
ROOT
HETATM    1  C   UNL     1      -9.066  19.277  66.943  1.00  0.00    -0.316 C  
HETATM    2  N   UNL     1      -9.244  18.275  67.974  1.00  0.00    -0.283 NA 
HETATM    3  C   UNL     1      -8.009  17.592  68.370  1.00  0.00    -0.270 C  
HETATM    4  C   UNL     1      -7.936  16.066  68.615  1.00  0.00    -0.174 C  
HETATM    5  O   UNL     1      -8.888  15.648  69.579  1.00  0.00    -0.264 OA 
HETATM    6  C   UNL     1      -9.989  14.843  69.119  1.00  0.00    -0.211 C  
HETATM    7  C   UNL     1     -10.515  17.568  67.937  1.00  0.00    -0.384 C  
HETATM    8  C   UNL     1     -10.346  15.042  67.643  1.00  0.00    -0.243 A  
HETATM    9  C   UNL     1     -10.557  16.323  67.083  1.00  0.00    -0.291 A  
HETATM   10  C   UNL     1     -10.323  13.922  66.784  1.00  0.00    -0.272 A  
HETATM   11  C   UNL     1     -10.736  16.445  65.693  1.00  0.00    -0.280 A  
HETATM   12  C   UNL     1     -10.481  14.067  65.406  1.00  0.00    -0.365 A  
HETATM   13  C   UNL     1     -10.687  15.328  64.860  1.00  0.00    -0.423 A  
ENDROOT
BRANCH   6  14
HETATM   14  C   UNL     1     -11.160  15.008  70.097  1.00  0.00    -0.271 A  
HETATM   15  C   UNL     1     -12.263  16.215  71.904  1.00  0.00    -0.497 A  
HETATM   16  C   UNL     1     -13.387  14.351  70.876  1.00  0.00    -0.294 A  
HETATM   17  C   UNL     1     -12.293  14.172  70.027  1.00  0.00    -0.403 A  
HETATM   18  C   UNL     1     -11.163  16.031  71.059  1.00  0.00    -0.347 A  
HETATM   19  C   UNL     1     -13.375  15.382  71.807  1.00  0.00    -0.567 A  
ENDBRANCH   6  14
TORSDOF 1
ENDMDL
MODEL       10
REMARK 921   NORMALIZED FREE ENERGY PREDICTED BY IDOCK:   -5.76 KCAL/MOL
REMARK 922        TOTAL FREE ENERGY PREDICTED BY IDOCK:   -6.66 KCAL/MOL
REMARK 923 INTER-LIGAND FREE ENERGY PREDICTED BY IDOCK:   -6.08 KCAL/MOL
REMARK 924 INTRA-LIGAND FREE ENERGY PREDICTED BY IDOCK:   -0.58 KCAL/MOL
REMARK 927      BINDING AFFINITY PREDICTED BY RF-SCORE:    0.00 PKD
ROOT
HETATM    1  C   UNL     1     -12.232  14.583  64.365  1.00  0.00    -0.458 C  
HETATM    2  N   UNL     1     -11.800  14.343  65.727  1.00  0.00    -0.369 NA 
HETATM    3  C   UNL     1     -10.563  15.035  66.098  1.00  0.00    -0.310 C  
HETATM    4  C   UNL     1      -9.439  14.362  66.922  1.00  0.00    -0.258 C  
HETATM    5  O   UNL     1      -9.931  13.847  68.148  1.00  0.00    -0.226 OA 
HETATM    6  C   UNL     1      -9.977  12.416  68.298  1.00  0.00    -0.224 C  
HETATM    7  C   UNL     1     -12.107  13.019  66.247  1.00  0.00    -0.386 C  
HETATM    8  C   UNL     1     -10.088  11.645  66.979  1.00  0.00    -0.234 A  
HETATM    9  C   UNL     1     -11.064  11.952  66.004  1.00  0.00    -0.369 A  
HETATM   10  C   UNL     1      -9.095  10.692  66.667  1.00  0.00    -0.176 A  
HETATM   11  C   UNL     1     -11.018  11.305  64.757  1.00  0.00    -0.262 A  
HETATM   12  C   UNL     1      -9.054  10.077  65.416  1.00  0.00    -0.235 A  
HETATM   13  C   UNL     1     -10.015  10.383  64.460  1.00  0.00    -0.401 A  
ENDROOT
BRANCH   6  14
HETATM   14  C   UNL     1     -11.043  12.066  69.345  1.00  0.00    -0.198 A  
HETATM   15  C   UNL     1     -12.193  10.431  70.739  1.00  0.00    -0.457 A  
HETATM   16  C   UNL     1     -12.726  12.766  70.979  1.00  0.00    -0.331 A  
HETATM   17  C   UNL     1     -11.795  13.072  69.985  1.00  0.00    -0.355 A  
HETATM   18  C   UNL     1     -11.265  10.737  69.737  1.00  0.00    -0.365 A  
HETATM   19  C   UNL     1     -12.916  11.445  71.364  1.00  0.00    -0.468 A  
ENDBRANCH   6  14
TORSDOF 1
ENDMDL
MODEL       11
REMARK 921   NORMALIZED FREE ENERGY PREDICTED BY IDOCK:   -5.72 KCAL/MOL
REMARK 922        TOTAL FREE ENERGY PREDICTED BY IDOCK:   -6.62 KCAL/MOL
REMARK 923 INTER-LIGAND FREE ENERGY PREDICTED BY IDOCK:   -6.03 KCAL/MOL
REMARK 924 INTRA-LIGAND FREE ENERGY PREDICTED BY IDOCK:   -0.59 KCAL/MOL
REMARK 927      BINDING AFFINITY PREDICTED BY RF-SCORE:    0.00 PKD
ROOT
HETATM    1  C   UNL     1     -10.444  18.445  67.597  1.00  0.00    -0.419 C  
HETATM    2  N   UNL     1     -10.878  17.072  67.439  1.00  0.00    -0.231 NA 
HETATM    3  C   UNL     1     -11.283  16.420  68.687  1.00  0.00    -0.332 C  
HETATM    4  C   UNL     1     -10.888  14.966  69.041  1.00  0.00    -0.245 C  
HETATM    5  O   UNL     1     -11.288  14.057  68.028  1.00  0.00    -0.266 OA 
HETATM    6  C   UNL     1     -10.251  13.436  67.246  1.00  0.00    -0.241 C  
HETATM    7  C   UNL     1     -10.201  16.328  66.387  1.00  0.00    -0.313 C  
HETATM    8  C   UNL     1      -8.953  14.244  67.160  1.00  0.00    -0.237 A  
HETATM    9  C   UNL     1      -8.935  15.609  66.792  1.00  0.00    -0.291 A  
HETATM   10  C   UNL     1      -7.752  13.645  67.601  1.00  0.00    -0.184 A  
HETATM   11  C   UNL     1      -7.730  16.328  66.875  1.00  0.00    -0.278 A  
HETATM   12  C   UNL     1      -6.573  14.382  67.696  1.00  0.00    -0.172 A  
HETATM   13  C   UNL     1      -6.561  15.724  67.334  1.00  0.00    -0.215 A  
ENDROOT
BRANCH   6  14
HETATM   14  C   UNL     1     -10.842  13.014  65.894  1.00  0.00    -0.291 A  
HETATM   15  C   UNL     1     -10.596  11.996  63.694  1.00  0.00    -0.503 A  
HETATM   16  C   UNL     1     -12.776  12.709  64.424  1.00  0.00    -0.417 A  
HETATM   17  C   UNL     1     -12.221  13.143  65.628  1.00  0.00    -0.521 A  
HETATM   18  C   UNL     1     -10.037  12.438  64.899  1.00  0.00    -0.259 A  
HETATM   19  C   UNL     1     -11.963  12.124  63.460  1.00  0.00    -0.619 A  
ENDBRANCH   6  14
TORSDOF 1
ENDMDL
MODEL       12
REMARK 921   NORMALIZED FREE ENERGY PREDICTED BY IDOCK:   -5.69 KCAL/MOL
REMARK 922        TOTAL FREE ENERGY PREDICTED BY IDOCK:   -6.58 KCAL/MOL
REMARK 923 INTER-LIGAND FREE ENERGY PREDICTED BY IDOCK:   -6.00 KCAL/MOL
REMARK 924 INTRA-LIGAND FREE ENERGY PREDICTED BY IDOCK:   -0.58 KCAL/MOL
REMARK 927      BINDING AFFINITY PREDICTED BY RF-SCORE:    0.00 PKD
ROOT
HETATM    1  C   UNL     1      -8.263  16.441  66.379  1.00  0.00    -0.331 C  
HETATM    2  N   UNL     1      -9.072  15.279  66.076  1.00  0.00    -0.285 NA 
HETATM    3  C   UNL     1     -10.289  15.573  65.315  1.00  0.00    -0.386 C  
HETATM    4  C   UNL     1     -11.656  14.921  65.632  1.00  0.00    -0.245 C  
HETATM    5  O   UNL     1     -11.572  13.505  65.620  1.00  0.00    -0.312 OA 
HETATM    6  C   UNL     1     -11.710  12.820  66.878  1.00  0.00    -0.380 C  
HETATM    7  C   UNL     1      -9.052  14.232  67.086  1.00  0.00    -0.228 C  
HETATM    8  C   UNL     1     -11.319  13.656  68.100  1.00  0.00    -0.321 A  
HETATM    9  C   UNL     1     -10.087  14.345  68.181  1.00  0.00    -0.226 A  
HETATM   10  C   UNL     1     -12.277  13.858  69.117  1.00  0.00    -0.305 A  
HETATM   11  C   UNL     1      -9.853  15.211  69.264  1.00  0.00    -0.231 A  
HETATM   12  C   UNL     1     -12.034  14.738  70.171  1.00  0.00    -0.367 A  
HETATM   13  C   UNL     1     -10.822  15.414  70.245  1.00  0.00    -0.332 A  
ENDROOT
BRANCH   6  14
HETATM   14  C   UNL     1     -11.012  11.457  66.773  1.00  0.00    -0.347 A  
HETATM   15  C   UNL     1     -10.437   9.288  67.724  1.00  0.00    -0.313 A  
HETATM   16  C   UNL     1      -9.798   9.787  65.457  1.00  0.00    -0.378 A  
HETATM   17  C   UNL     1     -10.386  11.047  65.579  1.00  0.00    -0.321 A  
HETATM   18  C   UNL     1     -11.020  10.555  67.848  1.00  0.00    -0.352 A  
HETATM   19  C   UNL     1      -9.834   8.903  66.528  1.00  0.00    -0.344 A  
ENDBRANCH   6  14
TORSDOF 1
ENDMDL
MODEL       13
REMARK 921   NORMALIZED FREE ENERGY PREDICTED BY IDOCK:   -5.67 KCAL/MOL
REMARK 922        TOTAL FREE ENERGY PREDICTED BY IDOCK:   -6.57 KCAL/MOL
REMARK 923 INTER-LIGAND FREE ENERGY PREDICTED BY IDOCK:   -5.98 KCAL/MOL
REMARK 924 INTRA-LIGAND FREE ENERGY PREDICTED BY IDOCK:   -0.59 KCAL/MOL
REMARK 927      BINDING AFFINITY PREDICTED BY RF-SCORE:    0.00 PKD
ROOT
HETATM    1  C   UNL     1      -8.547  11.572  66.848  1.00  0.00    -0.163 C  
HETATM    2  N   UNL     1      -9.714  12.195  67.439  1.00  0.00    -0.178 NA 
HETATM    3  C   UNL     1     -10.870  12.279  66.543  1.00  0.00    -0.259 C  
HETATM    4  C   UNL     1     -11.765  13.539  66.444  1.00  0.00    -0.369 C  
HETATM    5  O   UNL     1     -12.279  13.913  67.712  1.00  0.00    -0.338 OA 
HETATM    6  C   UNL     1     -11.784  15.132  68.295  1.00  0.00    -0.314 C  
HETATM    7  C   UNL     1      -9.431  13.247  68.403  1.00  0.00    -0.172 C  
HETATM    8  C   UNL     1     -10.385  15.539  67.822  1.00  0.00    -0.263 A  
HETATM    9  C   UNL     1      -9.291  14.643  67.841  1.00  0.00    -0.198 A  
HETATM   10  C   UNL     1     -10.215  16.803  67.217  1.00  0.00    -0.292 A  
HETATM   11  C   UNL     1      -8.073  15.033  67.257  1.00  0.00    -0.237 A  
HETATM   12  C   UNL     1      -9.005  17.162  66.626  1.00  0.00    -0.278 A  
HETATM   13  C   UNL     1      -7.933  16.277  66.645  1.00  0.00    -0.324 A  
ENDROOT
BRANCH   6  14
HETATM   14  C   UNL     1     -11.956  15.052  69.818  1.00  0.00    -0.366 A  
HETATM   15  C   UNL     1     -11.682  16.017  72.039  1.00  0.00    -0.588 A  
HETATM   16  C   UNL     1     -12.868  13.936  71.797  1.00  0.00    -0.421 A  
HETATM   17  C   UNL     1     -12.658  13.987  70.418  1.00  0.00    -0.374 A  
HETATM   18  C   UNL     1     -11.465  16.065  70.657  1.00  0.00    -0.427 A  
HETATM   19  C   UNL     1     -12.389  14.958  72.606  1.00  0.00    -0.419 A  
ENDBRANCH   6  14
TORSDOF 1
ENDMDL
MODEL       14
REMARK 921   NORMALIZED FREE ENERGY PREDICTED BY IDOCK:   -5.66 KCAL/MOL
REMARK 922        TOTAL FREE ENERGY PREDICTED BY IDOCK:   -6.55 KCAL/MOL
REMARK 923 INTER-LIGAND FREE ENERGY PREDICTED BY IDOCK:   -5.99 KCAL/MOL
REMARK 924 INTRA-LIGAND FREE ENERGY PREDICTED BY IDOCK:   -0.57 KCAL/MOL
REMARK 927      BINDING AFFINITY PREDICTED BY RF-SCORE:    0.00 PKD
ROOT
HETATM    1  C   UNL     1     -10.037  19.899  66.521  1.00  0.00    -0.488 C  
HETATM    2  N   UNL     1     -10.496  18.550  66.780  1.00  0.00    -0.393 NA 
HETATM    3  C   UNL     1     -10.782  18.271  68.190  1.00  0.00    -0.199 C  
HETATM    4  C   UNL     1     -10.367  16.952  68.885  1.00  0.00    -0.333 C  
HETATM    5  O   UNL     1     -10.873  15.820  68.197  1.00  0.00    -0.283 OA 
HETATM    6  C   UNL     1      -9.925  14.976  67.519  1.00  0.00    -0.226 C  
HETATM    7  C   UNL     1      -9.933  17.528  65.910  1.00  0.00    -0.139 C  
HETATM    8  C   UNL     1      -8.634  15.685  67.098  1.00  0.00    -0.235 A  
HETATM    9  C   UNL     1      -8.640  16.899  66.375  1.00  0.00    -0.328 A  
HETATM   10  C   UNL     1      -7.401  15.184  67.570  1.00  0.00    -0.222 A  
HETATM   11  C   UNL     1      -7.427  17.572  66.148  1.00  0.00    -0.334 A  
HETATM   12  C   UNL     1      -6.211  15.877  67.353  1.00  0.00    -0.171 A  
HETATM   13  C   UNL     1      -6.223  17.071  66.643  1.00  0.00    -0.240 A  
ENDROOT
BRANCH   6  14
HETATM   14  C   UNL     1     -10.651  14.228  66.393  1.00  0.00    -0.286 A  
HETATM   15  C   UNL     1     -12.707  13.446  65.346  1.00  0.00    -0.484 A  
HETATM   16  C   UNL     1     -10.606  13.087  64.227  1.00  0.00    -0.434 A  
HETATM   17  C   UNL     1      -9.947  13.719  65.283  1.00  0.00    -0.245 A  
HETATM   18  C   UNL     1     -12.046  14.073  66.408  1.00  0.00    -0.483 A  
HETATM   19  C   UNL     1     -11.989  12.961  64.254  1.00  0.00    -0.463 A  
ENDBRANCH   6  14
TORSDOF 1
ENDMDL
MODEL       15
REMARK 921   NORMALIZED FREE ENERGY PREDICTED BY IDOCK:   -5.64 KCAL/MOL
REMARK 922        TOTAL FREE ENERGY PREDICTED BY IDOCK:   -6.54 KCAL/MOL
REMARK 923 INTER-LIGAND FREE ENERGY PREDICTED BY IDOCK:   -6.56 KCAL/MOL
REMARK 924 INTRA-LIGAND FREE ENERGY PREDICTED BY IDOCK:    0.02 KCAL/MOL
REMARK 927      BINDING AFFINITY PREDICTED BY RF-SCORE:    0.00 PKD
ROOT
HETATM    1  C   UNL     1     -10.027  17.057  66.464  1.00  0.00    -0.310 C  
HETATM    2  N   UNL     1      -9.984  15.900  67.334  1.00  0.00    -0.236 NA 
HETATM    3  C   UNL     1      -8.704  15.186  67.325  1.00  0.00    -0.202 C  
HETATM    4  C   UNL     1      -8.604  13.642  67.299  1.00  0.00    -0.214 C  
HETATM    5  O   UNL     1      -9.321  13.056  68.373  1.00  0.00    -0.206 OA 
HETATM    6  C   UNL     1     -10.512  12.315  68.051  1.00  0.00    -0.218 C  
HETATM    7  C   UNL     1     -11.243  15.184  67.472  1.00  0.00    -0.330 C  
HETATM    8  C   UNL     1     -11.189  12.741  66.745  1.00  0.00    -0.338 A  
HETATM    9  C   UNL     1     -11.500  14.090  66.461  1.00  0.00    -0.368 A  
HETATM   10  C   UNL     1     -11.381  11.774  65.735  1.00  0.00    -0.309 A  
HETATM   11  C   UNL     1     -11.986  14.431  65.186  1.00  0.00    -0.391 A  
HETATM   12  C   UNL     1     -11.844  12.135  64.470  1.00  0.00    -0.418 A  
HETATM   13  C   UNL     1     -12.146  13.463  64.195  1.00  0.00    -0.491 A  
ENDROOT
BRANCH   6  14
HETATM   14  C   UNL     1     -11.428  12.298  69.282  1.00  0.00    -0.352 A  
HETATM   15  C   UNL     1     -12.656  11.079  70.998  1.00  0.00    -0.512 A  
HETATM   16  C   UNL     1     -12.596  13.484  71.077  1.00  0.00    -0.438 A  
HETATM   17  C   UNL     1     -11.809  13.493  69.924  1.00  0.00    -0.386 A  
HETATM   18  C   UNL     1     -11.874  11.088  69.837  1.00  0.00    -0.431 A  
HETATM   19  C   UNL     1     -13.010  12.275  71.620  1.00  0.00    -0.416 A  
ENDBRANCH   6  14
TORSDOF 1
ENDMDL
MODEL       16
REMARK 921   NORMALIZED FREE ENERGY PREDICTED BY IDOCK:   -5.62 KCAL/MOL
REMARK 922        TOTAL FREE ENERGY PREDICTED BY IDOCK:   -6.52 KCAL/MOL
REMARK 923 INTER-LIGAND FREE ENERGY PREDICTED BY IDOCK:   -6.03 KCAL/MOL
REMARK 924 INTRA-LIGAND FREE ENERGY PREDICTED BY IDOCK:   -0.49 KCAL/MOL
REMARK 927      BINDING AFFINITY PREDICTED BY RF-SCORE:    0.00 PKD
ROOT
HETATM    1  C   UNL     1     -11.790  14.430  68.468  1.00  0.00    -0.334 C  
HETATM    2  N   UNL     1     -11.019  13.203  68.471  1.00  0.00    -0.253 NA 
HETATM    3  C   UNL     1      -9.575  13.399  68.324  1.00  0.00    -0.220 C  
HETATM    4  C   UNL     1      -8.696  12.506  67.415  1.00  0.00    -0.189 C  
HETATM    5  O   UNL     1      -8.829  11.134  67.748  1.00  0.00    -0.131 OA 
HETATM    6  C   UNL     1      -9.497  10.282  66.800  1.00  0.00    -0.163 C  
HETATM    7  C   UNL     1     -11.687  12.053  67.881  1.00  0.00    -0.323 C  
HETATM    8  C   UNL     1     -10.491  11.007  65.888  1.00  0.00    -0.300 A  
HETATM    9  C   UNL     1     -11.495  11.864  66.394  1.00  0.00    -0.371 A  
HETATM   10  C   UNL     1     -10.310  10.928  64.490  1.00  0.00    -0.417 A  
HETATM   11  C   UNL     1     -12.278  12.612  65.497  1.00  0.00    -0.501 A  
HETATM   12  C   UNL     1     -11.083  11.693  63.618  1.00  0.00    -0.506 A  
HETATM   13  C   UNL     1     -12.068  12.536  64.121  1.00  0.00    -0.530 A  
ENDROOT
BRANCH   6  14
HETATM   14  C   UNL     1     -10.068   9.069  67.547  1.00  0.00    -0.285 A  
HETATM   15  C   UNL     1     -10.899   6.779  67.554  1.00  0.00    -0.388 A  
HETATM   16  C   UNL     1     -10.654   7.948  69.643  1.00  0.00    -0.234 A  
HETATM   17  C   UNL     1     -10.188   9.067  68.951  1.00  0.00    -0.223 A  
HETATM   18  C   UNL     1     -10.440   7.903  66.859  1.00  0.00    -0.388 A  
HETATM   19  C   UNL     1     -10.998   6.799  68.943  1.00  0.00    -0.272 A  
ENDBRANCH   6  14
TORSDOF 1
ENDMDL
MODEL       17
REMARK 921   NORMALIZED FREE ENERGY PREDICTED BY IDOCK:   -5.61 KCAL/MOL
REMARK 922        TOTAL FREE ENERGY PREDICTED BY IDOCK:   -6.50 KCAL/MOL
REMARK 923 INTER-LIGAND FREE ENERGY PREDICTED BY IDOCK:   -6.19 KCAL/MOL
REMARK 924 INTRA-LIGAND FREE ENERGY PREDICTED BY IDOCK:   -0.31 KCAL/MOL
REMARK 927      BINDING AFFINITY PREDICTED BY RF-SCORE:    0.00 PKD
ROOT
HETATM    1  C   UNL     1     -11.697  12.478  66.666  1.00  0.00    -0.387 C  
HETATM    2  N   UNL     1     -10.875  13.654  66.869  1.00  0.00    -0.282 NA 
HETATM    3  C   UNL     1      -9.496  13.362  67.269  1.00  0.00    -0.234 C  
HETATM    4  C   UNL     1      -8.755  14.159  68.370  1.00  0.00    -0.178 C  
HETATM    5  O   UNL     1      -8.750  15.550  68.091  1.00  0.00    -0.161 OA 
HETATM    6  C   UNL     1      -9.537  16.401  68.944  1.00  0.00    -0.252 C  
HETATM    7  C   UNL     1     -11.578  14.818  67.386  1.00  0.00    -0.360 C  
HETATM    8  C   UNL     1     -10.721  15.702  69.618  1.00  0.00    -0.278 A  
HETATM    9  C   UNL     1     -11.657  14.931  68.891  1.00  0.00    -0.339 A  
HETATM   10  C   UNL     1     -10.800  15.711  71.027  1.00  0.00    -0.168 A  
HETATM   11  C   UNL     1     -12.634  14.198  69.587  1.00  0.00    -0.084 A  
HETATM   12  C   UNL     1     -11.763  14.960  71.700  1.00  0.00    -0.395 A  
HETATM   13  C   UNL     1     -12.680  14.203  70.981  1.00  0.00    -0.433 A  
ENDROOT
BRANCH   6  14
HETATM   14  C   UNL     1      -9.892  17.678  68.170  1.00  0.00    -0.318 A  
HETATM   15  C   UNL     1     -10.250  20.087  68.098  1.00  0.00    -0.535 A  
HETATM   16  C   UNL     1     -10.347  18.821  66.053  1.00  0.00    -0.467 A  
HETATM   17  C   UNL     1     -10.079  17.656  66.773  1.00  0.00    -0.334 A  
HETATM   18  C   UNL     1      -9.990  18.917  68.821  1.00  0.00    -0.466 A  
HETATM   19  C   UNL     1     -10.421  20.040  66.716  1.00  0.00    -0.520 A  
ENDBRANCH   6  14
TORSDOF 1
ENDMDL
MODEL       18
REMARK 921   NORMALIZED FREE ENERGY PREDICTED BY IDOCK:   -5.60 KCAL/MOL
REMARK 922        TOTAL FREE ENERGY PREDICTED BY IDOCK:   -6.49 KCAL/MOL
REMARK 923 INTER-LIGAND FREE ENERGY PREDICTED BY IDOCK:   -6.19 KCAL/MOL
REMARK 924 INTRA-LIGAND FREE ENERGY PREDICTED BY IDOCK:   -0.30 KCAL/MOL
REMARK 927      BINDING AFFINITY PREDICTED BY RF-SCORE:    0.00 PKD
ROOT
HETATM    1  C   UNL     1      -9.728  16.206  68.646  1.00  0.00    -0.227 C  
HETATM    2  N   UNL     1      -9.597  14.785  68.893  1.00  0.00    -0.219 NA 
HETATM    3  C   UNL     1      -8.415  14.173  68.279  1.00  0.00    -0.169 C  
HETATM    4  C   UNL     1      -8.456  12.801  67.564  1.00  0.00    -0.181 C  
HETATM    5  O   UNL     1      -8.971  11.788  68.412  1.00  0.00    -0.178 OA 
HETATM    6  C   UNL     1     -10.262  11.242  68.086  1.00  0.00    -0.180 C  
HETATM    7  C   UNL     1     -10.853  14.057  68.994  1.00  0.00    -0.243 C  
HETATM    8  C   UNL     1     -11.167  12.187  67.291  1.00  0.00    -0.366 A  
HETATM    9  C   UNL     1     -11.415  13.518  67.700  1.00  0.00    -0.351 A  
HETATM   10  C   UNL     1     -11.655  11.761  66.037  1.00  0.00    -0.206 A  
HETATM   11  C   UNL     1     -12.134  14.376  66.849  1.00  0.00    -0.386 A  
HETATM   12  C   UNL     1     -12.348  12.634  65.199  1.00  0.00    -0.547 A  
HETATM   13  C   UNL     1     -12.588  13.942  65.605  1.00  0.00    -0.553 A  
ENDROOT
BRANCH   6  14
HETATM   14  C   UNL     1     -10.888  10.666  69.364  1.00  0.00    -0.289 A  
HETATM   15  C   UNL     1     -12.803  10.367  70.841  1.00  0.00    -0.482 A  
HETATM   16  C   UNL     1     -10.744   9.223  71.336  1.00  0.00    -0.432 A  
HETATM   17  C   UNL     1     -10.164   9.795  70.203  1.00  0.00    -0.328 A  
HETATM   18  C   UNL     1     -12.219  10.948  69.709  1.00  0.00    -0.381 A  
HETATM   19  C   UNL     1     -12.069   9.501  71.648  1.00  0.00    -0.474 A  
ENDBRANCH   6  14
TORSDOF 1
ENDMDL
MODEL       19
REMARK 921   NORMALIZED FREE ENERGY PREDICTED BY IDOCK:   -5.56 KCAL/MOL
REMARK 922        TOTAL FREE ENERGY PREDICTED BY IDOCK:   -6.45 KCAL/MOL
REMARK 923 INTER-LIGAND FREE ENERGY PREDICTED BY IDOCK:   -6.12 KCAL/MOL
REMARK 924 INTRA-LIGAND FREE ENERGY PREDICTED BY IDOCK:   -0.34 KCAL/MOL
REMARK 927      BINDING AFFINITY PREDICTED BY RF-SCORE:    0.00 PKD
ROOT
HETATM    1  C   UNL     1     -12.245  13.128  64.129  1.00  0.00    -0.398 C  
HETATM    2  N   UNL     1     -12.164  13.886  65.361  1.00  0.00    -0.417 NA 
HETATM    3  C   UNL     1     -11.519  15.194  65.222  1.00  0.00    -0.266 C  
HETATM    4  C   UNL     1     -10.504  15.743  66.253  1.00  0.00    -0.309 C  
HETATM    5  O   UNL     1     -11.049  15.761  67.562  1.00  0.00    -0.317 OA 
HETATM    6  C   UNL     1     -10.505  14.838  68.522  1.00  0.00    -0.249 C  
HETATM    7  C   UNL     1     -11.995  13.088  66.567  1.00  0.00    -0.391 C  
HETATM    8  C   UNL     1      -9.883  13.580  67.908  1.00  0.00    -0.235 A  
HETATM    9  C   UNL     1     -10.570  12.780  66.965  1.00  0.00    -0.253 A  
HETATM   10  C   UNL     1      -8.530  13.288  68.185  1.00  0.00    -0.173 A  
HETATM   11  C   UNL     1      -9.890  11.725  66.332  1.00  0.00    -0.237 A  
HETATM   12  C   UNL     1      -7.867  12.251  67.530  1.00  0.00    -0.166 A  
HETATM   13  C   UNL     1      -8.547  11.469  66.603  1.00  0.00    -0.176 A  
ENDROOT
BRANCH   6  14
HETATM   14  C   UNL     1     -11.560  14.577  69.605  1.00  0.00    -0.346 A  
HETATM   15  C   UNL     1     -12.735  13.055  71.101  1.00  0.00    -0.372 A  
HETATM   16  C   UNL     1     -13.187  15.416  71.231  1.00  0.00    -0.585 A  
HETATM   17  C   UNL     1     -12.266  15.639  70.206  1.00  0.00    -0.416 A  
HETATM   18  C   UNL     1     -11.818  13.277  70.068  1.00  0.00    -0.365 A  
HETATM   19  C   UNL     1     -13.412  14.123  71.687  1.00  0.00    -0.448 A  
ENDBRANCH   6  14
TORSDOF 1
ENDMDL
MODEL       20
REMARK 921   NORMALIZED FREE ENERGY PREDICTED BY IDOCK:   -5.55 KCAL/MOL
REMARK 922        TOTAL FREE ENERGY PREDICTED BY IDOCK:   -6.44 KCAL/MOL
REMARK 923 INTER-LIGAND FREE ENERGY PREDICTED BY IDOCK:   -6.22 KCAL/MOL
REMARK 924 INTRA-LIGAND FREE ENERGY PREDICTED BY IDOCK:   -0.22 KCAL/MOL
REMARK 927      BINDING AFFINITY PREDICTED BY RF-SCORE:    0.00 PKD
ROOT
HETATM    1  C   UNL     1      -7.124  14.725  67.544  1.00  0.00    -0.184 C  
HETATM    2  N   UNL     1      -8.200  14.043  68.234  1.00  0.00    -0.146 NA 
HETATM    3  C   UNL     1      -8.231  12.594  68.018  1.00  0.00    -0.167 C  
HETATM    4  C   UNL     1      -9.541  11.811  67.764  1.00  0.00    -0.184 C  
HETATM    5  O   UNL     1     -10.487  12.029  68.799  1.00  0.00    -0.222 OA 
HETATM    6  C   UNL     1     -11.666  12.787  68.473  1.00  0.00    -0.333 C  
HETATM    7  C   UNL     1      -9.429  14.810  68.371  1.00  0.00    -0.213 C  
HETATM    8  C   UNL     1     -11.490  13.758  67.301  1.00  0.00    -0.367 A  
HETATM    9  C   UNL     1     -10.421  14.681  67.238  1.00  0.00    -0.266 A  
HETATM   10  C   UNL     1     -12.342  13.630  66.182  1.00  0.00    -0.476 A  
HETATM   11  C   UNL     1     -10.235  15.440  66.070  1.00  0.00    -0.343 A  
HETATM   12  C   UNL     1     -12.127  14.377  65.025  1.00  0.00    -0.417 A  
HETATM   13  C   UNL     1     -11.074  15.282  64.967  1.00  0.00    -0.436 A  
ENDROOT
BRANCH   6  14
HETATM   14  C   UNL     1     -12.216  13.416  69.759  1.00  0.00    -0.307 A  
HETATM   15  C   UNL     1     -13.061  15.344  70.987  1.00  0.00    -0.565 A  
HETATM   16  C   UNL     1     -13.059  13.183  72.046  1.00  0.00    -0.476 A  
HETATM   17  C   UNL     1     -12.505  12.628  70.892  1.00  0.00    -0.368 A  
HETATM   18  C   UNL     1     -12.498  14.789  69.832  1.00  0.00    -0.283 A  
HETATM   19  C   UNL     1     -13.347  14.541  72.089  1.00  0.00    -0.471 A  
ENDBRANCH   6  14
TORSDOF 1
ENDMDL
MODEL       21
REMARK 921   NORMALIZED FREE ENERGY PREDICTED BY IDOCK:   -5.49 KCAL/MOL
REMARK 922        TOTAL FREE ENERGY PREDICTED BY IDOCK:   -6.38 KCAL/MOL
REMARK 923 INTER-LIGAND FREE ENERGY PREDICTED BY IDOCK:   -5.81 KCAL/MOL
REMARK 924 INTRA-LIGAND FREE ENERGY PREDICTED BY IDOCK:   -0.56 KCAL/MOL
REMARK 927      BINDING AFFINITY PREDICTED BY RF-SCORE:    0.00 PKD
ROOT
HETATM    1  C   UNL     1     -11.659  14.235  68.387  1.00  0.00    -0.320 C  
HETATM    2  N   UNL     1     -10.868  13.021  68.368  1.00  0.00    -0.249 NA 
HETATM    3  C   UNL     1      -9.424  13.245  68.252  1.00  0.00    -0.209 C  
HETATM    4  C   UNL     1      -8.514  12.395  67.333  1.00  0.00    -0.179 C  
HETATM    5  O   UNL     1      -8.630  11.011  67.623  1.00  0.00    -0.123 OA 
HETATM    6  C   UNL     1      -9.266  10.177  66.638  1.00  0.00    -0.155 C  
HETATM    7  C   UNL     1     -11.505  11.878  67.731  1.00  0.00    -0.319 C  
HETATM    8  C   UNL     1     -10.256  10.913  65.730  1.00  0.00    -0.318 A  
HETATM    9  C   UNL     1     -11.283  11.738  66.243  1.00  0.00    -0.370 A  
HETATM   10  C   UNL     1     -10.049  10.879  64.334  1.00  0.00    -0.402 A  
HETATM   11  C   UNL     1     -12.064  12.499  65.355  1.00  0.00    -0.494 A  
HETATM   12  C   UNL     1     -10.820  11.658  63.472  1.00  0.00    -0.497 A  
HETATM   13  C   UNL     1     -11.827  12.468  63.982  1.00  0.00    -0.510 A  
ENDROOT
BRANCH   6  14
HETATM   14  C   UNL     1      -9.829   8.933  67.338  1.00  0.00    -0.247 A  
HETATM   15  C   UNL     1     -10.432   7.731  69.369  1.00  0.00    -0.221 A  
HETATM   16  C   UNL     1     -10.947   6.758  67.229  1.00  0.00    -0.433 A  
HETATM   17  C   UNL     1     -10.382   7.868  66.599  1.00  0.00    -0.270 A  
HETATM   18  C   UNL     1      -9.858   8.840  68.738  1.00  0.00    -0.180 A  
HETATM   19  C   UNL     1     -10.982   6.696  68.616  1.00  0.00    -0.317 A  
ENDBRANCH   6  14
TORSDOF 1
ENDMDL
MODEL       22
REMARK 921   NORMALIZED FREE ENERGY PREDICTED BY IDOCK:   -5.42 KCAL/MOL
REMARK 922        TOTAL FREE ENERGY PREDICTED BY IDOCK:   -6.30 KCAL/MOL
REMARK 923 INTER-LIGAND FREE ENERGY PREDICTED BY IDOCK:   -5.72 KCAL/MOL
REMARK 924 INTRA-LIGAND FREE ENERGY PREDICTED BY IDOCK:   -0.58 KCAL/MOL
REMARK 927      BINDING AFFINITY PREDICTED BY RF-SCORE:    0.00 PKD
ROOT
HETATM    1  C   UNL     1     -10.539  16.531  65.663  1.00  0.00    -0.304 C  
HETATM    2  N   UNL     1     -10.772  15.234  65.061  1.00  0.00    -0.430 NA 
HETATM    3  C   UNL     1     -12.153  15.012  64.624  1.00  0.00    -0.323 C  
HETATM    4  C   UNL     1     -12.901  13.676  64.852  1.00  0.00    -0.203 C  
HETATM    5  O   UNL     1     -12.184  12.580  64.309  1.00  0.00    -0.400 OA 
HETATM    6  C   UNL     1     -11.607  11.640  65.234  1.00  0.00    -0.035 C  
HETATM    7  C   UNL     1      -9.971  14.147  65.604  1.00  0.00    -0.306 C  
HETATM    8  C   UNL     1     -11.298  12.221  66.617  1.00  0.00    -0.398 A  
HETATM    9  C   UNL     1     -10.561  13.415  66.787  1.00  0.00    -0.277 A  
HETATM   10  C   UNL     1     -11.888  11.621  67.751  1.00  0.00    -0.247 A  
HETATM   11  C   UNL     1     -10.439  13.971  68.073  1.00  0.00    -0.241 A  
HETATM   12  C   UNL     1     -11.773  12.200  69.014  1.00  0.00    -0.377 A  
HETATM   13  C   UNL     1     -11.049  13.375  69.176  1.00  0.00    -0.261 A  
ENDROOT
BRANCH   6  14
HETATM   14  C   UNL     1     -10.429  10.936  64.548  1.00  0.00    -0.393 A  
HETATM   15  C   UNL     1      -8.661   9.259  64.557  1.00  0.00    -0.217 A  
HETATM   16  C   UNL     1      -9.046  10.553  62.564  1.00  0.00    -0.317 A  
HETATM   17  C   UNL     1     -10.081  11.229  63.214  1.00  0.00    -0.428 A  
HETATM   18  C   UNL     1      -9.693   9.942  65.211  1.00  0.00    -0.383 A  
HETATM   19  C   UNL     1      -8.344   9.559  63.233  1.00  0.00    -0.181 A  
ENDBRANCH   6  14
TORSDOF 1
ENDMDL
MODEL       23
REMARK 921   NORMALIZED FREE ENERGY PREDICTED BY IDOCK:   -5.41 KCAL/MOL
REMARK 922        TOTAL FREE ENERGY PREDICTED BY IDOCK:   -6.29 KCAL/MOL
REMARK 923 INTER-LIGAND FREE ENERGY PREDICTED BY IDOCK:   -5.79 KCAL/MOL
REMARK 924 INTRA-LIGAND FREE ENERGY PREDICTED BY IDOCK:   -0.50 KCAL/MOL
REMARK 927      BINDING AFFINITY PREDICTED BY RF-SCORE:    0.00 PKD
ROOT
HETATM    1  C   UNL     1     -11.910  14.972  68.492  1.00  0.00    -0.291 C  
HETATM    2  N   UNL     1     -11.035  13.819  68.418  1.00  0.00    -0.245 NA 
HETATM    3  C   UNL     1      -9.633  14.144  68.143  1.00  0.00    -0.218 C  
HETATM    4  C   UNL     1      -8.762  13.334  67.153  1.00  0.00    -0.212 C  
HETATM    5  O   UNL     1      -8.741  11.956  67.486  1.00  0.00    -0.151 OA 
HETATM    6  C   UNL     1      -9.412  11.047  66.595  1.00  0.00    -0.184 C  
HETATM    7  C   UNL     1     -11.647  12.613  67.881  1.00  0.00    -0.349 C  
HETATM    8  C   UNL     1     -10.545  11.679  65.781  1.00  0.00    -0.320 A  
HETATM    9  C   UNL     1     -11.572  12.442  66.381  1.00  0.00    -0.442 A  
HETATM   10  C   UNL     1     -10.483  11.615  64.372  1.00  0.00    -0.374 A  
HETATM   11  C   UNL     1     -12.497  13.115  65.564  1.00  0.00    -0.516 A  
HETATM   12  C   UNL     1     -11.397  12.308  63.579  1.00  0.00    -0.549 A  
HETATM   13  C   UNL     1     -12.404  13.058  64.174  1.00  0.00    -0.429 A  
ENDROOT
BRANCH   6  14
HETATM   14  C   UNL     1      -9.802   9.788  67.381  1.00  0.00    -0.219 A  
HETATM   15  C   UNL     1     -10.235   8.653  69.493  1.00  0.00    -0.209 A  
HETATM   16  C   UNL     1     -10.619   7.480  67.426  1.00  0.00    -0.364 A  
HETATM   17  C   UNL     1     -10.209   8.611  66.719  1.00  0.00    -0.361 A  
HETATM   18  C   UNL     1      -9.816   9.785  68.784  1.00  0.00    -0.176 A  
HETATM   19  C   UNL     1     -10.643   7.506  68.815  1.00  0.00    -0.179 A  
ENDBRANCH   6  14
TORSDOF 1
ENDMDL
MODEL       24
REMARK 921   NORMALIZED FREE ENERGY PREDICTED BY IDOCK:   -5.35 KCAL/MOL
REMARK 922        TOTAL FREE ENERGY PREDICTED BY IDOCK:   -6.23 KCAL/MOL
REMARK 923 INTER-LIGAND FREE ENERGY PREDICTED BY IDOCK:   -5.68 KCAL/MOL
REMARK 924 INTRA-LIGAND FREE ENERGY PREDICTED BY IDOCK:   -0.55 KCAL/MOL
REMARK 927      BINDING AFFINITY PREDICTED BY RF-SCORE:    0.00 PKD
ROOT
HETATM    1  C   UNL     1     -11.719  12.257  65.954  1.00  0.00    -0.389 C  
HETATM    2  N   UNL     1     -11.973  13.359  66.860  1.00  0.00    -0.391 NA 
HETATM    3  C   UNL     1     -11.852  14.684  66.246  1.00  0.00    -0.291 C  
HETATM    4  C   UNL     1     -11.154  15.873  66.948  1.00  0.00    -0.082 C  
HETATM    5  O   UNL     1     -11.721  16.131  68.222  1.00  0.00    -0.281 OA 
HETATM    6  C   UNL     1     -10.914  15.844  69.379  1.00  0.00    -0.309 C  
HETATM    7  C   UNL     1     -11.571  13.129  68.239  1.00  0.00    -0.335 C  
HETATM    8  C   UNL     1      -9.847  14.768  69.156  1.00  0.00    -0.167 A  
HETATM    9  C   UNL     1     -10.151  13.509  68.589  1.00  0.00    -0.170 A  
HETATM   10  C   UNL     1      -8.495  15.096  69.393  1.00  0.00    -0.190 A  
HETATM   11  C   UNL     1      -9.104  12.624  68.277  1.00  0.00    -0.181 A  
HETATM   12  C   UNL     1      -7.470  14.213  69.056  1.00  0.00    -0.082 A  
HETATM   13  C   UNL     1      -7.774  12.977  68.498  1.00  0.00    -0.111 A  
ENDROOT
BRANCH   6  14
HETATM   14  C   UNL     1     -11.842  15.599  70.576  1.00  0.00    -0.402 A  
HETATM   15  C   UNL     1     -14.059  15.162  71.490  1.00  0.00    -0.636 A  
HETATM   16  C   UNL     1     -12.159  15.187  72.969  1.00  0.00    -0.483 A  
HETATM   17  C   UNL     1     -11.329  15.465  71.882  1.00  0.00    -0.466 A  
HETATM   18  C   UNL     1     -13.227  15.450  70.401  1.00  0.00    -0.139 A  
HETATM   19  C   UNL     1     -13.525  15.024  72.769  1.00  0.00    -0.574 A  
ENDBRANCH   6  14
TORSDOF 1
ENDMDL
MODEL       25
REMARK 921   NORMALIZED FREE ENERGY PREDICTED BY IDOCK:   -5.32 KCAL/MOL
REMARK 922        TOTAL FREE ENERGY PREDICTED BY IDOCK:   -6.20 KCAL/MOL
REMARK 923 INTER-LIGAND FREE ENERGY PREDICTED BY IDOCK:   -5.62 KCAL/MOL
REMARK 924 INTRA-LIGAND FREE ENERGY PREDICTED BY IDOCK:   -0.59 KCAL/MOL
REMARK 927      BINDING AFFINITY PREDICTED BY RF-SCORE:    0.00 PKD
ROOT
HETATM    1  C   UNL     1      -6.573  11.964  66.978  1.00  0.00    -0.128 C  
HETATM    2  N   UNL     1      -7.965  11.735  67.310  1.00  0.00    -0.153 NA 
HETATM    3  C   UNL     1      -8.726  11.041  66.268  1.00  0.00    -0.176 C  
HETATM    4  C   UNL     1     -10.162  11.453  65.863  1.00  0.00    -0.246 C  
HETATM    5  O   UNL     1     -11.034  11.466  66.981  1.00  0.00    -0.264 OA 
HETATM    6  C   UNL     1     -11.516  12.745  67.433  1.00  0.00    -0.340 C  
HETATM    7  C   UNL     1      -8.581  12.766  68.132  1.00  0.00    -0.185 C  
HETATM    8  C   UNL     1     -10.599  13.924  67.091  1.00  0.00    -0.277 A  
HETATM    9  C   UNL     1      -9.217  13.917  67.388  1.00  0.00    -0.224 A  
HETATM   10  C   UNL     1     -11.123  14.990  66.328  1.00  0.00    -0.334 A  
HETATM   11  C   UNL     1      -8.407  14.965  66.917  1.00  0.00    -0.212 A  
HETATM   12  C   UNL     1     -10.299  16.009  65.852  1.00  0.00    -0.386 A  
HETATM   13  C   UNL     1      -8.940  15.996  66.146  1.00  0.00    -0.381 A  
ENDROOT
BRANCH   6  14
HETATM   14  C   UNL     1     -11.899  12.630  68.914  1.00  0.00    -0.345 A  
HETATM   15  C   UNL     1     -12.695  13.637  70.985  1.00  0.00    -0.408 A  
HETATM   16  C   UNL     1     -12.326  11.259  70.898  1.00  0.00    -0.490 A  
HETATM   17  C   UNL     1     -11.925  11.380  69.566  1.00  0.00    -0.409 A  
HETATM   18  C   UNL     1     -12.285  13.759  69.653  1.00  0.00    -0.359 A  
HETATM   19  C   UNL     1     -12.723  12.388  71.604  1.00  0.00    -0.299 A  
ENDBRANCH   6  14
TORSDOF 1
ENDMDL
MODEL       26
REMARK 921   NORMALIZED FREE ENERGY PREDICTED BY IDOCK:   -5.31 KCAL/MOL
REMARK 922        TOTAL FREE ENERGY PREDICTED BY IDOCK:   -6.18 KCAL/MOL
REMARK 923 INTER-LIGAND FREE ENERGY PREDICTED BY IDOCK:   -5.58 KCAL/MOL
REMARK 924 INTRA-LIGAND FREE ENERGY PREDICTED BY IDOCK:   -0.60 KCAL/MOL
REMARK 927      BINDING AFFINITY PREDICTED BY RF-SCORE:    0.00 PKD
ROOT
HETATM    1  C   UNL     1     -11.439  15.293  64.826  1.00  0.00    -0.363 C  
HETATM    2  N   UNL     1     -10.740  15.103  66.080  1.00  0.00    -0.318 NA 
HETATM    3  C   UNL     1     -11.607  14.744  67.205  1.00  0.00    -0.359 C  
HETATM    4  C   UNL     1     -11.446  15.355  68.618  1.00  0.00    -0.346 C  
HETATM    5  O   UNL     1     -10.132  15.170  69.118  1.00  0.00    -0.226 OA 
HETATM    6  C   UNL     1      -9.301  16.337  69.251  1.00  0.00    -0.202 C  
HETATM    7  C   UNL     1      -9.573  15.952  66.271  1.00  0.00    -0.316 C  
HETATM    8  C   UNL     1      -9.667  17.485  68.306  1.00  0.00    -0.311 A  
HETATM    9  C   UNL     1      -9.828  17.296  66.914  1.00  0.00    -0.287 A  
HETATM   10  C   UNL     1      -9.990  18.742  68.861  1.00  0.00    -0.423 A  
HETATM   11  C   UNL     1     -10.306  18.358  66.126  1.00  0.00    -0.431 A  
HETATM   12  C   UNL     1     -10.484  19.776  68.065  1.00  0.00    -0.523 A  
HETATM   13  C   UNL     1     -10.642  19.584  66.698  1.00  0.00    -0.583 A  
ENDROOT
BRANCH   6  14
HETATM   14  C   UNL     1      -7.831  15.900  69.204  1.00  0.00    -0.227 A  
HETATM   15  C   UNL     1      -6.138  14.151  69.096  1.00  0.00    -0.097 A  
HETATM   16  C   UNL     1      -5.455  16.457  69.004  1.00  0.00    -0.119 A  
HETATM   17  C   UNL     1      -6.791  16.847  69.105  1.00  0.00    -0.238 A  
HETATM   18  C   UNL     1      -7.478  14.542  69.205  1.00  0.00    -0.118 A  
HETATM   19  C   UNL     1      -5.130  15.107  68.988  1.00  0.00    -0.095 A  
ENDBRANCH   6  14
TORSDOF 1
ENDMDL
MODEL       27
REMARK 921   NORMALIZED FREE ENERGY PREDICTED BY IDOCK:   -5.29 KCAL/MOL
REMARK 922        TOTAL FREE ENERGY PREDICTED BY IDOCK:   -6.16 KCAL/MOL
REMARK 923 INTER-LIGAND FREE ENERGY PREDICTED BY IDOCK:   -5.70 KCAL/MOL
REMARK 924 INTRA-LIGAND FREE ENERGY PREDICTED BY IDOCK:   -0.46 KCAL/MOL
REMARK 927      BINDING AFFINITY PREDICTED BY RF-SCORE:    0.00 PKD
ROOT
HETATM    1  C   UNL     1     -11.215  16.004  69.914  1.00  0.00    -0.361 C  
HETATM    2  N   UNL     1     -11.574  14.866  69.093  1.00  0.00    -0.290 NA 
HETATM    3  C   UNL     1     -12.110  13.727  69.843  1.00  0.00    -0.348 C  
HETATM    4  C   UNL     1     -11.710  12.262  69.544  1.00  0.00    -0.332 C  
HETATM    5  O   UNL     1     -11.944  11.926  68.187  1.00  0.00    -0.496 OA 
HETATM    6  C   UNL     1     -10.795  11.704  67.349  1.00  0.00    -0.250 C  
HETATM    7  C   UNL     1     -10.743  14.667  67.915  1.00  0.00    -0.250 C  
HETATM    8  C   UNL     1      -9.527  12.429  67.809  1.00  0.00    -0.199 A  
HETATM    9  C   UNL     1      -9.513  13.811  68.108  1.00  0.00    -0.212 A  
HETATM   10  C   UNL     1      -8.370  11.666  68.079  1.00  0.00    -0.148 A  
HETATM   11  C   UNL     1      -8.355  14.383  68.665  1.00  0.00    -0.147 A  
HETATM   12  C   UNL     1      -7.240  12.248  68.651  1.00  0.00    -0.105 A  
HETATM   13  C   UNL     1      -7.232  13.606  68.945  1.00  0.00    -0.083 A  
ENDROOT
BRANCH   6  14
HETATM   14  C   UNL     1     -11.195  11.960  65.890  1.00  0.00    -0.373 A  
HETATM   15  C   UNL     1     -10.852  11.612  63.502  1.00  0.00    -0.497 A  
HETATM   16  C   UNL     1     -12.758  12.881  64.245  1.00  0.00    -0.286 A  
HETATM   17  C   UNL     1     -12.356  12.692  65.569  1.00  0.00    -0.455 A  
HETATM   18  C   UNL     1     -10.445  11.428  64.829  1.00  0.00    -0.366 A  
HETATM   19  C   UNL     1     -12.010  12.330  63.212  1.00  0.00    -0.499 A  
ENDBRANCH   6  14
TORSDOF 1
ENDMDL
MODEL       28
REMARK 921   NORMALIZED FREE ENERGY PREDICTED BY IDOCK:   -5.27 KCAL/MOL
REMARK 922        TOTAL FREE ENERGY PREDICTED BY IDOCK:   -6.15 KCAL/MOL
REMARK 923 INTER-LIGAND FREE ENERGY PREDICTED BY IDOCK:   -5.56 KCAL/MOL
REMARK 924 INTRA-LIGAND FREE ENERGY PREDICTED BY IDOCK:   -0.59 KCAL/MOL
REMARK 927      BINDING AFFINITY PREDICTED BY RF-SCORE:    0.00 PKD
ROOT
HETATM    1  C   UNL     1     -10.272   4.823  71.295  1.00  0.00    -0.158 C  
HETATM    2  N   UNL     1      -9.924   6.211  71.069  1.00  0.00    -0.182 NA 
HETATM    3  C   UNL     1      -9.279   6.865  72.210  1.00  0.00    -0.134 C  
HETATM    4  C   UNL     1      -9.632   8.301  72.664  1.00  0.00    -0.282 C  
HETATM    5  O   UNL     1      -9.488   9.232  71.604  1.00  0.00    -0.294 OA 
HETATM    6  C   UNL     1     -10.688   9.825  71.074  1.00  0.00    -0.272 C  
HETATM    7  C   UNL     1     -10.835   6.942  70.200  1.00  0.00    -0.263 C  
HETATM    8  C   UNL     1     -11.949   8.976  71.258  1.00  0.00    -0.374 A  
HETATM    9  C   UNL     1     -12.005   7.615  70.880  1.00  0.00    -0.252 A  
HETATM   10  C   UNL     1     -13.043   9.531  71.956  1.00  0.00    -0.528 A  
HETATM   11  C   UNL     1     -13.141   6.855  71.209  1.00  0.00    -0.273 A  
HETATM   12  C   UNL     1     -14.152   8.754  72.292  1.00  0.00    -0.511 A  
HETATM   13  C   UNL     1     -14.201   7.416  71.919  1.00  0.00    -0.474 A  
ENDROOT
BRANCH   6  14
HETATM   14  C   UNL     1     -10.416  10.280  69.634  1.00  0.00    -0.286 A  
HETATM   15  C   UNL     1      -8.965  10.384  67.679  1.00  0.00    -0.139 A  
HETATM   16  C   UNL     1     -11.192  11.287  67.542  1.00  0.00    -0.357 A  
HETATM   17  C   UNL     1     -11.412  10.921  68.870  1.00  0.00    -0.369 A  
HETATM   18  C   UNL     1      -9.182  10.024  69.014  1.00  0.00    -0.180 A  
HETATM   19  C   UNL     1      -9.970  11.007  66.943  1.00  0.00    -0.231 A  
ENDBRANCH   6  14
TORSDOF 1
ENDMDL
MODEL       29
REMARK 921   NORMALIZED FREE ENERGY PREDICTED BY IDOCK:   -5.27 KCAL/MOL
REMARK 922        TOTAL FREE ENERGY PREDICTED BY IDOCK:   -6.15 KCAL/MOL
REMARK 923 INTER-LIGAND FREE ENERGY PREDICTED BY IDOCK:   -5.56 KCAL/MOL
REMARK 924 INTRA-LIGAND FREE ENERGY PREDICTED BY IDOCK:   -0.59 KCAL/MOL
REMARK 927      BINDING AFFINITY PREDICTED BY RF-SCORE:    0.00 PKD
ROOT
HETATM    1  C   UNL     1     -10.668  16.455  65.195  1.00  0.00    -0.291 C  
HETATM    2  N   UNL     1     -10.713  15.014  65.044  1.00  0.00    -0.409 NA 
HETATM    3  C   UNL     1     -12.019  14.492  64.636  1.00  0.00    -0.468 C  
HETATM    4  C   UNL     1     -12.644  13.218  65.255  1.00  0.00    -0.470 C  
HETATM    5  O   UNL     1     -11.773  12.104  65.143  1.00  0.00    -0.350 OA 
HETATM    6  C   UNL     1     -11.188  11.594  66.355  1.00  0.00    -0.287 C  
HETATM    7  C   UNL     1      -9.857  14.271  65.957  1.00  0.00    -0.314 C  
HETATM    8  C   UNL     1     -11.065  12.624  67.482  1.00  0.00    -0.313 A  
HETATM    9  C   UNL     1     -10.472  13.892  67.284  1.00  0.00    -0.271 A  
HETATM   10  C   UNL     1     -11.689  12.354  68.719  1.00  0.00    -0.379 A  
HETATM   11  C   UNL     1     -10.522  14.844  68.318  1.00  0.00    -0.239 A  
HETATM   12  C   UNL     1     -11.747  13.319  69.723  1.00  0.00    -0.354 A  
HETATM   13  C   UNL     1     -11.164  14.564  69.523  1.00  0.00    -0.300 A  
ENDROOT
BRANCH   6  14
HETATM   14  C   UNL     1      -9.888  10.861  66.001  1.00  0.00    -0.280 A  
HETATM   15  C   UNL     1      -7.885   9.647  66.674  1.00  0.00    -0.105 A  
HETATM   16  C   UNL     1      -8.381   9.894  64.331  1.00  0.00    -0.169 A  
HETATM   17  C   UNL     1      -9.533  10.609  64.660  1.00  0.00    -0.308 A  
HETATM   18  C   UNL     1      -9.036  10.371  67.004  1.00  0.00    -0.153 A  
HETATM   19  C   UNL     1      -7.562   9.403  65.340  1.00  0.00    -0.100 A  
ENDBRANCH   6  14
TORSDOF 1
ENDMDL
MODEL       30
REMARK 921   NORMALIZED FREE ENERGY PREDICTED BY IDOCK:   -5.24 KCAL/MOL
REMARK 922        TOTAL FREE ENERGY PREDICTED BY IDOCK:   -6.12 KCAL/MOL
REMARK 923 INTER-LIGAND FREE ENERGY PREDICTED BY IDOCK:   -5.79 KCAL/MOL
REMARK 924 INTRA-LIGAND FREE ENERGY PREDICTED BY IDOCK:   -0.33 KCAL/MOL
REMARK 927      BINDING AFFINITY PREDICTED BY RF-SCORE:    0.00 PKD
ROOT
HETATM    1  C   UNL     1      -7.110   7.825  72.917  1.00  0.00    -0.079 C  
HETATM    2  N   UNL     1      -8.484   8.283  72.902  1.00  0.00    -0.254 NA 
HETATM    3  C   UNL     1      -9.380   7.532  73.785  1.00  0.00    -0.279 C  
HETATM    4  C   UNL     1     -10.806   7.102  73.365  1.00  0.00    -0.319 C  
HETATM    5  O   UNL     1     -11.582   8.212  72.946  1.00  0.00    -0.386 OA 
HETATM    6  C   UNL     1     -11.922   8.296  71.550  1.00  0.00    -0.296 C  
HETATM    7  C   UNL     1      -8.948   8.801  71.623  1.00  0.00    -0.231 C  
HETATM    8  C   UNL     1     -10.944   7.576  70.616  1.00  0.00    -0.263 A  
HETATM    9  C   UNL     1      -9.548   7.788  70.675  1.00  0.00    -0.166 A  
HETATM   10  C   UNL     1     -11.441   6.565  69.765  1.00  0.00    -0.443 A  
HETATM   11  C   UNL     1      -8.697   6.989  69.892  1.00  0.00    -0.142 A  
HETATM   12  C   UNL     1     -10.579   5.769  69.012  1.00  0.00    -0.351 A  
HETATM   13  C   UNL     1      -9.206   5.980  69.076  1.00  0.00    -0.125 A  
ENDROOT
BRANCH   6  14
HETATM   14  C   UNL     1     -12.193   9.765  71.198  1.00  0.00    -0.453 A  
HETATM   15  C   UNL     1     -13.138  11.941  71.754  1.00  0.00    -0.465 A  
HETATM   16  C   UNL     1     -11.843  11.699  69.739  1.00  0.00    -0.428 A  
HETATM   17  C   UNL     1     -11.648  10.350  70.038  1.00  0.00    -0.378 A  
HETATM   18  C   UNL     1     -12.949  10.586  72.049  1.00  0.00    -0.490 A  
HETATM   19  C   UNL     1     -12.579  12.498  70.605  1.00  0.00    -0.237 A  
ENDBRANCH   6  14
TORSDOF 1
ENDMDL
MODEL       31
REMARK 921   NORMALIZED FREE ENERGY PREDICTED BY IDOCK:   -5.20 KCAL/MOL
REMARK 922        TOTAL FREE ENERGY PREDICTED BY IDOCK:   -6.07 KCAL/MOL
REMARK 923 INTER-LIGAND FREE ENERGY PREDICTED BY IDOCK:   -5.50 KCAL/MOL
REMARK 924 INTRA-LIGAND FREE ENERGY PREDICTED BY IDOCK:   -0.56 KCAL/MOL
REMARK 927      BINDING AFFINITY PREDICTED BY RF-SCORE:    0.00 PKD
ROOT
HETATM    1  C   UNL     1     -11.718  15.216  64.696  1.00  0.00    -0.348 C  
HETATM    2  N   UNL     1     -10.993  14.996  65.931  1.00  0.00    -0.337 NA 
HETATM    3  C   UNL     1     -11.844  14.675  67.079  1.00  0.00    -0.337 C  
HETATM    4  C   UNL     1     -11.617  15.278  68.486  1.00  0.00    -0.352 C  
HETATM    5  O   UNL     1     -10.300  15.035  68.951  1.00  0.00    -0.228 OA 
HETATM    6  C   UNL     1      -9.414  16.165  69.059  1.00  0.00    -0.246 C  
HETATM    7  C   UNL     1      -9.785  15.792  66.088  1.00  0.00    -0.322 C  
HETATM    8  C   UNL     1      -9.754  17.328  68.123  1.00  0.00    -0.284 A  
HETATM    9  C   UNL     1      -9.963  17.146  66.736  1.00  0.00    -0.291 A  
HETATM   10  C   UNL     1     -10.007  18.598  68.685  1.00  0.00    -0.431 A  
HETATM   11  C   UNL     1     -10.415  18.228  65.960  1.00  0.00    -0.380 A  
HETATM   12  C   UNL     1     -10.476  19.652  67.902  1.00  0.00    -0.556 A  
HETATM   13  C   UNL     1     -10.680  19.468  66.540  1.00  0.00    -0.535 A  
ENDROOT
BRANCH   6  14
HETATM   14  C   UNL     1      -7.966  15.663  68.971  1.00  0.00    -0.208 A  
HETATM   15  C   UNL     1      -5.570  16.048  69.188  1.00  0.00    -0.112 A  
HETATM   16  C   UNL     1      -6.366  13.834  68.678  1.00  0.00    -0.090 A  
HETATM   17  C   UNL     1      -7.678  14.310  68.704  1.00  0.00    -0.135 A  
HETATM   18  C   UNL     1      -6.885  16.527  69.206  1.00  0.00    -0.224 A  
HETATM   19  C   UNL     1      -5.312  14.703  68.932  1.00  0.00    -0.088 A  
ENDBRANCH   6  14
TORSDOF 1
ENDMDL
MODEL       32
REMARK 921   NORMALIZED FREE ENERGY PREDICTED BY IDOCK:   -5.20 KCAL/MOL
REMARK 922        TOTAL FREE ENERGY PREDICTED BY IDOCK:   -6.07 KCAL/MOL
REMARK 923 INTER-LIGAND FREE ENERGY PREDICTED BY IDOCK:   -5.49 KCAL/MOL
REMARK 924 INTRA-LIGAND FREE ENERGY PREDICTED BY IDOCK:   -0.58 KCAL/MOL
REMARK 927      BINDING AFFINITY PREDICTED BY RF-SCORE:    0.00 PKD
ROOT
HETATM    1  C   UNL     1      -8.694  19.307  66.459  1.00  0.00    -0.345 C  
HETATM    2  N   UNL     1      -9.582  18.187  66.693  1.00  0.00    -0.295 NA 
HETATM    3  C   UNL     1     -10.299  18.243  67.970  1.00  0.00    -0.391 C  
HETATM    4  C   UNL     1     -10.490  17.005  68.879  1.00  0.00    -0.347 C  
HETATM    5  O   UNL     1     -11.106  15.936  68.181  1.00  0.00    -0.317 OA 
HETATM    6  C   UNL     1     -10.305  14.773  67.905  1.00  0.00    -0.240 C  
HETATM    7  C   UNL     1      -9.136  16.919  66.135  1.00  0.00    -0.230 C  
HETATM    8  C   UNL     1      -8.799  15.045  67.830  1.00  0.00    -0.172 A  
HETATM    9  C   UNL     1      -8.256  16.074  67.027  1.00  0.00    -0.255 A  
HETATM   10  C   UNL     1      -7.939  14.338  68.698  1.00  0.00    -0.139 A  
HETATM   11  C   UNL     1      -6.884  16.365  67.116  1.00  0.00    -0.238 A  
HETATM   12  C   UNL     1      -6.585  14.656  68.787  1.00  0.00    -0.090 A  
HETATM   13  C   UNL     1      -6.056  15.670  67.997  1.00  0.00    -0.150 A  
ENDROOT
BRANCH   6  14
HETATM   14  C   UNL     1     -10.894  14.048  66.688  1.00  0.00    -0.297 A  
HETATM   15  C   UNL     1     -10.738  12.351  64.946  1.00  0.00    -0.328 A  
HETATM   16  C   UNL     1     -12.767  13.627  65.167  1.00  0.00    -0.443 A  
HETATM   17  C   UNL     1     -12.202  14.321  66.238  1.00  0.00    -0.433 A  
HETATM   18  C   UNL     1     -10.168  13.053  66.015  1.00  0.00    -0.292 A  
HETATM   19  C   UNL     1     -12.037  12.633  64.528  1.00  0.00    -0.485 A  
ENDBRANCH   6  14
TORSDOF 1
ENDMDL
MODEL       33
REMARK 921   NORMALIZED FREE ENERGY PREDICTED BY IDOCK:   -5.15 KCAL/MOL
REMARK 922        TOTAL FREE ENERGY PREDICTED BY IDOCK:   -6.02 KCAL/MOL
REMARK 923 INTER-LIGAND FREE ENERGY PREDICTED BY IDOCK:   -5.52 KCAL/MOL
REMARK 924 INTRA-LIGAND FREE ENERGY PREDICTED BY IDOCK:   -0.50 KCAL/MOL
REMARK 927      BINDING AFFINITY PREDICTED BY RF-SCORE:    0.00 PKD
ROOT
HETATM    1  C   UNL     1      -8.196   7.809  68.868  1.00  0.00    -0.127 C  
HETATM    2  N   UNL     1      -8.461   9.010  68.102  1.00  0.00    -0.128 NA 
HETATM    3  C   UNL     1      -7.606  10.147  68.450  1.00  0.00    -0.087 C  
HETATM    4  C   UNL     1      -8.146  11.591  68.590  1.00  0.00    -0.132 C  
HETATM    5  O   UNL     1      -8.822  12.010  67.416  1.00  0.00    -0.165 OA 
HETATM    6  C   UNL     1     -10.248  12.185  67.496  1.00  0.00    -0.199 C  
HETATM    7  C   UNL     1      -9.851   9.203  67.719  1.00  0.00    -0.174 C  
HETATM    8  C   UNL     1     -10.929  11.346  68.582  1.00  0.00    -0.267 A  
HETATM    9  C   UNL     1     -10.714   9.954  68.706  1.00  0.00    -0.247 A  
HETATM   10  C   UNL     1     -11.683  12.006  69.576  1.00  0.00    -0.408 A  
HETATM   11  C   UNL     1     -11.252   9.270  69.810  1.00  0.00    -0.104 A  
HETATM   12  C   UNL     1     -12.190  11.314  70.674  1.00  0.00    -0.489 A  
HETATM   13  C   UNL     1     -11.975   9.946  70.793  1.00  0.00    -0.410 A  
ENDROOT
BRANCH   6  14
HETATM   14  C   UNL     1     -10.842  12.032  66.090  1.00  0.00    -0.325 A  
HETATM   15  C   UNL     1     -12.646  12.404  64.495  1.00  0.00    -0.477 A  
HETATM   16  C   UNL     1     -10.601  11.383  63.741  1.00  0.00    -0.464 A  
HETATM   17  C   UNL     1     -10.089  11.475  65.037  1.00  0.00    -0.315 A  
HETATM   18  C   UNL     1     -12.136  12.489  65.796  1.00  0.00    -0.443 A  
HETATM   19  C   UNL     1     -11.877  11.859  63.469  1.00  0.00    -0.560 A  
ENDBRANCH   6  14
TORSDOF 1
ENDMDL
MODEL       34
REMARK 921   NORMALIZED FREE ENERGY PREDICTED BY IDOCK:   -5.03 KCAL/MOL
REMARK 922        TOTAL FREE ENERGY PREDICTED BY IDOCK:   -5.89 KCAL/MOL
REMARK 923 INTER-LIGAND FREE ENERGY PREDICTED BY IDOCK:   -5.29 KCAL/MOL
REMARK 924 INTRA-LIGAND FREE ENERGY PREDICTED BY IDOCK:   -0.60 KCAL/MOL
REMARK 927      BINDING AFFINITY PREDICTED BY RF-SCORE:    0.00 PKD
ROOT
HETATM    1  C   UNL     1      -9.379  10.175  69.457  1.00  0.00    -0.210 C  
HETATM    2  N   UNL     1      -9.515   8.771  69.786  1.00  0.00    -0.165 NA 
HETATM    3  C   UNL     1     -10.013   7.940  68.687  1.00  0.00    -0.191 C  
HETATM    4  C   UNL     1     -11.073   6.830  68.887  1.00  0.00    -0.181 C  
HETATM    5  O   UNL     1     -10.666   5.895  69.873  1.00  0.00    -0.274 OA 
HETATM    6  C   UNL     1     -11.393   5.881  71.116  1.00  0.00    -0.159 C  
HETATM    7  C   UNL     1      -9.883   8.493  71.166  1.00  0.00    -0.206 C  
HETATM    8  C   UNL     1     -12.065   7.211  71.471  1.00  0.00    -0.377 A  
HETATM    9  C   UNL     1     -11.364   8.438  71.460  1.00  0.00    -0.334 A  
HETATM   10  C   UNL     1     -13.461   7.229  71.679  1.00  0.00    -0.428 A  
HETATM   11  C   UNL     1     -12.073   9.637  71.653  1.00  0.00    -0.481 A  
HETATM   12  C   UNL     1     -14.149   8.431  71.846  1.00  0.00    -0.516 A  
HETATM   13  C   UNL     1     -13.455   9.635  71.833  1.00  0.00    -0.496 A  
ENDROOT
BRANCH   6  14
HETATM   14  C   UNL     1     -10.485   5.301  72.208  1.00  0.00    -0.273 A  
HETATM   15  C   UNL     1      -8.329   4.428  72.935  1.00  0.00    -0.099 A  
HETATM   16  C   UNL     1     -10.084   4.729  74.555  1.00  0.00    -0.267 A  
HETATM   17  C   UNL     1     -10.922   5.203  73.545  1.00  0.00    -0.370 A  
HETATM   18  C   UNL     1      -9.172   4.896  71.920  1.00  0.00    -0.171 A  
HETATM   19  C   UNL     1      -8.782   4.352  74.250  1.00  0.00    -0.095 A  
ENDBRANCH   6  14
TORSDOF 1
ENDMDL
MODEL       35
REMARK 921   NORMALIZED FREE ENERGY PREDICTED BY IDOCK:   -5.03 KCAL/MOL
REMARK 922        TOTAL FREE ENERGY PREDICTED BY IDOCK:   -5.89 KCAL/MOL
REMARK 923 INTER-LIGAND FREE ENERGY PREDICTED BY IDOCK:   -5.29 KCAL/MOL
REMARK 924 INTRA-LIGAND FREE ENERGY PREDICTED BY IDOCK:   -0.60 KCAL/MOL
REMARK 927      BINDING AFFINITY PREDICTED BY RF-SCORE:    0.00 PKD
ROOT
HETATM    1  C   UNL     1     -10.163   9.044  67.376  1.00  0.00    -0.245 C  
HETATM    2  N   UNL     1      -9.939   8.161  68.502  1.00  0.00    -0.184 NA 
HETATM    3  C   UNL     1     -10.692   6.906  68.443  1.00  0.00    -0.211 C  
HETATM    4  C   UNL     1     -11.401   6.293  69.674  1.00  0.00    -0.422 C  
HETATM    5  O   UNL     1     -10.500   6.107  70.754  1.00  0.00    -0.210 OA 
HETATM    6  C   UNL     1     -10.670   6.944  71.912  1.00  0.00    -0.218 C  
HETATM    7  C   UNL     1      -9.689   8.829  69.771  1.00  0.00    -0.177 C  
HETATM    8  C   UNL     1     -11.348   8.288  71.629  1.00  0.00    -0.329 A  
HETATM    9  C   UNL     1     -10.908   9.154  70.602  1.00  0.00    -0.321 A  
HETATM   10  C   UNL     1     -12.536   8.607  72.322  1.00  0.00    -0.460 A  
HETATM   11  C   UNL     1     -11.662  10.301  70.299  1.00  0.00    -0.388 A  
HETATM   12  C   UNL     1     -13.281   9.738  71.992  1.00  0.00    -0.557 A  
HETATM   13  C   UNL     1     -12.845  10.586  70.980  1.00  0.00    -0.502 A  
ENDROOT
BRANCH   6  14
HETATM   14  C   UNL     1      -9.329   7.037  72.651  1.00  0.00    -0.159 A  
HETATM   15  C   UNL     1      -6.999   6.373  72.914  1.00  0.00    -0.078 A  
HETATM   16  C   UNL     1      -7.899   8.096  74.333  1.00  0.00    -0.298 A  
HETATM   17  C   UNL     1      -9.132   7.966  73.694  1.00  0.00    -0.337 A  
HETATM   18  C   UNL     1      -8.238   6.236  72.278  1.00  0.00    -0.108 A  
HETATM   19  C   UNL     1      -6.828   7.306  73.934  1.00  0.00    -0.084 A  
ENDBRANCH   6  14
TORSDOF 1
ENDMDL
MODEL       36
REMARK 921   NORMALIZED FREE ENERGY PREDICTED BY IDOCK:   -5.02 KCAL/MOL
REMARK 922        TOTAL FREE ENERGY PREDICTED BY IDOCK:   -5.88 KCAL/MOL
REMARK 923 INTER-LIGAND FREE ENERGY PREDICTED BY IDOCK:   -5.61 KCAL/MOL
REMARK 924 INTRA-LIGAND FREE ENERGY PREDICTED BY IDOCK:   -0.27 KCAL/MOL
REMARK 927      BINDING AFFINITY PREDICTED BY RF-SCORE:    0.00 PKD
ROOT
HETATM    1  C   UNL     1      -8.573  10.804  65.573  1.00  0.00    -0.176 C  
HETATM    2  N   UNL     1      -9.768  11.188  66.297  1.00  0.00    -0.204 NA 
HETATM    3  C   UNL     1     -10.790  11.836  65.471  1.00  0.00    -0.297 C  
HETATM    4  C   UNL     1     -11.587  13.076  65.942  1.00  0.00    -0.363 C  
HETATM    5  O   UNL     1     -12.239  12.838  67.178  1.00  0.00    -0.404 OA 
HETATM    6  C   UNL     1     -11.753  13.546  68.333  1.00  0.00    -0.358 C  
HETATM    7  C   UNL     1      -9.550  11.591  67.678  1.00  0.00    -0.171 C  
HETATM    8  C   UNL     1     -10.282  13.965  68.246  1.00  0.00    -0.247 A  
HETATM    9  C   UNL     1      -9.256  13.055  67.905  1.00  0.00    -0.208 A  
HETATM   10  C   UNL     1      -9.960  15.334  68.373  1.00  0.00    -0.220 A  
HETATM   11  C   UNL     1      -7.951  13.536  67.699  1.00  0.00    -0.177 A  
HETATM   12  C   UNL     1      -8.664  15.793  68.144  1.00  0.00    -0.173 A  
HETATM   13  C   UNL     1      -7.658  14.894  67.807  1.00  0.00    -0.171 A  
ENDROOT
BRANCH   6  14
HETATM   14  C   UNL     1     -12.127  12.750  69.590  1.00  0.00    -0.286 A  
HETATM   15  C   UNL     1     -12.917  12.667  71.894  1.00  0.00    -0.402 A  
HETATM   16  C   UNL     1     -12.536  10.609  70.706  1.00  0.00    -0.480 A  
HETATM   17  C   UNL     1     -12.143  11.340  69.584  1.00  0.00    -0.391 A  
HETATM   18  C   UNL     1     -12.515  13.401  70.772  1.00  0.00    -0.418 A  
HETATM   19  C   UNL     1     -12.935  11.274  71.858  1.00  0.00    -0.471 A  
ENDBRANCH   6  14
TORSDOF 1
ENDMDL
MODEL       37
REMARK 921   NORMALIZED FREE ENERGY PREDICTED BY IDOCK:   -5.00 KCAL/MOL
REMARK 922        TOTAL FREE ENERGY PREDICTED BY IDOCK:   -5.86 KCAL/MOL
REMARK 923 INTER-LIGAND FREE ENERGY PREDICTED BY IDOCK:   -5.27 KCAL/MOL
REMARK 924 INTRA-LIGAND FREE ENERGY PREDICTED BY IDOCK:   -0.59 KCAL/MOL
REMARK 927      BINDING AFFINITY PREDICTED BY RF-SCORE:    0.00 PKD
ROOT
HETATM    1  C   UNL     1      -9.808  11.424  66.712  1.00  0.00    -0.206 C  
HETATM    2  N   UNL     1     -10.064  10.937  68.053  1.00  0.00    -0.173 NA 
HETATM    3  C   UNL     1      -8.898  10.975  68.940  1.00  0.00    -0.113 C  
HETATM    4  C   UNL     1      -8.542   9.821  69.908  1.00  0.00    -0.218 C  
HETATM    5  O   UNL     1      -9.626   9.513  70.770  1.00  0.00    -0.259 OA 
HETATM    6  C   UNL     1     -10.290   8.251  70.578  1.00  0.00    -0.202 C  
HETATM    7  C   UNL     1     -11.044   9.866  68.144  1.00  0.00    -0.156 C  
HETATM    8  C   UNL     1     -10.185   7.690  69.157  1.00  0.00    -0.204 A  
HETATM    9  C   UNL     1     -10.505   8.460  68.015  1.00  0.00    -0.242 A  
HETATM   10  C   UNL     1      -9.616   6.411  68.973  1.00  0.00    -0.136 A  
HETATM   11  C   UNL     1     -10.248   7.935  66.737  1.00  0.00    -0.358 A  
HETATM   12  C   UNL     1      -9.348   5.917  67.697  1.00  0.00    -0.107 A  
HETATM   13  C   UNL     1      -9.664   6.679  66.578  1.00  0.00    -0.176 A  
ENDROOT
BRANCH   6  14
HETATM   14  C   UNL     1     -11.717   8.358  71.129  1.00  0.00    -0.315 A  
HETATM   15  C   UNL     1     -13.531   9.677  72.083  1.00  0.00    -0.516 A  
HETATM   16  C   UNL     1     -13.917   7.364  71.538  1.00  0.00    -0.517 A  
HETATM   17  C   UNL     1     -12.599   7.259  71.091  1.00  0.00    -0.362 A  
HETATM   18  C   UNL     1     -12.207   9.570  71.642  1.00  0.00    -0.477 A  
HETATM   19  C   UNL     1     -14.386   8.578  72.024  1.00  0.00    -0.537 A  
ENDBRANCH   6  14
TORSDOF 1
ENDMDL
MODEL       38
REMARK 921   NORMALIZED FREE ENERGY PREDICTED BY IDOCK:   -5.00 KCAL/MOL
REMARK 922        TOTAL FREE ENERGY PREDICTED BY IDOCK:   -5.86 KCAL/MOL
REMARK 923 INTER-LIGAND FREE ENERGY PREDICTED BY IDOCK:   -5.27 KCAL/MOL
REMARK 924 INTRA-LIGAND FREE ENERGY PREDICTED BY IDOCK:   -0.59 KCAL/MOL
REMARK 927      BINDING AFFINITY PREDICTED BY RF-SCORE:    0.00 PKD
ROOT
HETATM    1  C   UNL     1      -6.383  12.712  67.346  1.00  0.00    -0.150 C  
HETATM    2  N   UNL     1      -7.430  11.747  67.613  1.00  0.00    -0.115 NA 
HETATM    3  C   UNL     1      -7.671  10.802  66.519  1.00  0.00    -0.145 C  
HETATM    4  C   UNL     1      -9.091  10.385  66.068  1.00  0.00    -0.162 C  
HETATM    5  O   UNL     1      -9.850   9.867  67.148  1.00  0.00    -0.171 OA 
HETATM    6  C   UNL     1     -10.959  10.655  67.619  1.00  0.00    -0.310 C  
HETATM    7  C   UNL     1      -8.523  12.235  68.440  1.00  0.00    -0.138 C  
HETATM    8  C   UNL     1     -10.827  12.157  67.352  1.00  0.00    -0.286 A  
HETATM    9  C   UNL     1      -9.671  12.889  67.706  1.00  0.00    -0.214 A  
HETATM   10  C   UNL     1     -11.835  12.802  66.602  1.00  0.00    -0.462 A  
HETATM   11  C   UNL     1      -9.555  14.230  67.301  1.00  0.00    -0.232 A  
HETATM   12  C   UNL     1     -11.691  14.127  66.192  1.00  0.00    -0.402 A  
HETATM   13  C   UNL     1     -10.551  14.842  66.541  1.00  0.00    -0.299 A  
ENDROOT
BRANCH   6  14
HETATM   14  C   UNL     1     -11.243  10.278  69.079  1.00  0.00    -0.260 A  
HETATM   15  C   UNL     1     -12.469  10.614  71.158  1.00  0.00    -0.523 A  
HETATM   16  C   UNL     1     -10.922   8.778  70.988  1.00  0.00    -0.328 A  
HETATM   17  C   UNL     1     -10.626   9.161  69.678  1.00  0.00    -0.237 A  
HETATM   18  C   UNL     1     -12.167  11.003  69.848  1.00  0.00    -0.408 A  
HETATM   19  C   UNL     1     -11.853   9.500  71.724  1.00  0.00    -0.430 A  
ENDBRANCH   6  14
TORSDOF 1
ENDMDL
MODEL       39
REMARK 921   NORMALIZED FREE ENERGY PREDICTED BY IDOCK:   -4.99 KCAL/MOL
REMARK 922        TOTAL FREE ENERGY PREDICTED BY IDOCK:   -5.84 KCAL/MOL
REMARK 923 INTER-LIGAND FREE ENERGY PREDICTED BY IDOCK:   -5.26 KCAL/MOL
REMARK 924 INTRA-LIGAND FREE ENERGY PREDICTED BY IDOCK:   -0.58 KCAL/MOL
REMARK 927      BINDING AFFINITY PREDICTED BY RF-SCORE:    0.00 PKD
ROOT
HETATM    1  C   UNL     1     -11.715  13.459  68.730  1.00  0.00    -0.340 C  
HETATM    2  N   UNL     1     -11.300  14.525  67.840  1.00  0.00    -0.295 NA 
HETATM    3  C   UNL     1     -11.146  14.116  66.442  1.00  0.00    -0.320 C  
HETATM    4  C   UNL     1      -9.962  14.578  65.558  1.00  0.00    -0.342 C  
HETATM    5  O   UNL     1      -9.861  15.992  65.521  1.00  0.00    -0.411 OA 
HETATM    6  C   UNL     1      -8.732  16.595  66.178  1.00  0.00    -0.287 C  
HETATM    7  C   UNL     1     -10.418  15.518  68.436  1.00  0.00    -0.240 C  
HETATM    8  C   UNL     1      -8.141  15.759  67.316  1.00  0.00    -0.217 A  
HETATM    9  C   UNL     1      -8.938  15.225  68.355  1.00  0.00    -0.184 A  
HETATM   10  C   UNL     1      -6.779  15.391  67.250  1.00  0.00    -0.096 A  
HETATM   11  C   UNL     1      -8.357  14.346  69.286  1.00  0.00     0.151 A  
HETATM   12  C   UNL     1      -6.228  14.501  68.171  1.00  0.00    -0.146 A  
HETATM   13  C   UNL     1      -7.016  13.978  69.189  1.00  0.00    -0.103 A  
ENDROOT
BRANCH   6  14
HETATM   14  C   UNL     1      -9.096  18.038  66.554  1.00  0.00    -0.283 A  
HETATM   15  C   UNL     1      -8.499  20.197  67.511  1.00  0.00    -0.394 A  
HETATM   16  C   UNL     1     -10.655  19.924  66.477  1.00  0.00    -0.531 A  
HETATM   17  C   UNL     1     -10.338  18.596  66.188  1.00  0.00    -0.481 A  
HETATM   18  C   UNL     1      -8.184  18.863  67.229  1.00  0.00    -0.287 A  
HETATM   19  C   UNL     1      -9.729  20.728  67.129  1.00  0.00    -0.457 A  
ENDBRANCH   6  14
TORSDOF 1
ENDMDL
MODEL       40
REMARK 921   NORMALIZED FREE ENERGY PREDICTED BY IDOCK:   -4.92 KCAL/MOL
REMARK 922        TOTAL FREE ENERGY PREDICTED BY IDOCK:   -5.77 KCAL/MOL
REMARK 923 INTER-LIGAND FREE ENERGY PREDICTED BY IDOCK:   -5.19 KCAL/MOL
REMARK 924 INTRA-LIGAND FREE ENERGY PREDICTED BY IDOCK:   -0.58 KCAL/MOL
REMARK 927      BINDING AFFINITY PREDICTED BY RF-SCORE:    0.00 PKD
ROOT
HETATM    1  C   UNL     1      -8.763   4.445  69.162  1.00  0.00    -0.085 C  
HETATM    2  N   UNL     1      -8.980   5.780  69.681  1.00  0.00    -0.127 NA 
HETATM    3  C   UNL     1      -7.772   6.432  70.192  1.00  0.00    -0.098 C  
HETATM    4  C   UNL     1      -7.751   7.250  71.505  1.00  0.00    -0.087 C  
HETATM    5  O   UNL     1      -8.724   8.282  71.491  1.00  0.00    -0.135 OA 
HETATM    6  C   UNL     1      -9.848   8.149  72.379  1.00  0.00    -0.276 C  
HETATM    7  C   UNL     1     -10.275   5.995  70.310  1.00  0.00    -0.208 C  
HETATM    8  C   UNL     1     -10.188   6.704  72.757  1.00  0.00    -0.208 A  
HETATM    9  C   UNL     1     -10.353   5.688  71.788  1.00  0.00    -0.268 A  
HETATM   10  C   UNL     1     -10.198   6.346  74.123  1.00  0.00    -0.361 A  
HETATM   11  C   UNL     1     -10.519   4.357  72.208  1.00  0.00    -0.192 A  
HETATM   12  C   UNL     1     -10.342   5.017  74.518  1.00  0.00    -0.315 A  
HETATM   13  C   UNL     1     -10.502   4.021  73.561  1.00  0.00    -0.259 A  
ENDROOT
BRANCH   6  14
HETATM   14  C   UNL     1     -11.019   8.964  71.815  1.00  0.00    -0.431 A  
HETATM   15  C   UNL     1     -13.376   9.581  71.825  1.00  0.00    -0.501 A  
HETATM   16  C   UNL     1     -11.863  10.737  70.352  1.00  0.00    -0.450 A  
HETATM   17  C   UNL     1     -10.813   9.952  70.830  1.00  0.00    -0.357 A  
HETATM   18  C   UNL     1     -12.324   8.788  72.299  1.00  0.00    -0.448 A  
HETATM   19  C   UNL     1     -13.144  10.559  70.860  1.00  0.00    -0.390 A  
ENDBRANCH   6  14
TORSDOF 1
ENDMDL
MODEL       41
REMARK 921   NORMALIZED FREE ENERGY PREDICTED BY IDOCK:   -4.91 KCAL/MOL
REMARK 922        TOTAL FREE ENERGY PREDICTED BY IDOCK:   -5.77 KCAL/MOL
REMARK 923 INTER-LIGAND FREE ENERGY PREDICTED BY IDOCK:   -5.18 KCAL/MOL
REMARK 924 INTRA-LIGAND FREE ENERGY PREDICTED BY IDOCK:   -0.59 KCAL/MOL
REMARK 927      BINDING AFFINITY PREDICTED BY RF-SCORE:    0.00 PKD
ROOT
HETATM    1  C   UNL     1      -7.838   9.970  69.247  1.00  0.00    -0.125 C  
HETATM    2  N   UNL     1      -8.942  10.848  68.916  1.00  0.00    -0.163 NA 
HETATM    3  C   UNL     1     -10.264  10.231  69.054  1.00  0.00    -0.210 C  
HETATM    4  C   UNL     1     -11.395  10.433  68.017  1.00  0.00    -0.204 C  
HETATM    5  O   UNL     1     -11.673  11.808  67.810  1.00  0.00    -0.464 OA 
HETATM    6  C   UNL     1     -11.318  12.373  66.535  1.00  0.00    -0.340 C  
HETATM    7  C   UNL     1      -8.668  11.814  67.863  1.00  0.00    -0.164 C  
HETATM    8  C   UNL     1     -10.177  11.647  65.816  1.00  0.00    -0.281 A  
HETATM    9  C   UNL     1      -8.949  11.355  66.452  1.00  0.00    -0.196 A  
HETATM   10  C   UNL     1     -10.412  11.129  64.524  1.00  0.00    -0.415 A  
HETATM   11  C   UNL     1      -8.001  10.559  65.784  1.00  0.00    -0.158 A  
HETATM   12  C   UNL     1      -9.468  10.324  63.888  1.00  0.00    -0.356 A  
HETATM   13  C   UNL     1      -8.262  10.038  64.518  1.00  0.00    -0.164 A  
ENDROOT
BRANCH   6  14
HETATM   14  C   UNL     1     -11.119  13.885  66.706  1.00  0.00    -0.310 A  
HETATM   15  C   UNL     1     -11.304  15.912  68.045  1.00  0.00    -0.284 A  
HETATM   16  C   UNL     1     -10.220  16.014  65.899  1.00  0.00    -0.386 A  
HETATM   17  C   UNL     1     -10.455  14.649  65.726  1.00  0.00    -0.338 A  
HETATM   18  C   UNL     1     -11.547  14.545  67.869  1.00  0.00    -0.371 A  
HETATM   19  C   UNL     1     -10.635  16.643  67.065  1.00  0.00    -0.247 A  
ENDBRANCH   6  14
TORSDOF 1
ENDMDL
MODEL       42
REMARK 921   NORMALIZED FREE ENERGY PREDICTED BY IDOCK:   -4.91 KCAL/MOL
REMARK 922        TOTAL FREE ENERGY PREDICTED BY IDOCK:   -5.76 KCAL/MOL
REMARK 923 INTER-LIGAND FREE ENERGY PREDICTED BY IDOCK:   -5.23 KCAL/MOL
REMARK 924 INTRA-LIGAND FREE ENERGY PREDICTED BY IDOCK:   -0.53 KCAL/MOL
REMARK 927      BINDING AFFINITY PREDICTED BY RF-SCORE:    0.00 PKD
ROOT
HETATM    1  C   UNL     1      -6.386  12.647  68.493  1.00  0.00    -0.070 C  
HETATM    2  N   UNL     1      -7.586  13.291  68.000  1.00  0.00    -0.129 NA 
HETATM    3  C   UNL     1      -8.028  14.437  68.800  1.00  0.00    -0.133 C  
HETATM    4  C   UNL     1      -9.512  14.690  69.156  1.00  0.00    -0.066 C  
HETATM    5  O   UNL     1     -10.324  14.743  67.995  1.00  0.00    -0.233 OA 
HETATM    6  C   UNL     1     -11.255  13.665  67.785  1.00  0.00    -0.285 C  
HETATM    7  C   UNL     1      -8.548  12.402  67.365  1.00  0.00    -0.181 C  
HETATM    8  C   UNL     1     -10.854  12.344  68.449  1.00  0.00    -0.263 A  
HETATM    9  C   UNL     1      -9.573  11.772  68.279  1.00  0.00    -0.199 A  
HETATM   10  C   UNL     1     -11.744  11.752  69.371  1.00  0.00    -0.405 A  
HETATM   11  C   UNL     1      -9.221  10.637  69.031  1.00  0.00    -0.177 A  
HETATM   12  C   UNL     1     -11.368  10.640  70.123  1.00  0.00    -0.402 A  
HETATM   13  C   UNL     1     -10.106  10.082  69.954  1.00  0.00    -0.289 A  
ENDROOT
BRANCH   6  14
HETATM   14  C   UNL     1     -11.566  13.570  66.285  1.00  0.00    -0.374 A  
HETATM   15  C   UNL     1     -12.307  12.291  64.348  1.00  0.00    -0.493 A  
HETATM   16  C   UNL     1     -11.847  14.641  64.102  1.00  0.00    -0.263 A  
HETATM   17  C   UNL     1     -11.512  14.707  65.455  1.00  0.00    -0.352 A  
HETATM   18  C   UNL     1     -11.964  12.356  65.703  1.00  0.00    -0.449 A  
HETATM   19  C   UNL     1     -12.256  13.433  63.551  1.00  0.00    -0.468 A  
ENDBRANCH   6  14
TORSDOF 1
ENDMDL
MODEL       43
REMARK 921   NORMALIZED FREE ENERGY PREDICTED BY IDOCK:   -4.91 KCAL/MOL
REMARK 922        TOTAL FREE ENERGY PREDICTED BY IDOCK:   -5.76 KCAL/MOL
REMARK 923 INTER-LIGAND FREE ENERGY PREDICTED BY IDOCK:   -5.16 KCAL/MOL
REMARK 924 INTRA-LIGAND FREE ENERGY PREDICTED BY IDOCK:   -0.60 KCAL/MOL
REMARK 927      BINDING AFFINITY PREDICTED BY RF-SCORE:    0.00 PKD
ROOT
HETATM    1  C   UNL     1     -12.608  10.320  70.801  1.00  0.00    -0.352 C  
HETATM    2  N   UNL     1     -11.900  10.678  69.588  1.00  0.00    -0.290 NA 
HETATM    3  C   UNL     1     -10.480  10.316  69.590  1.00  0.00    -0.253 C  
HETATM    4  C   UNL     1      -9.374  11.256  69.054  1.00  0.00     0.000 C  
HETATM    5  O   UNL     1      -9.630  11.652  67.717  1.00  0.00    -0.170 OA 
HETATM    6  C   UNL     1      -9.977  13.030  67.487  1.00  0.00    -0.212 C  
HETATM    7  C   UNL     1     -12.365  11.894  68.938  1.00  0.00     0.219 C  
HETATM    8  C   UNL     1     -10.616  13.731  68.690  1.00  0.00    -0.263 A  
HETATM    9  C   UNL     1     -11.713  13.180  69.390  1.00  0.00    -0.386 A  
HETATM   10  C   UNL     1     -10.001  14.894  69.201  1.00  0.00    -0.213 A  
HETATM   11  C   UNL     1     -12.158  13.800  70.571  1.00  0.00    -0.416 A  
HETATM   12  C   UNL     1     -10.443  15.482  70.386  1.00  0.00    -0.222 A  
HETATM   13  C   UNL     1     -11.522  14.935  71.071  1.00  0.00    -0.307 A  
ENDROOT
BRANCH   6  14
HETATM   14  C   UNL     1     -10.777  13.124  66.181  1.00  0.00    -0.289 A  
HETATM   15  C   UNL     1     -11.780  12.070  64.226  1.00  0.00    -0.425 A  
HETATM   16  C   UNL     1     -12.137  14.420  64.612  1.00  0.00    -0.485 A  
HETATM   17  C   UNL     1     -11.361  14.338  65.769  1.00  0.00    -0.326 A  
HETATM   18  C   UNL     1     -10.995  11.990  65.382  1.00  0.00    -0.347 A  
HETATM   19  C   UNL     1     -12.356  13.281  63.846  1.00  0.00    -0.422 A  
ENDBRANCH   6  14
TORSDOF 1
ENDMDL
MODEL       44
REMARK 921   NORMALIZED FREE ENERGY PREDICTED BY IDOCK:   -4.88 KCAL/MOL
REMARK 922        TOTAL FREE ENERGY PREDICTED BY IDOCK:   -5.73 KCAL/MOL
REMARK 923 INTER-LIGAND FREE ENERGY PREDICTED BY IDOCK:   -5.17 KCAL/MOL
REMARK 924 INTRA-LIGAND FREE ENERGY PREDICTED BY IDOCK:   -0.56 KCAL/MOL
REMARK 927      BINDING AFFINITY PREDICTED BY RF-SCORE:    0.00 PKD
ROOT
HETATM    1  C   UNL     1      -8.569   7.601  66.928  1.00  0.00    -0.123 C  
HETATM    2  N   UNL     1      -9.090   7.960  68.232  1.00  0.00    -0.135 NA 
HETATM    3  C   UNL     1      -8.064   8.329  69.210  1.00  0.00    -0.116 C  
HETATM    4  C   UNL     1      -8.099   7.855  70.683  1.00  0.00    -0.102 C  
HETATM    5  O   UNL     1      -9.322   8.205  71.312  1.00  0.00    -0.144 OA 
HETATM    6  C   UNL     1     -10.225   7.137  71.649  1.00  0.00    -0.193 C  
HETATM    7  C   UNL     1     -10.291   7.243  68.635  1.00  0.00    -0.193 C  
HETATM    8  C   UNL     1     -10.076   5.884  70.781  1.00  0.00    -0.253 A  
HETATM    9  C   UNL     1     -10.072   5.940  69.368  1.00  0.00    -0.260 A  
HETATM   10  C   UNL     1      -9.793   4.653  71.411  1.00  0.00    -0.264 A  
HETATM   11  C   UNL     1      -9.785   4.776  68.634  1.00  0.00    -0.223 A  
HETATM   12  C   UNL     1      -9.490   3.515  70.665  1.00  0.00    -0.243 A  
HETATM   13  C   UNL     1      -9.486   3.576  69.276  1.00  0.00    -0.233 A  
ENDROOT
BRANCH   6  14
HETATM   14  C   UNL     1     -11.648   7.705  71.730  1.00  0.00    -0.307 A  
HETATM   15  C   UNL     1     -14.063   7.382  71.780  1.00  0.00    -0.510 A  
HETATM   16  C   UNL     1     -13.164   9.595  72.081  1.00  0.00    -0.535 A  
HETATM   17  C   UNL     1     -11.874   9.079  71.950  1.00  0.00    -0.447 A  
HETATM   18  C   UNL     1     -12.770   6.865  71.641  1.00  0.00    -0.396 A  
HETATM   19  C   UNL     1     -14.259   8.743  72.008  1.00  0.00    -0.493 A  
ENDBRANCH   6  14
TORSDOF 1
ENDMDL
MODEL       45
REMARK 921   NORMALIZED FREE ENERGY PREDICTED BY IDOCK:   -4.83 KCAL/MOL
REMARK 922        TOTAL FREE ENERGY PREDICTED BY IDOCK:   -5.68 KCAL/MOL
REMARK 923 INTER-LIGAND FREE ENERGY PREDICTED BY IDOCK:   -5.28 KCAL/MOL
REMARK 924 INTRA-LIGAND FREE ENERGY PREDICTED BY IDOCK:   -0.41 KCAL/MOL
REMARK 927      BINDING AFFINITY PREDICTED BY RF-SCORE:    0.00 PKD
ROOT
HETATM    1  C   UNL     1      -7.504  10.664  67.785  1.00  0.00    -0.091 C  
HETATM    2  N   UNL     1      -8.673  11.106  68.517  1.00  0.00    -0.156 NA 
HETATM    3  C   UNL     1      -9.639  10.044  68.807  1.00  0.00    -0.168 C  
HETATM    4  C   UNL     1     -11.168  10.238  68.664  1.00  0.00    -0.208 C  
HETATM    5  O   UNL     1     -11.626  11.342  69.428  1.00  0.00    -0.264 OA 
HETATM    6  C   UNL     1     -12.088  12.500  68.709  1.00  0.00    -0.110 C  
HETATM    7  C   UNL     1      -9.111  12.461  68.220  1.00  0.00    -0.183 C  
HETATM    8  C   UNL     1     -11.484  12.661  67.311  1.00  0.00    -0.402 A  
HETATM    9  C   UNL     1     -10.091  12.607  67.079  1.00  0.00    -0.228 A  
HETATM   10  C   UNL     1     -12.354  12.723  66.201  1.00  0.00    -0.190 A  
HETATM   11  C   UNL     1      -9.613  12.614  65.757  1.00  0.00    -0.117 A  
HETATM   12  C   UNL     1     -11.861  12.708  64.897  1.00  0.00    -0.436 A  
HETATM   13  C   UNL     1     -10.490  12.653  64.674  1.00  0.00    -0.361 A  
ENDROOT
BRANCH   6  14
HETATM   14  C   UNL     1     -11.953  13.729  69.619  1.00  0.00    -0.399 A  
HETATM   15  C   UNL     1     -12.040  14.754  71.827  1.00  0.00    -0.417 A  
HETATM   16  C   UNL     1     -11.319  16.071  69.945  1.00  0.00    -0.340 A  
HETATM   17  C   UNL     1     -11.499  14.964  69.114  1.00  0.00    -0.324 A  
HETATM   18  C   UNL     1     -12.227  13.647  70.993  1.00  0.00    -0.374 A  
HETATM   19  C   UNL     1     -11.579  15.962  71.306  1.00  0.00    -0.509 A  
ENDBRANCH   6  14
TORSDOF 1
ENDMDL
MODEL       46
REMARK 921   NORMALIZED FREE ENERGY PREDICTED BY IDOCK:   -4.83 KCAL/MOL
REMARK 922        TOTAL FREE ENERGY PREDICTED BY IDOCK:   -5.68 KCAL/MOL
REMARK 923 INTER-LIGAND FREE ENERGY PREDICTED BY IDOCK:   -5.22 KCAL/MOL
REMARK 924 INTRA-LIGAND FREE ENERGY PREDICTED BY IDOCK:   -0.45 KCAL/MOL
REMARK 927      BINDING AFFINITY PREDICTED BY RF-SCORE:    0.00 PKD
ROOT
HETATM    1  C   UNL     1     -11.476  13.510  64.477  1.00  0.00    -0.381 C  
HETATM    2  N   UNL     1     -11.169  13.238  65.866  1.00  0.00    -0.288 NA 
HETATM    3  C   UNL     1     -10.047  14.016  66.399  1.00  0.00    -0.294 C  
HETATM    4  C   UNL     1      -8.957  13.401  67.310  1.00  0.00    -0.221 C  
HETATM    5  O   UNL     1      -9.524  12.781  68.453  1.00  0.00    -0.214 OA 
HETATM    6  C   UNL     1      -9.452  11.346  68.534  1.00  0.00    -0.183 C  
HETATM    7  C   UNL     1     -11.403  11.866  66.293  1.00  0.00    -0.334 C  
HETATM    8  C   UNL     1      -9.352  10.639  67.179  1.00  0.00    -0.172 A  
HETATM    9  C   UNL     1     -10.246  10.910  66.118  1.00  0.00    -0.304 A  
HETATM   10  C   UNL     1      -8.247   9.795  66.936  1.00  0.00    -0.117 A  
HETATM   11  C   UNL     1     -10.010  10.336  64.856  1.00  0.00    -0.393 A  
HETATM   12  C   UNL     1      -8.019   9.253  65.672  1.00  0.00    -0.103 A  
HETATM   13  C   UNL     1      -8.900   9.524  64.631  1.00  0.00    -0.250 A  
ENDROOT
BRANCH   6  14
HETATM   14  C   UNL     1     -10.583  10.849  69.444  1.00  0.00    -0.233 A  
HETATM   15  C   UNL     1     -12.774  11.152  70.466  1.00  0.00    -0.302 A  
HETATM   16  C   UNL     1     -11.594   9.081  70.803  1.00  0.00    -0.313 A  
HETATM   17  C   UNL     1     -10.544   9.563  70.021  1.00  0.00    -0.280 A  
HETATM   18  C   UNL     1     -11.718  11.639  69.688  1.00  0.00    -0.418 A  
HETATM   19  C   UNL     1     -12.716   9.873  71.016  1.00  0.00    -0.425 A  
ENDBRANCH   6  14
TORSDOF 1
ENDMDL
MODEL       47
REMARK 921   NORMALIZED FREE ENERGY PREDICTED BY IDOCK:   -4.79 KCAL/MOL
REMARK 922        TOTAL FREE ENERGY PREDICTED BY IDOCK:   -5.64 KCAL/MOL
REMARK 923 INTER-LIGAND FREE ENERGY PREDICTED BY IDOCK:   -5.14 KCAL/MOL
REMARK 924 INTRA-LIGAND FREE ENERGY PREDICTED BY IDOCK:   -0.49 KCAL/MOL
REMARK 927      BINDING AFFINITY PREDICTED BY RF-SCORE:    0.00 PKD
ROOT
HETATM    1  C   UNL     1      -9.350  16.819  69.189  1.00  0.00    -0.155 C  
HETATM    2  N   UNL     1     -10.284  15.880  68.601  1.00  0.00    -0.217 NA 
HETATM    3  C   UNL     1     -11.225  15.289  69.556  1.00  0.00    -0.281 C  
HETATM    4  C   UNL     1     -11.602  13.788  69.544  1.00  0.00    -0.297 C  
HETATM    5  O   UNL     1     -12.095  13.386  68.276  1.00  0.00    -0.343 OA 
HETATM    6  C   UNL     1     -11.275  12.497  67.495  1.00  0.00    -0.291 C  
HETATM    7  C   UNL     1      -9.763  15.108  67.483  1.00  0.00    -0.205 C  
HETATM    8  C   UNL     1      -9.777  12.580  67.807  1.00  0.00    -0.202 A  
HETATM    9  C   UNL     1      -9.078  13.808  67.836  1.00  0.00    -0.193 A  
HETATM   10  C   UNL     1      -9.106  11.408  68.218  1.00  0.00    -0.179 A  
HETATM   11  C   UNL     1      -7.742  13.829  68.271  1.00  0.00    -0.138 A  
HETATM   12  C   UNL     1      -7.787  11.454  68.667  1.00  0.00    -0.139 A  
HETATM   13  C   UNL     1      -7.104  12.664  68.694  1.00  0.00    -0.096 A  
ENDROOT
BRANCH   6  14
HETATM   14  C   UNL     1     -11.639  12.667  66.015  1.00  0.00    -0.443 A  
HETATM   15  C   UNL     1     -12.614  13.975  64.204  1.00  0.00    -0.127 A  
HETATM   16  C   UNL     1     -11.514  11.895  63.694  1.00  0.00    -0.551 A  
HETATM   17  C   UNL     1     -11.236  11.721  65.051  1.00  0.00    -0.318 A  
HETATM   18  C   UNL     1     -12.341  13.796  65.566  1.00  0.00    -0.507 A  
HETATM   19  C   UNL     1     -12.194  13.030  63.270  1.00  0.00    -0.464 A  
ENDBRANCH   6  14
TORSDOF 1
ENDMDL
MODEL       48
REMARK 921   NORMALIZED FREE ENERGY PREDICTED BY IDOCK:   -4.75 KCAL/MOL
REMARK 922        TOTAL FREE ENERGY PREDICTED BY IDOCK:   -5.60 KCAL/MOL
REMARK 923 INTER-LIGAND FREE ENERGY PREDICTED BY IDOCK:   -5.17 KCAL/MOL
REMARK 924 INTRA-LIGAND FREE ENERGY PREDICTED BY IDOCK:   -0.43 KCAL/MOL
REMARK 927      BINDING AFFINITY PREDICTED BY RF-SCORE:    0.00 PKD
ROOT
HETATM    1  C   UNL     1      -8.581  14.998  67.295  1.00  0.00    -0.206 C  
HETATM    2  N   UNL     1      -7.648  16.057  66.966  1.00  0.00    -0.211 NA 
HETATM    3  C   UNL     1      -6.774  16.455  68.072  1.00  0.00    -0.134 C  
HETATM    4  C   UNL     1      -6.443  17.933  68.390  1.00  0.00    -0.198 C  
HETATM    5  O   UNL     1      -5.902  18.600  67.261  1.00  0.00    -0.154 OA 
HETATM    6  C   UNL     1      -6.710  19.615  66.638  1.00  0.00    -0.193 C  
HETATM    7  C   UNL     1      -8.138  17.034  66.005  1.00  0.00    -0.143 C  
HETATM    8  C   UNL     1      -8.217  19.439  66.844  1.00  0.00    -0.302 A  
HETATM    9  C   UNL     1      -8.879  18.218  66.580  1.00  0.00    -0.294 A  
HETATM   10  C   UNL     1      -8.944  20.486  67.451  1.00  0.00    -0.420 A  
HETATM   11  C   UNL     1     -10.234  18.080  66.930  1.00  0.00    -0.366 A  
HETATM   12  C   UNL     1     -10.281  20.322  67.809  1.00  0.00    -0.464 A  
HETATM   13  C   UNL     1     -10.927  19.119  67.549  1.00  0.00    -0.405 A  
ENDROOT
BRANCH   6  14
HETATM   14  C   UNL     1      -6.269  19.764  65.176  1.00  0.00    -0.295 A  
HETATM   15  C   UNL     1      -6.025  21.110  63.159  1.00  0.00    -0.328 A  
HETATM   16  C   UNL     1      -5.129  18.876  63.199  1.00  0.00    -0.249 A  
HETATM   17  C   UNL     1      -5.583  18.728  64.511  1.00  0.00    -0.261 A  
HETATM   18  C   UNL     1      -6.488  20.958  64.471  1.00  0.00    -0.260 A  
HETATM   19  C   UNL     1      -5.340  20.073  62.527  1.00  0.00    -0.287 A  
ENDBRANCH   6  14
TORSDOF 1
ENDMDL
MODEL       49
REMARK 921   NORMALIZED FREE ENERGY PREDICTED BY IDOCK:   -4.73 KCAL/MOL
REMARK 922        TOTAL FREE ENERGY PREDICTED BY IDOCK:   -5.58 KCAL/MOL
REMARK 923 INTER-LIGAND FREE ENERGY PREDICTED BY IDOCK:   -4.98 KCAL/MOL
REMARK 924 INTRA-LIGAND FREE ENERGY PREDICTED BY IDOCK:   -0.60 KCAL/MOL
REMARK 927      BINDING AFFINITY PREDICTED BY RF-SCORE:    0.00 PKD
ROOT
HETATM    1  C   UNL     1     -12.285  14.841  64.217  1.00  0.00    -0.379 C  
HETATM    2  N   UNL     1     -11.545  14.216  65.294  1.00  0.00    -0.329 NA 
HETATM    3  C   UNL     1     -12.366  13.828  66.443  1.00  0.00    -0.412 C  
HETATM    4  C   UNL     1     -11.919  14.051  67.908  1.00  0.00    -0.351 C  
HETATM    5  O   UNL     1     -10.659  13.454  68.164  1.00  0.00    -0.232 OA 
HETATM    6  C   UNL     1      -9.542  14.331  68.395  1.00  0.00    -0.221 C  
HETATM    7  C   UNL     1     -10.184  14.700  65.471  1.00  0.00    -0.370 C  
HETATM    8  C   UNL     1      -9.680  15.715  67.754  1.00  0.00    -0.218 A  
HETATM    9  C   UNL     1     -10.016  15.886  66.391  1.00  0.00    -0.304 A  
HETATM   10  C   UNL     1      -9.610  16.856  68.583  1.00  0.00    -0.265 A  
HETATM   11  C   UNL     1     -10.271  17.180  65.903  1.00  0.00    -0.290 A  
HETATM   12  C   UNL     1      -9.887  18.128  68.084  1.00  0.00    -0.350 A  
HETATM   13  C   UNL     1     -10.218  18.290  66.744  1.00  0.00    -0.393 A  
ENDROOT
BRANCH   6  14
HETATM   14  C   UNL     1      -8.249  13.582  68.047  1.00  0.00    -0.163 A  
HETATM   15  C   UNL     1      -7.103  11.618  67.171  1.00  0.00    -0.143 A  
HETATM   16  C   UNL     1      -5.813  13.549  67.803  1.00  0.00    -0.120 A  
HETATM   17  C   UNL     1      -6.989  14.203  68.170  1.00  0.00    -0.126 A  
HETATM   18  C   UNL     1      -8.283  12.271  67.546  1.00  0.00    -0.170 A  
HETATM   19  C   UNL     1      -5.872  12.259  67.292  1.00  0.00    -0.143 A  
ENDBRANCH   6  14
TORSDOF 1
ENDMDL
MODEL       50
REMARK 921   NORMALIZED FREE ENERGY PREDICTED BY IDOCK:   -4.72 KCAL/MOL
REMARK 922        TOTAL FREE ENERGY PREDICTED BY IDOCK:   -5.56 KCAL/MOL
REMARK 923 INTER-LIGAND FREE ENERGY PREDICTED BY IDOCK:   -5.05 KCAL/MOL
REMARK 924 INTRA-LIGAND FREE ENERGY PREDICTED BY IDOCK:   -0.51 KCAL/MOL
REMARK 927      BINDING AFFINITY PREDICTED BY RF-SCORE:    0.00 PKD
ROOT
HETATM    1  C   UNL     1      -9.752   4.871  68.036  1.00  0.00    -0.151 C  
HETATM    2  N   UNL     1      -9.487   6.295  68.047  1.00  0.00    -0.117 NA 
HETATM    3  C   UNL     1      -8.152   6.657  68.530  1.00  0.00    -0.119 C  
HETATM    4  C   UNL     1      -7.900   7.844  69.490  1.00  0.00    -0.110 C  
HETATM    5  O   UNL     1      -8.420   9.055  68.967  1.00  0.00    -0.128 OA 
HETATM    6  C   UNL     1      -9.559   9.631  69.633  1.00  0.00    -0.208 C  
HETATM    7  C   UNL     1     -10.642   7.135  68.329  1.00  0.00    -0.188 C  
HETATM    8  C   UNL     1     -10.428   8.622  70.389  1.00  0.00    -0.233 A  
HETATM    9  C   UNL     1     -10.905   7.435  69.787  1.00  0.00    -0.246 A  
HETATM   10  C   UNL     1     -10.640   8.813  71.772  1.00  0.00    -0.417 A  
HETATM   11  C   UNL     1     -11.572   6.482  70.577  1.00  0.00    -0.455 A  
HETATM   12  C   UNL     1     -11.285   7.846  72.542  1.00  0.00    -0.436 A  
HETATM   13  C   UNL     1     -11.751   6.680  71.945  1.00  0.00    -0.355 A  
ENDROOT
BRANCH   6  14
HETATM   14  C   UNL     1     -10.315  10.517  68.634  1.00  0.00    -0.201 A  
HETATM   15  C   UNL     1     -11.905  12.301  68.158  1.00  0.00    -0.372 A  
HETATM   16  C   UNL     1     -10.683  11.299  66.343  1.00  0.00    -0.320 A  
HETATM   17  C   UNL     1     -10.041  10.457  67.252  1.00  0.00    -0.244 A  
HETATM   18  C   UNL     1     -11.267  11.452  69.070  1.00  0.00    -0.319 A  
HETATM   19  C   UNL     1     -11.608  12.230  66.799  1.00  0.00    -0.434 A  
ENDBRANCH   6  14
TORSDOF 1
ENDMDL
MODEL       51
REMARK 921   NORMALIZED FREE ENERGY PREDICTED BY IDOCK:   -4.68 KCAL/MOL
REMARK 922        TOTAL FREE ENERGY PREDICTED BY IDOCK:   -5.52 KCAL/MOL
REMARK 923 INTER-LIGAND FREE ENERGY PREDICTED BY IDOCK:   -4.94 KCAL/MOL
REMARK 924 INTRA-LIGAND FREE ENERGY PREDICTED BY IDOCK:   -0.58 KCAL/MOL
REMARK 927      BINDING AFFINITY PREDICTED BY RF-SCORE:    0.00 PKD
ROOT
HETATM    1  C   UNL     1     -10.733  11.757  68.593  1.00  0.00    -0.220 C  
HETATM    2  N   UNL     1     -10.426  13.173  68.602  1.00  0.00    -0.249 NA 
HETATM    3  C   UNL     1     -11.493  14.018  69.144  1.00  0.00    -0.296 C  
HETATM    4  C   UNL     1     -11.908  15.362  68.500  1.00  0.00    -0.272 C  
HETATM    5  O   UNL     1     -10.802  16.240  68.369  1.00  0.00    -0.301 OA 
HETATM    6  C   UNL     1     -10.329  16.518  67.038  1.00  0.00    -0.301 C  
HETATM    7  C   UNL     1      -9.589  13.630  67.503  1.00  0.00    -0.220 C  
HETATM    8  C   UNL     1     -10.632  15.419  66.016  1.00  0.00    -0.330 A  
HETATM    9  C   UNL     1     -10.316  14.061  66.250  1.00  0.00    -0.294 A  
HETATM   10  C   UNL     1     -11.377  15.752  64.864  1.00  0.00    -0.284 A  
HETATM   11  C   UNL     1     -10.753  13.085  65.337  1.00  0.00    -0.309 A  
HETATM   12  C   UNL     1     -11.819  14.767  63.982  1.00  0.00    -0.095 A  
HETATM   13  C   UNL     1     -11.507  13.433  64.217  1.00  0.00    -0.429 A  
ENDROOT
BRANCH   6  14
HETATM   14  C   UNL     1      -8.856  16.940  67.120  1.00  0.00    -0.221 A  
HETATM   15  C   UNL     1      -6.794  17.670  66.046  1.00  0.00    -0.308 A  
HETATM   16  C   UNL     1      -6.890  17.544  68.448  1.00  0.00    -0.197 A  
HETATM   17  C   UNL     1      -8.212  17.106  68.363  1.00  0.00    -0.253 A  
HETATM   18  C   UNL     1      -8.118  17.223  65.960  1.00  0.00    -0.187 A  
HETATM   19  C   UNL     1      -6.184  17.837  67.288  1.00  0.00    -0.172 A  
ENDBRANCH   6  14
TORSDOF 1
ENDMDL
MODEL       52
REMARK 921   NORMALIZED FREE ENERGY PREDICTED BY IDOCK:   -4.66 KCAL/MOL
REMARK 922        TOTAL FREE ENERGY PREDICTED BY IDOCK:   -5.50 KCAL/MOL
REMARK 923 INTER-LIGAND FREE ENERGY PREDICTED BY IDOCK:   -4.93 KCAL/MOL
REMARK 924 INTRA-LIGAND FREE ENERGY PREDICTED BY IDOCK:   -0.57 KCAL/MOL
REMARK 927      BINDING AFFINITY PREDICTED BY RF-SCORE:    0.00 PKD
ROOT
HETATM    1  C   UNL     1      -7.315   8.778  64.730  1.00  0.00    -0.093 C  
HETATM    2  N   UNL     1      -7.759  10.095  65.141  1.00  0.00    -0.138 NA 
HETATM    3  C   UNL     1      -6.848  10.777  66.064  1.00  0.00    -0.107 C  
HETATM    4  C   UNL     1      -7.342  11.568  67.299  1.00  0.00    -0.131 C  
HETATM    5  O   UNL     1      -8.281  12.567  66.935  1.00  0.00    -0.156 OA 
HETATM    6  C   UNL     1      -9.646  12.378  67.349  1.00  0.00    -0.184 C  
HETATM    7  C   UNL     1      -9.202  10.252  65.254  1.00  0.00    -0.199 C  
HETATM    8  C   UNL     1     -10.044  10.915  67.567  1.00  0.00    -0.214 A  
HETATM    9  C   UNL     1      -9.803   9.914  66.598  1.00  0.00    -0.265 A  
HETATM   10  C   UNL     1     -10.539  10.529  68.832  1.00  0.00    -0.243 A  
HETATM   11  C   UNL     1     -10.059   8.569  66.920  1.00  0.00    -0.364 A  
HETATM   12  C   UNL     1     -10.766   9.188  69.138  1.00  0.00    -0.190 A  
HETATM   13  C   UNL     1     -10.526   8.207  68.183  1.00  0.00    -0.225 A  
ENDROOT
BRANCH   6  14
HETATM   14  C   UNL     1     -10.560  13.164  66.400  1.00  0.00    -0.293 A  
HETATM   15  C   UNL     1     -12.774  13.657  65.508  1.00  0.00    -0.514 A  
HETATM   16  C   UNL     1     -10.893  14.975  64.787  1.00  0.00    -0.375 A  
HETATM   17  C   UNL     1     -10.058  14.218  65.610  1.00  0.00    -0.364 A  
HETATM   18  C   UNL     1     -11.935  12.893  66.328  1.00  0.00    -0.472 A  
HETATM   19  C   UNL     1     -12.254  14.701  64.745  1.00  0.00    -0.403 A  
ENDBRANCH   6  14
TORSDOF 1
ENDMDL
MODEL       53
REMARK 921   NORMALIZED FREE ENERGY PREDICTED BY IDOCK:   -4.63 KCAL/MOL
REMARK 922        TOTAL FREE ENERGY PREDICTED BY IDOCK:   -5.47 KCAL/MOL
REMARK 923 INTER-LIGAND FREE ENERGY PREDICTED BY IDOCK:   -4.95 KCAL/MOL
REMARK 924 INTRA-LIGAND FREE ENERGY PREDICTED BY IDOCK:   -0.51 KCAL/MOL
REMARK 927      BINDING AFFINITY PREDICTED BY RF-SCORE:    0.00 PKD
ROOT
HETATM    1  C   UNL     1     -10.487   6.421  74.310  1.00  0.00    -0.196 C  
HETATM    2  N   UNL     1      -9.927   6.561  72.981  1.00  0.00    -0.166 NA 
HETATM    3  C   UNL     1      -8.714   7.380  72.921  1.00  0.00    -0.128 C  
HETATM    4  C   UNL     1      -8.459   8.424  71.807  1.00  0.00    -0.165 C  
HETATM    5  O   UNL     1      -8.548   7.841  70.518  1.00  0.00    -0.129 OA 
HETATM    6  C   UNL     1      -9.663   8.222  69.692  1.00  0.00    -0.173 C  
HETATM    7  C   UNL     1     -10.901   6.579  71.899  1.00  0.00    -0.237 C  
HETATM    8  C   UNL     1     -10.897   8.690  70.470  1.00  0.00    -0.257 A  
HETATM    9  C   UNL     1     -11.454   7.935  71.527  1.00  0.00    -0.301 A  
HETATM   10  C   UNL     1     -11.408   9.981  70.216  1.00  0.00    -0.376 A  
HETATM   11  C   UNL     1     -12.494   8.489  72.294  1.00  0.00    -0.448 A  
HETATM   12  C   UNL     1     -12.425  10.521  71.002  1.00  0.00    -0.501 A  
HETATM   13  C   UNL     1     -12.969   9.775  72.041  1.00  0.00    -0.515 A  
ENDROOT
BRANCH   6  14
HETATM   14  C   UNL     1      -9.924   7.104  68.673  1.00  0.00    -0.161 A  
HETATM   15  C   UNL     1     -10.908   6.322  66.585  1.00  0.00    -0.268 A  
HETATM   16  C   UNL     1      -9.512   4.832  67.860  1.00  0.00    -0.181 A  
HETATM   17  C   UNL     1      -9.325   5.836  68.812  1.00  0.00    -0.135 A  
HETATM   18  C   UNL     1     -10.727   7.326  67.543  1.00  0.00    -0.326 A  
HETATM   19  C   UNL     1     -10.295   5.080  66.740  1.00  0.00    -0.290 A  
ENDBRANCH   6  14
TORSDOF 1
ENDMDL
MODEL       54
REMARK 921   NORMALIZED FREE ENERGY PREDICTED BY IDOCK:   -4.61 KCAL/MOL
REMARK 922        TOTAL FREE ENERGY PREDICTED BY IDOCK:   -5.45 KCAL/MOL
REMARK 923 INTER-LIGAND FREE ENERGY PREDICTED BY IDOCK:   -5.38 KCAL/MOL
REMARK 924 INTRA-LIGAND FREE ENERGY PREDICTED BY IDOCK:   -0.07 KCAL/MOL
REMARK 927      BINDING AFFINITY PREDICTED BY RF-SCORE:    0.00 PKD
ROOT
HETATM    1  C   UNL     1     -10.596   5.304  73.984  1.00  0.00    -0.278 C  
HETATM    2  N   UNL     1     -11.030   6.179  72.913  1.00  0.00    -0.257 NA 
HETATM    3  C   UNL     1     -10.991   5.567  71.583  1.00  0.00    -0.168 C  
HETATM    4  C   UNL     1     -10.473   6.313  70.330  1.00  0.00    -0.222 C  
HETATM    5  O   UNL     1     -11.162   7.536  70.131  1.00  0.00    -0.259 OA 
HETATM    6  C   UNL     1     -10.426   8.756  70.337  1.00  0.00    -0.209 C  
HETATM    7  C   UNL     1     -10.719   7.588  73.103  1.00  0.00    -0.398 C  
HETATM    8  C   UNL     1      -9.244   8.627  71.302  1.00  0.00    -0.283 A  
HETATM    9  C   UNL     1      -9.376   8.047  72.584  1.00  0.00    -0.314 A  
HETATM   10  C   UNL     1      -7.954   8.968  70.842  1.00  0.00    -0.194 A  
HETATM   11  C   UNL     1      -8.225   7.826  73.361  1.00  0.00    -0.220 A  
HETATM   12  C   UNL     1      -6.823   8.721  71.619  1.00  0.00    -0.085 A  
HETATM   13  C   UNL     1      -6.958   8.149  72.879  1.00  0.00    -0.119 A  
ENDROOT
BRANCH   6  14
HETATM   14  C   UNL     1     -11.418   9.877  70.673  1.00  0.00    -0.411 A  
HETATM   15  C   UNL     1     -13.279  10.742  71.987  1.00  0.00    -0.466 A  
HETATM   16  C   UNL     1     -12.187  12.186  70.400  1.00  0.00    -0.378 A  
HETATM   17  C   UNL     1     -11.324  11.143  70.060  1.00  0.00    -0.326 A  
HETATM   18  C   UNL     1     -12.419   9.694  71.640  1.00  0.00    -0.494 A  
HETATM   19  C   UNL     1     -13.158  11.988  71.374  1.00  0.00    -0.295 A  
ENDBRANCH   6  14
TORSDOF 1
ENDMDL
MODEL       55
REMARK 921   NORMALIZED FREE ENERGY PREDICTED BY IDOCK:   -4.58 KCAL/MOL
REMARK 922        TOTAL FREE ENERGY PREDICTED BY IDOCK:   -5.42 KCAL/MOL
REMARK 923 INTER-LIGAND FREE ENERGY PREDICTED BY IDOCK:   -4.91 KCAL/MOL
REMARK 924 INTRA-LIGAND FREE ENERGY PREDICTED BY IDOCK:   -0.51 KCAL/MOL
REMARK 927      BINDING AFFINITY PREDICTED BY RF-SCORE:    0.00 PKD
ROOT
HETATM    1  C   UNL     1     -10.340  18.791  66.000  1.00  0.00    -0.422 C  
HETATM    2  N   UNL     1     -10.529  17.437  66.481  1.00  0.00    -0.301 NA 
HETATM    3  C   UNL     1     -10.844  17.344  67.909  1.00  0.00    -0.270 C  
HETATM    4  C   UNL     1     -10.213  16.280  68.840  1.00  0.00    -0.256 C  
HETATM    5  O   UNL     1     -10.428  14.967  68.350  1.00  0.00    -0.230 OA 
HETATM    6  C   UNL     1      -9.284  14.245  67.860  1.00  0.00    -0.194 C  
HETATM    7  C   UNL     1      -9.711  16.429  65.824  1.00  0.00    -0.236 C  
HETATM    8  C   UNL     1      -8.142  15.133  67.358  1.00  0.00    -0.209 A  
HETATM    9  C   UNL     1      -8.350  16.179  66.430  1.00  0.00    -0.357 A  
HETATM   10  C   UNL     1      -6.866  14.994  67.948  1.00  0.00    -0.172 A  
HETATM   11  C   UNL     1      -7.288  17.048  66.124  1.00  0.00    -0.225 A  
HETATM   12  C   UNL     1      -5.833  15.879  67.646  1.00  0.00    -0.171 A  
HETATM   13  C   UNL     1      -6.043  16.907  66.734  1.00  0.00    -0.216 A  
ENDROOT
BRANCH   6  14
HETATM   14  C   UNL     1      -9.764  13.181  66.865  1.00  0.00    -0.243 A  
HETATM   15  C   UNL     1      -9.397  11.118  65.621  1.00  0.00    -0.243 A  
HETATM   16  C   UNL     1     -11.538  12.211  65.483  1.00  0.00    -0.398 A  
HETATM   17  C   UNL     1     -11.075  13.205  66.346  1.00  0.00    -0.311 A  
HETATM   18  C   UNL     1      -8.930  12.120  66.479  1.00  0.00    -0.179 A  
HETATM   19  C   UNL     1     -10.701  11.159  65.130  1.00  0.00    -0.279 A  
ENDBRANCH   6  14
TORSDOF 1
ENDMDL
MODEL       56
REMARK 921   NORMALIZED FREE ENERGY PREDICTED BY IDOCK:   -4.52 KCAL/MOL
REMARK 922        TOTAL FREE ENERGY PREDICTED BY IDOCK:   -5.35 KCAL/MOL
REMARK 923 INTER-LIGAND FREE ENERGY PREDICTED BY IDOCK:   -4.84 KCAL/MOL
REMARK 924 INTRA-LIGAND FREE ENERGY PREDICTED BY IDOCK:   -0.52 KCAL/MOL
REMARK 927      BINDING AFFINITY PREDICTED BY RF-SCORE:    0.00 PKD
ROOT
HETATM    1  C   UNL     1     -10.335   5.965  67.630  1.00  0.00    -0.212 C  
HETATM    2  N   UNL     1     -10.165   7.070  66.709  1.00  0.00    -0.227 NA 
HETATM    3  C   UNL     1      -8.967   6.979  65.871  1.00  0.00    -0.062 C  
HETATM    4  C   UNL     1      -8.054   8.193  65.576  1.00  0.00    -0.130 C  
HETATM    5  O   UNL     1      -8.788   9.271  65.017  1.00  0.00    -0.182 OA 
HETATM    6  C   UNL     1      -8.959  10.448  65.826  1.00  0.00    -0.168 C  
HETATM    7  C   UNL     1     -10.650   8.355  67.190  1.00  0.00    -0.256 C  
HETATM    8  C   UNL     1      -8.891  10.195  67.335  1.00  0.00    -0.135 A  
HETATM    9  C   UNL     1      -9.659   9.190  67.967  1.00  0.00    -0.165 A  
HETATM   10  C   UNL     1      -7.928  10.892  68.096  1.00  0.00    -0.117 A  
HETATM   11  C   UNL     1      -9.441   8.912  69.328  1.00  0.00    -0.161 A  
HETATM   12  C   UNL     1      -7.713  10.587  69.439  1.00  0.00    -0.157 A  
HETATM   13  C   UNL     1      -8.469   9.597  70.056  1.00  0.00    -0.223 A  
ENDROOT
BRANCH   6  14
HETATM   14  C   UNL     1     -10.213  11.193  65.349  1.00  0.00    -0.327 A  
HETATM   15  C   UNL     1     -12.073  12.709  65.775  1.00  0.00    -0.484 A  
HETATM   16  C   UNL     1     -11.722  11.873  63.545  1.00  0.00    -0.550 A  
HETATM   17  C   UNL     1     -10.616  11.154  63.999  1.00  0.00    -0.436 A  
HETATM   18  C   UNL     1     -10.968  11.981  66.232  1.00  0.00    -0.340 A  
HETATM   19  C   UNL     1     -12.444  12.661  64.433  1.00  0.00    -0.509 A  
ENDBRANCH   6  14
TORSDOF 1
ENDMDL
MODEL       57
REMARK 921   NORMALIZED FREE ENERGY PREDICTED BY IDOCK:   -4.52 KCAL/MOL
REMARK 922        TOTAL FREE ENERGY PREDICTED BY IDOCK:   -5.35 KCAL/MOL
REMARK 923 INTER-LIGAND FREE ENERGY PREDICTED BY IDOCK:   -4.76 KCAL/MOL
REMARK 924 INTRA-LIGAND FREE ENERGY PREDICTED BY IDOCK:   -0.59 KCAL/MOL
REMARK 927      BINDING AFFINITY PREDICTED BY RF-SCORE:    0.00 PKD
ROOT
HETATM    1  C   UNL     1     -12.265  15.529  64.107  1.00  0.00    -0.004 C  
HETATM    2  N   UNL     1     -11.854  14.262  64.677  1.00  0.00    -0.424 NA 
HETATM    3  C   UNL     1     -12.702  13.792  65.776  1.00  0.00    -0.446 C  
HETATM    4  C   UNL     1     -12.128  13.164  67.069  1.00  0.00    -0.307 C  
HETATM    5  O   UNL     1     -11.287  12.059  66.782  1.00  0.00    -0.307 OA 
HETATM    6  C   UNL     1      -9.878  12.213  67.032  1.00  0.00    -0.203 C  
HETATM    7  C   UNL     1     -10.418  14.023  64.680  1.00  0.00    -0.373 C  
HETATM    8  C   UNL     1      -9.381  13.661  66.980  1.00  0.00    -0.249 A  
HETATM    9  C   UNL     1      -9.665  14.518  65.892  1.00  0.00    -0.324 A  
HETATM   10  C   UNL     1      -8.739  14.198  68.117  1.00  0.00    -0.181 A  
HETATM   11  C   UNL     1      -9.304  15.875  65.973  1.00  0.00    -0.385 A  
HETATM   12  C   UNL     1      -8.409  15.550  68.186  1.00  0.00    -0.145 A  
HETATM   13  C   UNL     1      -8.692  16.390  67.115  1.00  0.00    -0.207 A  
ENDROOT
BRANCH   6  14
HETATM   14  C   UNL     1      -9.111  11.230  66.138  1.00  0.00    -0.216 A  
HETATM   15  C   UNL     1      -9.063   9.595  64.332  1.00  0.00    -0.279 A  
HETATM   16  C   UNL     1      -6.995  10.276  65.358  1.00  0.00    -0.139 A  
HETATM   17  C   UNL     1      -7.706  11.126  66.206  1.00  0.00    -0.097 A  
HETATM   18  C   UNL     1      -9.778  10.442  65.188  1.00  0.00    -0.353 A  
HETATM   19  C   UNL     1      -7.674   9.519  64.412  1.00  0.00    -0.123 A  
ENDBRANCH   6  14
TORSDOF 1
ENDMDL
MODEL       58
REMARK 921   NORMALIZED FREE ENERGY PREDICTED BY IDOCK:   -4.50 KCAL/MOL
REMARK 922        TOTAL FREE ENERGY PREDICTED BY IDOCK:   -5.34 KCAL/MOL
REMARK 923 INTER-LIGAND FREE ENERGY PREDICTED BY IDOCK:   -4.78 KCAL/MOL
REMARK 924 INTRA-LIGAND FREE ENERGY PREDICTED BY IDOCK:   -0.55 KCAL/MOL
REMARK 927      BINDING AFFINITY PREDICTED BY RF-SCORE:    0.00 PKD
ROOT
HETATM    1  C   UNL     1      -9.171   6.550  73.816  1.00  0.00    -0.144 C  
HETATM    2  N   UNL     1     -10.192   7.233  73.048  1.00  0.00    -0.237 NA 
HETATM    3  C   UNL     1     -11.144   6.340  72.382  1.00  0.00    -0.270 C  
HETATM    4  C   UNL     1     -11.634   6.568  70.931  1.00  0.00    -0.359 C  
HETATM    5  O   UNL     1     -12.197   7.859  70.769  1.00  0.00    -0.185 OA 
HETATM    6  C   UNL     1     -11.472   8.803  69.959  1.00  0.00     0.055 C  
HETATM    7  C   UNL     1      -9.768   8.479  72.427  1.00  0.00    -0.287 C  
HETATM    8  C   UNL     1      -9.964   8.548  69.886  1.00  0.00    -0.189 A  
HETATM    9  C   UNL     1      -9.173   8.361  71.043  1.00  0.00    -0.206 A  
HETATM   10  C   UNL     1      -9.370   8.352  68.620  1.00  0.00    -0.143 A  
HETATM   11  C   UNL     1      -7.825   7.986  70.902  1.00  0.00    -0.089 A  
HETATM   12  C   UNL     1      -8.037   7.960  68.502  1.00  0.00    -0.123 A  
HETATM   13  C   UNL     1      -7.264   7.776  69.643  1.00  0.00    -0.075 A  
ENDROOT
BRANCH   6  14
HETATM   14  C   UNL     1     -11.870  10.222  70.383  1.00  0.00    -0.396 A  
HETATM   15  C   UNL     1     -11.901  12.627  69.988  1.00  0.00    -0.358 A  
HETATM   16  C   UNL     1     -13.098  11.728  71.873  1.00  0.00    -0.482 A  
HETATM   17  C   UNL     1     -12.685  10.445  71.512  1.00  0.00    -0.564 A  
HETATM   18  C   UNL     1     -11.479  11.341  69.631  1.00  0.00    -0.380 A  
HETATM   19  C   UNL     1     -12.714  12.819  71.103  1.00  0.00    -0.355 A  
ENDBRANCH   6  14
TORSDOF 1
ENDMDL
MODEL       59
REMARK 921   NORMALIZED FREE ENERGY PREDICTED BY IDOCK:   -4.47 KCAL/MOL
REMARK 922        TOTAL FREE ENERGY PREDICTED BY IDOCK:   -5.30 KCAL/MOL
REMARK 923 INTER-LIGAND FREE ENERGY PREDICTED BY IDOCK:   -4.72 KCAL/MOL
REMARK 924 INTRA-LIGAND FREE ENERGY PREDICTED BY IDOCK:   -0.59 KCAL/MOL
REMARK 927      BINDING AFFINITY PREDICTED BY RF-SCORE:    0.00 PKD
ROOT
HETATM    1  C   UNL     1      -6.587   9.519  70.804  1.00  0.00    -0.104 C  
HETATM    2  N   UNL     1      -7.949   9.910  70.501  1.00  0.00    -0.234 NA 
HETATM    3  C   UNL     1      -8.971   9.063  71.122  1.00  0.00    -0.235 C  
HETATM    4  C   UNL     1     -10.239   8.590  70.371  1.00  0.00    -0.195 C  
HETATM    5  O   UNL     1     -10.969   9.684  69.841  1.00  0.00    -0.234 OA 
HETATM    6  C   UNL     1     -10.994   9.836  68.410  1.00  0.00    -0.152 C  
HETATM    7  C   UNL     1      -8.148  10.480  69.177  1.00  0.00    -0.152 C  
HETATM    8  C   UNL     1      -9.791   9.222  67.688  1.00  0.00    -0.221 A  
HETATM    9  C   UNL     1      -8.458   9.498  68.071  1.00  0.00    -0.119 A  
HETATM   10  C   UNL     1     -10.022   8.241  66.699  1.00  0.00    -0.348 A  
HETATM   11  C   UNL     1      -7.407   8.790  67.462  1.00  0.00    -0.081 A  
HETATM   12  C   UNL     1      -8.967   7.536  66.123  1.00  0.00    -0.188 A  
HETATM   13  C   UNL     1      -7.659   7.809  66.505  1.00  0.00    -0.096 A  
ENDROOT
BRANCH   6  14
HETATM   14  C   UNL     1     -11.269  11.308  68.077  1.00  0.00    -0.351 A  
HETATM   15  C   UNL     1     -11.593  13.091  66.449  1.00  0.00    -0.413 A  
HETATM   16  C   UNL     1     -11.881  13.569  68.791  1.00  0.00    -0.390 A  
HETATM   17  C   UNL     1     -11.574  12.240  69.090  1.00  0.00    -0.373 A  
HETATM   18  C   UNL     1     -11.278  11.761  66.749  1.00  0.00    -0.388 A  
HETATM   19  C   UNL     1     -11.902  13.991  67.467  1.00  0.00    -0.442 A  
ENDBRANCH   6  14
TORSDOF 1
ENDMDL
MODEL       60
REMARK 921   NORMALIZED FREE ENERGY PREDICTED BY IDOCK:   -4.41 KCAL/MOL
REMARK 922        TOTAL FREE ENERGY PREDICTED BY IDOCK:   -5.24 KCAL/MOL
REMARK 923 INTER-LIGAND FREE ENERGY PREDICTED BY IDOCK:   -4.83 KCAL/MOL
REMARK 924 INTRA-LIGAND FREE ENERGY PREDICTED BY IDOCK:   -0.41 KCAL/MOL
REMARK 927      BINDING AFFINITY PREDICTED BY RF-SCORE:    0.00 PKD
ROOT
HETATM    1  C   UNL     1      -7.430  14.735  67.566  1.00  0.00    -0.198 C  
HETATM    2  N   UNL     1      -7.830  13.454  68.114  1.00  0.00    -0.133 NA 
HETATM    3  C   UNL     1      -6.873  12.371  67.872  1.00  0.00    -0.099 C  
HETATM    4  C   UNL     1      -7.306  10.946  67.453  1.00  0.00    -0.099 C  
HETATM    5  O   UNL     1      -8.233  10.392  68.373  1.00  0.00    -0.106 OA 
HETATM    6  C   UNL     1      -9.588  10.211  67.923  1.00  0.00    -0.148 C  
HETATM    7  C   UNL     1      -9.263  13.204  68.118  1.00  0.00    -0.215 C  
HETATM    8  C   UNL     1     -10.013  11.158  66.796  1.00  0.00    -0.242 A  
HETATM    9  C   UNL     1      -9.828  12.557  66.874  1.00  0.00    -0.229 A  
HETATM   10  C   UNL     1     -10.474  10.602  65.583  1.00  0.00    -0.235 A  
HETATM   11  C   UNL     1     -10.104  13.352  65.748  1.00  0.00    -0.297 A  
HETATM   12  C   UNL     1     -10.722  11.406  64.470  1.00  0.00    -0.391 A  
HETATM   13  C   UNL     1     -10.537  12.781  64.552  1.00  0.00    -0.383 A  
ENDROOT
BRANCH   6  14
HETATM   14  C   UNL     1     -10.515  10.202  69.146  1.00  0.00    -0.242 A  
HETATM   15  C   UNL     1     -10.949   9.637  71.476  1.00  0.00    -0.266 A  
HETATM   16  C   UNL     1     -12.587  10.901  70.246  1.00  0.00    -0.342 A  
HETATM   17  C   UNL     1     -11.763  10.857  69.121  1.00  0.00    -0.397 A  
HETATM   18  C   UNL     1     -10.126   9.585  70.345  1.00  0.00    -0.329 A  
HETATM   19  C   UNL     1     -12.173  10.300  71.428  1.00  0.00    -0.481 A  
ENDBRANCH   6  14
TORSDOF 1
ENDMDL
MODEL       61
REMARK 921   NORMALIZED FREE ENERGY PREDICTED BY IDOCK:   -4.30 KCAL/MOL
REMARK 922        TOTAL FREE ENERGY PREDICTED BY IDOCK:   -5.12 KCAL/MOL
REMARK 923 INTER-LIGAND FREE ENERGY PREDICTED BY IDOCK:   -4.54 KCAL/MOL
REMARK 924 INTRA-LIGAND FREE ENERGY PREDICTED BY IDOCK:   -0.58 KCAL/MOL
REMARK 927      BINDING AFFINITY PREDICTED BY RF-SCORE:    0.00 PKD
ROOT
HETATM    1  C   UNL     1     -11.065  13.220  66.253  1.00  0.00    -0.290 C  
HETATM    2  N   UNL     1     -10.691  12.358  67.355  1.00  0.00    -0.225 NA 
HETATM    3  C   UNL     1      -9.478  12.776  68.063  1.00  0.00    -0.213 C  
HETATM    4  C   UNL     1      -8.385  11.778  68.516  1.00  0.00    -0.131 C  
HETATM    5  O   UNL     1      -8.925  10.749  69.329  1.00  0.00    -0.136 OA 
HETATM    6  C   UNL     1      -8.964   9.419  68.780  1.00  0.00    -0.132 C  
HETATM    7  C   UNL     1     -11.008  10.949  67.172  1.00  0.00    -0.272 C  
HETATM    8  C   UNL     1      -9.010   9.368  67.250  1.00  0.00    -0.143 A  
HETATM    9  C   UNL     1      -9.946  10.113  66.496  1.00  0.00    -0.283 A  
HETATM   10  C   UNL     1      -7.995   8.664  66.566  1.00  0.00    -0.099 A  
HETATM   11  C   UNL     1      -9.839  10.134  65.095  1.00  0.00    -0.394 A  
HETATM   12  C   UNL     1      -7.894   8.716  65.176  1.00  0.00    -0.110 A  
HETATM   13  C   UNL     1      -8.816   9.451  64.440  1.00  0.00    -0.225 A  
ENDROOT
BRANCH   6  14
HETATM   14  C   UNL     1     -10.071   8.628  69.489  1.00  0.00    -0.203 A  
HETATM   15  C   UNL     1     -11.312   6.560  69.836  1.00  0.00    -0.469 A  
HETATM   16  C   UNL     1     -11.779   8.463  71.235  1.00  0.00    -0.325 A  
HETATM   17  C   UNL     1     -10.810   9.194  70.547  1.00  0.00    -0.306 A  
HETATM   18  C   UNL     1     -10.346   7.296  69.141  1.00  0.00    -0.207 A  
HETATM   19  C   UNL     1     -12.022   7.140  70.886  1.00  0.00    -0.375 A  
ENDBRANCH   6  14
TORSDOF 1
ENDMDL
MODEL       62
REMARK 921   NORMALIZED FREE ENERGY PREDICTED BY IDOCK:   -4.30 KCAL/MOL
REMARK 922        TOTAL FREE ENERGY PREDICTED BY IDOCK:   -5.12 KCAL/MOL
REMARK 923 INTER-LIGAND FREE ENERGY PREDICTED BY IDOCK:   -4.68 KCAL/MOL
REMARK 924 INTRA-LIGAND FREE ENERGY PREDICTED BY IDOCK:   -0.45 KCAL/MOL
REMARK 927      BINDING AFFINITY PREDICTED BY RF-SCORE:    0.00 PKD
ROOT
HETATM    1  C   UNL     1      -7.159  10.828  69.432  1.00  0.00    -0.122 C  
HETATM    2  N   UNL     1      -8.324  10.716  68.578  1.00  0.00    -0.123 NA 
HETATM    3  C   UNL     1      -8.948   9.390  68.582  1.00  0.00    -0.132 C  
HETATM    4  C   UNL     1      -9.457   8.698  67.295  1.00  0.00    -0.156 C  
HETATM    5  O   UNL     1     -10.380   9.516  66.595  1.00  0.00    -0.243 OA 
HETATM    6  C   UNL     1      -9.959  10.062  65.331  1.00  0.00    -0.294 C  
HETATM    7  C   UNL     1      -8.284  11.525  67.369  1.00  0.00    -0.149 C  
HETATM    8  C   UNL     1      -8.443  10.222  65.184  1.00  0.00    -0.173 A  
HETATM    9  C   UNL     1      -7.655  10.877  66.158  1.00  0.00    -0.119 A  
HETATM   10  C   UNL     1      -7.794   9.571  64.113  1.00  0.00    -0.126 A  
HETATM   11  C   UNL     1      -6.254  10.861  66.034  1.00  0.00    -0.115 A  
HETATM   12  C   UNL     1      -6.403   9.549  64.019  1.00  0.00    -0.099 A  
HETATM   13  C   UNL     1      -5.633  10.193  64.980  1.00  0.00    -0.107 A  
ENDROOT
BRANCH   6  14
HETATM   14  C   UNL     1     -10.776  11.329  65.048  1.00  0.00    -0.322 A  
HETATM   15  C   UNL     1     -11.734  12.932  63.482  1.00  0.00    -0.576 A  
HETATM   16  C   UNL     1     -12.226  13.141  65.829  1.00  0.00    -0.514 A  
HETATM   17  C   UNL     1     -11.436  12.020  66.085  1.00  0.00    -0.401 A  
HETATM   18  C   UNL     1     -10.935  11.812  63.740  1.00  0.00    -0.500 A  
HETATM   19  C   UNL     1     -12.385  13.590  64.524  1.00  0.00    -0.406 A  
ENDBRANCH   6  14
TORSDOF 1
ENDMDL
MODEL       63
REMARK 921   NORMALIZED FREE ENERGY PREDICTED BY IDOCK:   -4.29 KCAL/MOL
REMARK 922        TOTAL FREE ENERGY PREDICTED BY IDOCK:   -5.11 KCAL/MOL
REMARK 923 INTER-LIGAND FREE ENERGY PREDICTED BY IDOCK:   -4.53 KCAL/MOL
REMARK 924 INTRA-LIGAND FREE ENERGY PREDICTED BY IDOCK:   -0.58 KCAL/MOL
REMARK 927      BINDING AFFINITY PREDICTED BY RF-SCORE:    0.00 PKD
ROOT
HETATM    1  C   UNL     1     -12.532   6.651  71.920  1.00  0.00    -0.287 C  
HETATM    2  N   UNL     1     -12.014   7.326  70.747  1.00  0.00    -0.301 NA 
HETATM    3  C   UNL     1     -11.470   6.428  69.725  1.00  0.00    -0.399 C  
HETATM    4  C   UNL     1     -10.153   6.719  68.966  1.00  0.00    -0.164 C  
HETATM    5  O   UNL     1     -10.189   7.986  68.331  1.00  0.00    -0.198 OA 
HETATM    6  C   UNL     1      -9.329   9.016  68.854  1.00  0.00    -0.143 C  
HETATM    7  C   UNL     1     -11.416   8.629  70.998  1.00  0.00    -0.278 C  
HETATM    8  C   UNL     1      -8.965   8.846  70.332  1.00  0.00    -0.207 A  
HETATM    9  C   UNL     1      -9.942   8.630  71.330  1.00  0.00    -0.324 A  
HETATM   10  C   UNL     1      -7.601   8.762  70.688  1.00  0.00    -0.090 A  
HETATM   11  C   UNL     1      -9.531   8.337  72.643  1.00  0.00    -0.354 A  
HETATM   12  C   UNL     1      -7.215   8.449  71.990  1.00  0.00    -0.114 A  
HETATM   13  C   UNL     1      -8.179   8.236  72.968  1.00  0.00    -0.227 A  
ENDROOT
BRANCH   6  14
HETATM   14  C   UNL     1      -9.919  10.383  68.484  1.00  0.00    -0.179 A  
HETATM   15  C   UNL     1      -9.766  12.814  68.418  1.00  0.00    -0.186 A  
HETATM   16  C   UNL     1     -11.635  11.723  67.364  1.00  0.00    -0.352 A  
HETATM   17  C   UNL     1     -11.120  10.486  67.753  1.00  0.00    -0.382 A  
HETATM   18  C   UNL     1      -9.254  11.573  68.816  1.00  0.00    -0.076 A  
HETATM   19  C   UNL     1     -10.950  12.888  67.687  1.00  0.00    -0.274 A  
ENDBRANCH   6  14
TORSDOF 1
ENDMDL
MODEL       64
REMARK 921   NORMALIZED FREE ENERGY PREDICTED BY IDOCK:   -4.28 KCAL/MOL
REMARK 922        TOTAL FREE ENERGY PREDICTED BY IDOCK:   -5.10 KCAL/MOL
REMARK 923 INTER-LIGAND FREE ENERGY PREDICTED BY IDOCK:   -4.78 KCAL/MOL
REMARK 924 INTRA-LIGAND FREE ENERGY PREDICTED BY IDOCK:   -0.31 KCAL/MOL
REMARK 927      BINDING AFFINITY PREDICTED BY RF-SCORE:    0.00 PKD
ROOT
HETATM    1  C   UNL     1     -10.968  15.660  67.875  1.00  0.00    -0.319 C  
HETATM    2  N   UNL     1     -11.134  14.341  67.299  1.00  0.00    -0.297 NA 
HETATM    3  C   UNL     1     -11.983  13.442  68.085  1.00  0.00    -0.321 C  
HETATM    4  C   UNL     1     -11.635  11.953  68.323  1.00  0.00    -0.327 C  
HETATM    5  O   UNL     1     -11.438  11.263  67.100  1.00  0.00    -0.460 OA 
HETATM    6  C   UNL     1     -10.100  10.831  66.789  1.00  0.00    -0.222 C  
HETATM    7  C   UNL     1      -9.982  13.838  66.566  1.00  0.00    -0.288 C  
HETATM    8  C   UNL     1      -8.997  11.660  67.453  1.00  0.00    -0.166 A  
HETATM    9  C   UNL     1      -8.963  13.071  67.377  1.00  0.00    -0.204 A  
HETATM   10  C   UNL     1      -8.064  11.003  68.285  1.00  0.00    -0.128 A  
HETATM   11  C   UNL     1      -8.008  13.778  68.130  1.00  0.00    -0.150 A  
HETATM   12  C   UNL     1      -7.140  11.724  69.040  1.00  0.00    -0.100 A  
HETATM   13  C   UNL     1      -7.111  13.111  68.963  1.00  0.00    -0.030 A  
ENDROOT
BRANCH   6  14
HETATM   14  C   UNL     1      -9.973  10.684  65.267  1.00  0.00    -0.356 A  
HETATM   15  C   UNL     1     -10.516  11.425  63.010  1.00  0.00    -0.224 A  
HETATM   16  C   UNL     1      -8.935   9.635  63.313  1.00  0.00    -0.251 A  
HETATM   17  C   UNL     1      -9.099   9.737  64.696  1.00  0.00    -0.294 A  
HETATM   18  C   UNL     1     -10.686  11.522  64.395  1.00  0.00    -0.404 A  
HETATM   19  C   UNL     1      -9.636  10.488  62.471  1.00  0.00    -0.241 A  
ENDBRANCH   6  14
TORSDOF 1
ENDMDL
MODEL       65
REMARK 921   NORMALIZED FREE ENERGY PREDICTED BY IDOCK:   -4.21 KCAL/MOL
REMARK 922        TOTAL FREE ENERGY PREDICTED BY IDOCK:   -5.02 KCAL/MOL
REMARK 923 INTER-LIGAND FREE ENERGY PREDICTED BY IDOCK:   -4.49 KCAL/MOL
REMARK 924 INTRA-LIGAND FREE ENERGY PREDICTED BY IDOCK:   -0.53 KCAL/MOL
REMARK 927      BINDING AFFINITY PREDICTED BY RF-SCORE:    0.00 PKD
ROOT
HETATM    1  C   UNL     1      -8.308  10.039  69.481  1.00  0.00    -0.172 C  
HETATM    2  N   UNL     1      -8.687   8.651  69.313  1.00  0.00    -0.131 NA 
HETATM    3  C   UNL     1      -9.372   8.362  68.051  1.00  0.00    -0.136 C  
HETATM    4  C   UNL     1     -10.609   7.437  67.959  1.00  0.00    -0.175 C  
HETATM    5  O   UNL     1     -10.343   6.158  68.512  1.00  0.00    -0.166 OA 
HETATM    6  C   UNL     1     -11.011   5.812  69.739  1.00  0.00    -0.327 C  
HETATM    7  C   UNL     1      -9.046   7.956  70.540  1.00  0.00    -0.154 C  
HETATM    8  C   UNL     1     -11.414   7.012  70.601  1.00  0.00    -0.367 A  
HETATM    9  C   UNL     1     -10.500   8.034  70.946  1.00  0.00    -0.223 A  
HETATM   10  C   UNL     1     -12.774   7.175  70.942  1.00  0.00    -0.225 A  
HETATM   11  C   UNL     1     -10.968   9.179  71.614  1.00  0.00    -0.445 A  
HETATM   12  C   UNL     1     -13.222   8.328  71.586  1.00  0.00    -0.349 A  
HETATM   13  C   UNL     1     -12.319   9.330  71.922  1.00  0.00    -0.454 A  
ENDROOT
BRANCH   6  14
HETATM   14  C   UNL     1     -10.185   4.741  70.463  1.00  0.00    -0.252 A  
HETATM   15  C   UNL     1      -9.533   3.584  72.506  1.00  0.00    -0.179 A  
HETATM   16  C   UNL     1      -8.674   2.816  70.392  1.00  0.00    -0.128 A  
HETATM   17  C   UNL     1      -9.385   3.828  69.746  1.00  0.00    -0.245 A  
HETATM   18  C   UNL     1     -10.240   4.604  71.859  1.00  0.00    -0.254 A  
HETATM   19  C   UNL     1      -8.758   2.687  71.773  1.00  0.00    -0.109 A  
ENDBRANCH   6  14
TORSDOF 1
ENDMDL
MODEL       66
REMARK 921   NORMALIZED FREE ENERGY PREDICTED BY IDOCK:   -4.20 KCAL/MOL
REMARK 922        TOTAL FREE ENERGY PREDICTED BY IDOCK:   -5.01 KCAL/MOL
REMARK 923 INTER-LIGAND FREE ENERGY PREDICTED BY IDOCK:   -4.55 KCAL/MOL
REMARK 924 INTRA-LIGAND FREE ENERGY PREDICTED BY IDOCK:   -0.46 KCAL/MOL
REMARK 927      BINDING AFFINITY PREDICTED BY RF-SCORE:    0.00 PKD
ROOT
HETATM    1  C   UNL     1      -6.587  13.356  69.302  1.00  0.00    -0.097 C  
HETATM    2  N   UNL     1      -7.664  13.281  68.336  1.00  0.00    -0.134 NA 
HETATM    3  C   UNL     1      -8.793  14.169  68.622  1.00  0.00    -0.132 C  
HETATM    4  C   UNL     1     -10.269  13.727  68.470  1.00  0.00    -0.235 C  
HETATM    5  O   UNL     1     -10.533  13.238  67.165  1.00  0.00    -0.246 OA 
HETATM    6  C   UNL     1     -10.798  11.830  67.024  1.00  0.00    -0.263 C  
HETATM    7  C   UNL     1      -7.871  11.968  67.742  1.00  0.00    -0.145 C  
HETATM    8  C   UNL     1     -10.180  10.957  68.120  1.00  0.00    -0.197 A  
HETATM    9  C   UNL     1      -8.816  11.048  68.479  1.00  0.00    -0.159 A  
HETATM   10  C   UNL     1     -11.031  10.136  68.892  1.00  0.00    -0.261 A  
HETATM   11  C   UNL     1      -8.347  10.325  69.590  1.00  0.00    -0.139 A  
HETATM   12  C   UNL     1     -10.551   9.444  70.003  1.00  0.00    -0.267 A  
HETATM   13  C   UNL     1      -9.209   9.538  70.353  1.00  0.00    -0.305 A  
ENDROOT
BRANCH   6  14
HETATM   14  C   UNL     1     -10.457  11.408  65.589  1.00  0.00    -0.316 A  
HETATM   15  C   UNL     1     -10.278  11.916  63.212  1.00  0.00    -0.428 A  
HETATM   16  C   UNL     1      -9.523   9.778  64.019  1.00  0.00    -0.131 A  
HETATM   17  C   UNL     1      -9.888  10.148  65.314  1.00  0.00    -0.388 A  
HETATM   18  C   UNL     1     -10.652  12.284  64.510  1.00  0.00    -0.346 A  
HETATM   19  C   UNL     1      -9.708  10.668  62.969  1.00  0.00    -0.362 A  
ENDBRANCH   6  14
TORSDOF 1
ENDMDL
MODEL       67
REMARK 921   NORMALIZED FREE ENERGY PREDICTED BY IDOCK:   -4.19 KCAL/MOL
REMARK 922        TOTAL FREE ENERGY PREDICTED BY IDOCK:   -5.00 KCAL/MOL
REMARK 923 INTER-LIGAND FREE ENERGY PREDICTED BY IDOCK:   -4.69 KCAL/MOL
REMARK 924 INTRA-LIGAND FREE ENERGY PREDICTED BY IDOCK:   -0.31 KCAL/MOL
REMARK 927      BINDING AFFINITY PREDICTED BY RF-SCORE:    0.00 PKD
ROOT
HETATM    1  C   UNL     1     -10.319   9.653  70.220  1.00  0.00    -0.280 C  
HETATM    2  N   UNL     1     -10.521   9.830  68.796  1.00  0.00    -0.210 NA 
HETATM    3  C   UNL     1     -10.316   8.615  68.003  1.00  0.00    -0.223 C  
HETATM    4  C   UNL     1      -9.560   8.612  66.653  1.00  0.00    -0.221 C  
HETATM    5  O   UNL     1     -10.126   9.534  65.737  1.00  0.00    -0.288 OA 
HETATM    6  C   UNL     1      -9.351  10.700  65.402  1.00  0.00    -0.210 C  
HETATM    7  C   UNL     1     -10.149  11.138  68.278  1.00  0.00    -0.185 C  
HETATM    8  C   UNL     1      -8.345  11.121  66.477  1.00  0.00    -0.166 A  
HETATM    9  C   UNL     1      -8.714  11.292  67.832  1.00  0.00    -0.138 A  
HETATM   10  C   UNL     1      -6.979  11.204  66.132  1.00  0.00    -0.000 A  
HETATM   11  C   UNL     1      -7.716  11.536  68.791  1.00  0.00    -0.124 A  
HETATM   12  C   UNL     1      -6.002  11.426  67.102  1.00  0.00    -0.098 A  
HETATM   13  C   UNL     1      -6.370  11.592  68.432  1.00  0.00    -0.050 A  
ENDROOT
BRANCH   6  14
HETATM   14  C   UNL     1     -10.306  11.807  64.937  1.00  0.00    -0.334 A  
HETATM   15  C   UNL     1     -11.015  14.138  64.940  1.00  0.00    -0.405 A  
HETATM   16  C   UNL     1     -12.139  12.568  63.503  1.00  0.00    -0.653 A  
HETATM   17  C   UNL     1     -11.303  11.554  63.974  1.00  0.00    -0.380 A  
HETATM   18  C   UNL     1     -10.182  13.120  65.418  1.00  0.00    -0.301 A  
HETATM   19  C   UNL     1     -11.986  13.864  63.979  1.00  0.00    -0.425 A  
ENDBRANCH   6  14
TORSDOF 1
ENDMDL
MODEL       68
REMARK 921   NORMALIZED FREE ENERGY PREDICTED BY IDOCK:   -4.17 KCAL/MOL
REMARK 922        TOTAL FREE ENERGY PREDICTED BY IDOCK:   -4.98 KCAL/MOL
REMARK 923 INTER-LIGAND FREE ENERGY PREDICTED BY IDOCK:   -4.39 KCAL/MOL
REMARK 924 INTRA-LIGAND FREE ENERGY PREDICTED BY IDOCK:   -0.58 KCAL/MOL
REMARK 927      BINDING AFFINITY PREDICTED BY RF-SCORE:    0.00 PKD
ROOT
HETATM    1  C   UNL     1      -7.408   6.501  67.424  1.00  0.00    -0.091 C  
HETATM    2  N   UNL     1      -8.510   6.201  68.316  1.00  0.00    -0.113 NA 
HETATM    3  C   UNL     1      -9.766   5.878  67.635  1.00  0.00    -0.115 C  
HETATM    4  C   UNL     1     -11.138   6.418  68.105  1.00  0.00    -0.263 C  
HETATM    5  O   UNL     1     -11.386   6.096  69.464  1.00  0.00    -0.418 OA 
HETATM    6  C   UNL     1     -11.389   7.178  70.414  1.00  0.00    -0.289 C  
HETATM    7  C   UNL     1      -8.502   6.933  69.574  1.00  0.00    -0.133 C  
HETATM    8  C   UNL     1     -10.551   8.390  69.995  1.00  0.00    -0.235 A  
HETATM    9  C   UNL     1      -9.209   8.269  69.569  1.00  0.00    -0.158 A  
HETATM   10  C   UNL     1     -11.183   9.649  69.899  1.00  0.00    -0.244 A  
HETATM   11  C   UNL     1      -8.544   9.399  69.060  1.00  0.00    -0.135 A  
HETATM   12  C   UNL     1     -10.513  10.752  69.372  1.00  0.00    -0.229 A  
HETATM   13  C   UNL     1      -9.193  10.628  68.952  1.00  0.00    -0.189 A  
ENDROOT
BRANCH   6  14
HETATM   14  C   UNL     1     -11.064   6.612  71.802  1.00  0.00    -0.287 A  
HETATM   15  C   UNL     1     -10.794   4.721  73.314  1.00  0.00    -0.351 A  
HETATM   16  C   UNL     1     -10.264   6.936  74.094  1.00  0.00    -0.331 A  
HETATM   17  C   UNL     1     -10.616   7.449  72.844  1.00  0.00    -0.370 A  
HETATM   18  C   UNL     1     -11.154   5.236  72.064  1.00  0.00    -0.151 A  
HETATM   19  C   UNL     1     -10.343   5.568  74.324  1.00  0.00    -0.293 A  
ENDBRANCH   6  14
TORSDOF 1
ENDMDL
MODEL       69
REMARK 921   NORMALIZED FREE ENERGY PREDICTED BY IDOCK:   -4.16 KCAL/MOL
REMARK 922        TOTAL FREE ENERGY PREDICTED BY IDOCK:   -4.97 KCAL/MOL
REMARK 923 INTER-LIGAND FREE ENERGY PREDICTED BY IDOCK:   -4.43 KCAL/MOL
REMARK 924 INTRA-LIGAND FREE ENERGY PREDICTED BY IDOCK:   -0.54 KCAL/MOL
REMARK 927      BINDING AFFINITY PREDICTED BY RF-SCORE:    0.00 PKD
ROOT
HETATM    1  C   UNL     1     -12.580  13.719  70.456  1.00  0.00    -0.291 C  
HETATM    2  N   UNL     1     -11.466  14.536  70.021  1.00  0.00    -0.266 NA 
HETATM    3  C   UNL     1     -11.821  15.924  69.713  1.00  0.00    -0.295 C  
HETATM    4  C   UNL     1     -11.268  16.679  68.480  1.00  0.00    -0.239 C  
HETATM    5  O   UNL     1      -9.850  16.669  68.458  1.00  0.00    -0.232 OA 
HETATM    6  C   UNL     1      -9.207  15.892  67.432  1.00  0.00    -0.201 C  
HETATM    7  C   UNL     1     -10.445  13.834  69.258  1.00  0.00     0.067 C  
HETATM    8  C   UNL     1     -10.045  14.724  66.903  1.00  0.00    -0.246 A  
HETATM    9  C   UNL     1     -10.654  13.781  67.762  1.00  0.00    -0.250 A  
HETATM   10  C   UNL     1     -10.336  14.670  65.522  1.00  0.00    -0.383 A  
HETATM   11  C   UNL     1     -11.529  12.822  67.222  1.00  0.00    -0.393 A  
HETATM   12  C   UNL     1     -11.223  13.725  65.009  1.00  0.00    -0.339 A  
HETATM   13  C   UNL     1     -11.820  12.801  65.858  1.00  0.00    -0.490 A  
ENDROOT
BRANCH   6  14
HETATM   14  C   UNL     1      -7.799  15.514  67.912  1.00  0.00    -0.142 A  
HETATM   15  C   UNL     1      -5.866  15.912  69.341  1.00  0.00    -0.127 A  
HETATM   16  C   UNL     1      -5.906  13.962  67.930  1.00  0.00    -0.132 A  
HETATM   17  C   UNL     1      -7.163  14.342  67.456  1.00  0.00    -0.202 A  
HETATM   18  C   UNL     1      -7.123  16.298  68.860  1.00  0.00    -0.182 A  
HETATM   19  C   UNL     1      -5.263  14.742  68.882  1.00  0.00    -0.088 A  
ENDBRANCH   6  14
TORSDOF 1
ENDMDL
MODEL       70
REMARK 921   NORMALIZED FREE ENERGY PREDICTED BY IDOCK:   -4.10 KCAL/MOL
REMARK 922        TOTAL FREE ENERGY PREDICTED BY IDOCK:   -4.91 KCAL/MOL
REMARK 923 INTER-LIGAND FREE ENERGY PREDICTED BY IDOCK:   -4.38 KCAL/MOL
REMARK 924 INTRA-LIGAND FREE ENERGY PREDICTED BY IDOCK:   -0.53 KCAL/MOL
REMARK 927      BINDING AFFINITY PREDICTED BY RF-SCORE:    0.00 PKD
ROOT
HETATM    1  C   UNL     1      -8.280   7.287  65.182  1.00  0.00    -0.110 C  
HETATM    2  N   UNL     1      -8.329   8.443  66.054  1.00  0.00    -0.118 NA 
HETATM    3  C   UNL     1      -7.175   8.572  66.948  1.00  0.00    -0.075 C  
HETATM    4  C   UNL     1      -7.307   8.973  68.437  1.00  0.00    -0.078 C  
HETATM    5  O   UNL     1      -8.001  10.202  68.585  1.00  0.00    -0.095 OA 
HETATM    6  C   UNL     1      -9.313  10.157  69.175  1.00  0.00    -0.197 C  
HETATM    7  C   UNL     1      -9.662   8.836  66.485  1.00  0.00    -0.259 C  
HETATM    8  C   UNL     1     -10.038   8.819  69.006  1.00  0.00    -0.206 A  
HETATM    9  C   UNL     1     -10.170   8.184  67.750  1.00  0.00    -0.288 A  
HETATM   10  C   UNL     1     -10.464   8.129  70.162  1.00  0.00    -0.225 A  
HETATM   11  C   UNL     1     -10.716   6.890  67.687  1.00  0.00    -0.344 A  
HETATM   12  C   UNL     1     -10.984   6.838  70.080  1.00  0.00    -0.340 A  
HETATM   13  C   UNL     1     -11.110   6.218  68.843  1.00  0.00    -0.434 A  
ENDROOT
BRANCH   6  14
HETATM   14  C   UNL     1     -10.103  11.387  68.707  1.00  0.00    -0.199 A  
HETATM   15  C   UNL     1     -11.986  12.915  68.942  1.00  0.00    -0.291 A  
HETATM   16  C   UNL     1     -10.306  13.364  67.279  1.00  0.00    -0.244 A  
HETATM   17  C   UNL     1      -9.622  12.213  67.672  1.00  0.00    -0.190 A  
HETATM   18  C   UNL     1     -11.305  11.756  69.331  1.00  0.00    -0.337 A  
HETATM   19  C   UNL     1     -11.484  13.721  67.923  1.00  0.00    -0.347 A  
ENDBRANCH   6  14
TORSDOF 1
ENDMDL
MODEL       71
REMARK 921   NORMALIZED FREE ENERGY PREDICTED BY IDOCK:   -4.10 KCAL/MOL
REMARK 922        TOTAL FREE ENERGY PREDICTED BY IDOCK:   -4.90 KCAL/MOL
REMARK 923 INTER-LIGAND FREE ENERGY PREDICTED BY IDOCK:   -4.32 KCAL/MOL
REMARK 924 INTRA-LIGAND FREE ENERGY PREDICTED BY IDOCK:   -0.58 KCAL/MOL
REMARK 927      BINDING AFFINITY PREDICTED BY RF-SCORE:    0.00 PKD
ROOT
HETATM    1  C   UNL     1     -12.093   9.498  71.807  1.00  0.00    -0.384 C  
HETATM    2  N   UNL     1     -11.259  10.141  70.812  1.00  0.00    -0.338 NA 
HETATM    3  C   UNL     1     -11.994  10.975  69.858  1.00  0.00    -0.351 C  
HETATM    4  C   UNL     1     -11.689  10.982  68.341  1.00  0.00    -0.259 C  
HETATM    5  O   UNL     1     -10.326  11.281  68.086  1.00  0.00    -0.175 OA 
HETATM    6  C   UNL     1      -9.500  10.224  67.565  1.00  0.00    -0.152 C  
HETATM    7  C   UNL     1     -10.089   9.379  70.401  1.00  0.00    -0.255 C  
HETATM    8  C   UNL     1      -9.980   8.813  67.918  1.00  0.00    -0.231 A  
HETATM    9  C   UNL     1     -10.290   8.430  69.243  1.00  0.00    -0.220 A  
HETATM   10  C   UNL     1     -10.257   7.910  66.868  1.00  0.00    -0.380 A  
HETATM   11  C   UNL     1     -10.864   7.168  69.477  1.00  0.00    -0.244 A  
HETATM   12  C   UNL     1     -10.847   6.672  67.120  1.00  0.00    -0.471 A  
HETATM   13  C   UNL     1     -11.151   6.300  68.424  1.00  0.00    -0.371 A  
ENDROOT
BRANCH   6  14
HETATM   14  C   UNL     1      -8.038  10.521  67.926  1.00  0.00    -0.107 A  
HETATM   15  C   UNL     1      -5.671   9.948  67.836  1.00  0.00    -0.039 A  
HETATM   16  C   UNL     1      -6.344  12.016  68.869  1.00  0.00    -0.081 A  
HETATM   17  C   UNL     1      -7.677  11.712  68.588  1.00  0.00    -0.134 A  
HETATM   18  C   UNL     1      -7.008   9.639  67.561  1.00  0.00    -0.084 A  
HETATM   19  C   UNL     1      -5.340  11.137  68.482  1.00  0.00    -0.043 A  
ENDBRANCH   6  14
TORSDOF 1
ENDMDL
MODEL       72
REMARK 921   NORMALIZED FREE ENERGY PREDICTED BY IDOCK:   -4.07 KCAL/MOL
REMARK 922        TOTAL FREE ENERGY PREDICTED BY IDOCK:   -4.87 KCAL/MOL
REMARK 923 INTER-LIGAND FREE ENERGY PREDICTED BY IDOCK:   -4.36 KCAL/MOL
REMARK 924 INTRA-LIGAND FREE ENERGY PREDICTED BY IDOCK:   -0.51 KCAL/MOL
REMARK 927      BINDING AFFINITY PREDICTED BY RF-SCORE:    0.00 PKD
ROOT
HETATM    1  C   UNL     1      -7.543  10.151  69.529  1.00  0.00    -0.139 C  
HETATM    2  N   UNL     1      -8.290   9.140  68.809  1.00  0.00    -0.120 NA 
HETATM    3  C   UNL     1      -9.384   9.669  67.991  1.00  0.00    -0.132 C  
HETATM    4  C   UNL     1     -10.778   9.001  67.920  1.00  0.00    -0.138 C  
HETATM    5  O   UNL     1     -10.683   7.639  67.536  1.00  0.00    -0.253 OA 
HETATM    6  C   UNL     1     -10.999   6.645  68.527  1.00  0.00    -0.244 C  
HETATM    7  C   UNL     1      -8.411   7.860  69.490  1.00  0.00    -0.131 C  
HETATM    8  C   UNL     1     -10.798   7.107  69.974  1.00  0.00    -0.276 A  
HETATM    9  C   UNL     1      -9.597   7.708  70.414  1.00  0.00    -0.168 A  
HETATM   10  C   UNL     1     -11.897   7.060  70.859  1.00  0.00    -0.401 A  
HETATM   11  C   UNL     1      -9.531   8.242  71.714  1.00  0.00    -0.274 A  
HETATM   12  C   UNL     1     -11.818   7.614  72.136  1.00  0.00    -0.352 A  
HETATM   13  C   UNL     1     -10.635   8.206  72.564  1.00  0.00    -0.411 A  
ENDROOT
BRANCH   6  14
HETATM   14  C   UNL     1     -10.284   5.339  68.159  1.00  0.00    -0.204 A  
HETATM   15  C   UNL     1      -9.294   3.206  68.800  1.00  0.00    -0.231 A  
HETATM   16  C   UNL     1      -9.449   3.778  66.466  1.00  0.00    -0.204 A  
HETATM   17  C   UNL     1     -10.049   4.990  66.813  1.00  0.00    -0.270 A  
HETATM   18  C   UNL     1      -9.887   4.425  69.148  1.00  0.00    -0.198 A  
HETATM   19  C   UNL     1      -9.082   2.881  67.461  1.00  0.00    -0.215 A  
ENDBRANCH   6  14
TORSDOF 1
ENDMDL
MODEL       73
REMARK 921   NORMALIZED FREE ENERGY PREDICTED BY IDOCK:   -4.04 KCAL/MOL
REMARK 922        TOTAL FREE ENERGY PREDICTED BY IDOCK:   -4.84 KCAL/MOL
REMARK 923 INTER-LIGAND FREE ENERGY PREDICTED BY IDOCK:   -4.26 KCAL/MOL
REMARK 924 INTRA-LIGAND FREE ENERGY PREDICTED BY IDOCK:   -0.58 KCAL/MOL
REMARK 927      BINDING AFFINITY PREDICTED BY RF-SCORE:    0.00 PKD
ROOT
HETATM    1  C   UNL     1     -10.414   4.801  66.036  1.00  0.00    -0.292 C  
HETATM    2  N   UNL     1     -10.065   6.164  66.380  1.00  0.00    -0.110 NA 
HETATM    3  C   UNL     1      -8.667   6.514  66.112  1.00  0.00    -0.147 C  
HETATM    4  C   UNL     1      -7.806   7.343  67.095  1.00  0.00    -0.117 C  
HETATM    5  O   UNL     1      -8.422   8.582  67.408  1.00  0.00    -0.125 OA 
HETATM    6  C   UNL     1      -8.919   8.758  68.747  1.00  0.00    -0.138 C  
HETATM    7  C   UNL     1     -10.770   6.711  67.529  1.00  0.00    -0.317 C  
HETATM    8  C   UNL     1      -9.285   7.454  69.463  1.00  0.00    -0.146 A  
HETATM    9  C   UNL     1     -10.124   6.480  68.876  1.00  0.00    -0.183 A  
HETATM   10  C   UNL     1      -8.650   7.153  70.687  1.00  0.00    -0.143 A  
HETATM   11  C   UNL     1     -10.302   5.244  69.522  1.00  0.00    -0.333 A  
HETATM   12  C   UNL     1      -8.823   5.913  71.302  1.00  0.00    -0.137 A  
HETATM   13  C   UNL     1      -9.648   4.958  70.720  1.00  0.00    -0.251 A  
ENDROOT
BRANCH   6  14
HETATM   14  C   UNL     1     -10.027   9.818  68.724  1.00  0.00    -0.179 A  
HETATM   15  C   UNL     1     -11.827  11.032  69.830  1.00  0.00    -0.431 A  
HETATM   16  C   UNL     1     -11.179  11.663  67.600  1.00  0.00    -0.345 A  
HETATM   17  C   UNL     1     -10.210  10.659  67.607  1.00  0.00    -0.229 A  
HETATM   18  C   UNL     1     -10.861  10.020  69.835  1.00  0.00    -0.328 A  
HETATM   19  C   UNL     1     -11.980  11.857  68.718  1.00  0.00    -0.307 A  
ENDBRANCH   6  14
TORSDOF 1
ENDMDL
MODEL       74
REMARK 921   NORMALIZED FREE ENERGY PREDICTED BY IDOCK:   -3.97 KCAL/MOL
REMARK 922        TOTAL FREE ENERGY PREDICTED BY IDOCK:   -4.77 KCAL/MOL
REMARK 923 INTER-LIGAND FREE ENERGY PREDICTED BY IDOCK:   -4.86 KCAL/MOL
REMARK 924 INTRA-LIGAND FREE ENERGY PREDICTED BY IDOCK:    0.09 KCAL/MOL
REMARK 927      BINDING AFFINITY PREDICTED BY RF-SCORE:    0.00 PKD
ROOT
HETATM    1  C   UNL     1     -10.438   6.493  67.099  1.00  0.00    -0.287 C  
HETATM    2  N   UNL     1     -10.238   6.587  68.531  1.00  0.00    -0.160 NA 
HETATM    3  C   UNL     1     -11.351   6.069  69.331  1.00  0.00    -0.212 C  
HETATM    4  C   UNL     1     -11.883   6.788  70.593  1.00  0.00    -0.387 C  
HETATM    5  O   UNL     1     -10.850   7.012  71.539  1.00  0.00    -0.228 OA 
HETATM    6  C   UNL     1     -10.434   8.372  71.759  1.00  0.00    -0.283 C  
HETATM    7  C   UNL     1      -9.467   7.740  68.972  1.00  0.00    -0.150 C  
HETATM    8  C   UNL     1     -10.680   9.309  70.573  1.00  0.00    -0.313 A  
HETATM    9  C   UNL     1     -10.257   8.995  69.261  1.00  0.00    -0.210 A  
HETATM   10  C   UNL     1     -11.478  10.457  70.772  1.00  0.00    -0.422 A  
HETATM   11  C   UNL     1     -10.643   9.828  68.196  1.00  0.00    -0.276 A  
HETATM   12  C   UNL     1     -11.868  11.258  69.699  1.00  0.00    -0.430 A  
HETATM   13  C   UNL     1     -11.451  10.944  68.411  1.00  0.00    -0.374 A  
ENDROOT
BRANCH   6  14
HETATM   14  C   UNL     1      -8.995   8.364  72.292  1.00  0.00    -0.303 A  
HETATM   15  C   UNL     1      -6.628   8.872  72.020  1.00  0.00    -0.014 A  
HETATM   16  C   UNL     1      -7.408   7.991  74.119  1.00  0.00    -0.207 A  
HETATM   17  C   UNL     1      -8.706   7.948  73.608  1.00  0.00    -0.329 A  
HETATM   18  C   UNL     1      -7.928   8.822  71.504  1.00  0.00    -0.160 A  
HETATM   19  C   UNL     1      -6.370   8.465  73.327  1.00  0.00    -0.115 A  
ENDBRANCH   6  14
TORSDOF 1
ENDMDL
MODEL       75
REMARK 921   NORMALIZED FREE ENERGY PREDICTED BY IDOCK:   -3.94 KCAL/MOL
REMARK 922        TOTAL FREE ENERGY PREDICTED BY IDOCK:   -4.73 KCAL/MOL
REMARK 923 INTER-LIGAND FREE ENERGY PREDICTED BY IDOCK:   -4.15 KCAL/MOL
REMARK 924 INTRA-LIGAND FREE ENERGY PREDICTED BY IDOCK:   -0.59 KCAL/MOL
REMARK 927      BINDING AFFINITY PREDICTED BY RF-SCORE:    0.00 PKD
ROOT
HETATM    1  C   UNL     1      -6.865  20.414  64.653  1.00  0.00    -0.077 C  
HETATM    2  N   UNL     1      -7.620  19.522  65.509  1.00  0.00    -0.413 NA 
HETATM    3  C   UNL     1      -8.917  20.052  65.937  1.00  0.00    -0.102 C  
HETATM    4  C   UNL     1      -9.447  19.905  67.384  1.00  0.00    -0.364 C  
HETATM    5  O   UNL     1      -9.474  18.548  67.793  1.00  0.00    -0.281 OA 
HETATM    6  C   UNL     1      -8.539  18.142  68.810  1.00  0.00    -0.206 C  
HETATM    7  C   UNL     1      -6.818  18.689  66.393  1.00  0.00    -0.213 C  
HETATM    8  C   UNL     1      -7.272  18.998  68.883  1.00  0.00    -0.364 A  
HETATM    9  C   UNL     1      -6.486  19.283  67.743  1.00  0.00    -0.239 A  
HETATM   10  C   UNL     1      -6.957  19.640  70.100  1.00  0.00     0.048 A  
HETATM   11  C   UNL     1      -5.420  20.193  67.851  1.00  0.00    -0.219 A  
HETATM   12  C   UNL     1      -5.909  20.556  70.182  1.00  0.00    -0.327 A  
HETATM   13  C   UNL     1      -5.140  20.833  69.058  1.00  0.00    -0.333 A  
ENDROOT
BRANCH   6  14
HETATM   14  C   UNL     1      -8.296  16.633  68.679  1.00  0.00    -0.246 A  
HETATM   15  C   UNL     1      -7.174  14.593  69.398  1.00  0.00    -0.146 A  
HETATM   16  C   UNL     1      -8.879  14.464  67.704  1.00  0.00    -0.193 A  
HETATM   17  C   UNL     1      -9.055  15.846  67.789  1.00  0.00    -0.196 A  
HETATM   18  C   UNL     1      -7.345  15.980  69.478  1.00  0.00    -0.146 A  
HETATM   19  C   UNL     1      -7.945  13.836  68.519  1.00  0.00    -0.131 A  
ENDBRANCH   6  14
TORSDOF 1
ENDMDL
MODEL       76
REMARK 921   NORMALIZED FREE ENERGY PREDICTED BY IDOCK:   -3.93 KCAL/MOL
REMARK 922        TOTAL FREE ENERGY PREDICTED BY IDOCK:   -4.73 KCAL/MOL
REMARK 923 INTER-LIGAND FREE ENERGY PREDICTED BY IDOCK:   -4.32 KCAL/MOL
REMARK 924 INTRA-LIGAND FREE ENERGY PREDICTED BY IDOCK:   -0.41 KCAL/MOL
REMARK 927      BINDING AFFINITY PREDICTED BY RF-SCORE:    0.00 PKD
ROOT
HETATM    1  C   UNL     1     -12.501  13.375  65.783  1.00  0.00    -0.439 C  
HETATM    2  N   UNL     1     -11.086  13.163  66.006  1.00  0.00    -0.278 NA 
HETATM    3  C   UNL     1     -10.506  12.081  65.206  1.00  0.00    -0.284 C  
HETATM    4  C   UNL     1      -9.501  11.055  65.784  1.00  0.00    -0.210 C  
HETATM    5  O   UNL     1      -8.379  11.698  66.365  1.00  0.00    -0.162 OA 
HETATM    6  C   UNL     1      -8.241  11.630  67.796  1.00  0.00    -0.141 C  
HETATM    7  C   UNL     1     -10.627  13.424  67.362  1.00  0.00    -0.251 C  
HETATM    8  C   UNL     1      -9.560  11.437  68.550  1.00  0.00    -0.190 A  
HETATM    9  C   UNL     1     -10.689  12.257  68.320  1.00  0.00    -0.244 A  
HETATM   10  C   UNL     1      -9.698  10.318  69.399  1.00  0.00    -0.242 A  
HETATM   11  C   UNL     1     -11.910  11.936  68.937  1.00  0.00    -0.366 A  
HETATM   12  C   UNL     1     -10.924  10.004  69.984  1.00  0.00    -0.352 A  
HETATM   13  C   UNL     1     -12.031  10.812  69.754  1.00  0.00    -0.397 A  
ENDROOT
BRANCH   6  14
HETATM   14  C   UNL     1      -7.394  12.820  68.265  1.00  0.00    -0.117 A  
HETATM   15  C   UNL     1      -5.830  13.822  69.842  1.00  0.00    -0.126 A  
HETATM   16  C   UNL     1      -6.479  15.058  67.881  1.00  0.00    -0.175 A  
HETATM   17  C   UNL     1      -7.292  13.993  67.490  1.00  0.00    -0.187 A  
HETATM   18  C   UNL     1      -6.651  12.757  69.454  1.00  0.00    -0.064 A  
HETATM   19  C   UNL     1      -5.738  14.967  69.053  1.00  0.00    -0.096 A  
ENDBRANCH   6  14
TORSDOF 1
ENDMDL
MODEL       77
REMARK 921   NORMALIZED FREE ENERGY PREDICTED BY IDOCK:   -3.93 KCAL/MOL
REMARK 922        TOTAL FREE ENERGY PREDICTED BY IDOCK:   -4.73 KCAL/MOL
REMARK 923 INTER-LIGAND FREE ENERGY PREDICTED BY IDOCK:   -4.85 KCAL/MOL
REMARK 924 INTRA-LIGAND FREE ENERGY PREDICTED BY IDOCK:    0.12 KCAL/MOL
REMARK 927      BINDING AFFINITY PREDICTED BY RF-SCORE:    0.00 PKD
ROOT
HETATM    1  C   UNL     1     -10.668  18.706  67.716  1.00  0.00    -0.342 C  
HETATM    2  N   UNL     1      -9.598  18.453  66.773  1.00  0.00    -0.295 NA 
HETATM    3  C   UNL     1      -9.207  17.045  66.668  1.00  0.00    -0.256 C  
HETATM    4  C   UNL     1      -7.730  16.587  66.590  1.00  0.00    -0.283 C  
HETATM    5  O   UNL     1      -7.046  17.219  65.521  1.00  0.00    -0.067 OA 
HETATM    6  C   UNL     1      -6.029  18.181  65.858  1.00  0.00    -0.218 C  
HETATM    7  C   UNL     1      -8.613  19.518  66.657  1.00  0.00    -0.340 C  
HETATM    8  C   UNL     1      -6.219  18.850  67.223  1.00  0.00    -0.172 A  
HETATM    9  C   UNL     1      -7.441  19.445  67.609  1.00  0.00    -0.285 A  
HETATM   10  C   UNL     1      -5.185  18.744  68.178  1.00  0.00    -0.179 A  
HETATM   11  C   UNL     1      -7.594  19.911  68.927  1.00  0.00    -0.207 A  
HETATM   12  C   UNL     1      -5.364  19.193  69.486  1.00  0.00    -0.205 A  
HETATM   13  C   UNL     1      -6.569  19.776  69.861  1.00  0.00    -0.325 A  
ENDROOT
BRANCH   6  14
HETATM   14  C   UNL     1      -5.858  19.148  64.680  1.00  0.00    -0.319 A  
HETATM   15  C   UNL     1      -5.177  19.597  62.383  1.00  0.00    -0.327 A  
HETATM   16  C   UNL     1      -6.230  21.343  63.662  1.00  0.00    -0.256 A  
HETATM   17  C   UNL     1      -6.331  20.474  64.749  1.00  0.00    -0.344 A  
HETATM   18  C   UNL     1      -5.271  18.727  63.476  1.00  0.00    -0.163 A  
HETATM   19  C   UNL     1      -5.662  20.900  62.474  1.00  0.00    -0.268 A  
ENDBRANCH   6  14
TORSDOF 1
ENDMDL
MODEL       78
REMARK 921   NORMALIZED FREE ENERGY PREDICTED BY IDOCK:   -3.91 KCAL/MOL
REMARK 922        TOTAL FREE ENERGY PREDICTED BY IDOCK:   -4.71 KCAL/MOL
REMARK 923 INTER-LIGAND FREE ENERGY PREDICTED BY IDOCK:   -4.57 KCAL/MOL
REMARK 924 INTRA-LIGAND FREE ENERGY PREDICTED BY IDOCK:   -0.14 KCAL/MOL
REMARK 927      BINDING AFFINITY PREDICTED BY RF-SCORE:    0.00 PKD
ROOT
HETATM    1  C   UNL     1     -10.900  17.326  65.972  1.00  0.00     0.011 C  
HETATM    2  N   UNL     1     -10.554  15.920  66.030  1.00  0.00    -0.326 NA 
HETATM    3  C   UNL     1     -11.511  15.036  65.360  1.00  0.00    -0.287 C  
HETATM    4  C   UNL     1     -11.974  13.688  65.964  1.00  0.00    -0.413 C  
HETATM    5  O   UNL     1     -10.873  12.846  66.262  1.00  0.00    -0.271 OA 
HETATM    6  C   UNL     1     -10.581  12.600  67.650  1.00  0.00    -0.218 C  
HETATM    7  C   UNL     1      -9.866  15.503  67.242  1.00  0.00    -0.224 C  
HETATM    8  C   UNL     1     -11.054  13.703  68.602  1.00  0.00    -0.299 A  
HETATM    9  C   UNL     1     -10.747  15.067  68.389  1.00  0.00    -0.245 A  
HETATM   10  C   UNL     1     -11.942  13.363  69.645  1.00  0.00    -0.386 A  
HETATM   11  C   UNL     1     -11.333  16.041  69.217  1.00  0.00    -0.356 A  
HETATM   12  C   UNL     1     -12.529  14.345  70.440  1.00  0.00    -0.420 A  
HETATM   13  C   UNL     1     -12.226  15.685  70.227  1.00  0.00    -0.416 A  
ENDROOT
BRANCH   6  14
HETATM   14  C   UNL     1      -9.099  12.222  67.780  1.00  0.00    -0.191 A  
HETATM   15  C   UNL     1      -6.752  12.626  67.264  1.00  0.00    -0.105 A  
HETATM   16  C   UNL     1      -7.334  10.869  68.803  1.00  0.00    -0.104 A  
HETATM   17  C   UNL     1      -8.684  11.182  68.636  1.00  0.00    -0.153 A  
HETATM   18  C   UNL     1      -8.106  12.935  67.090  1.00  0.00    -0.122 A  
HETATM   19  C   UNL     1      -6.367  11.600  68.125  1.00  0.00    -0.050 A  
ENDBRANCH   6  14
TORSDOF 1
ENDMDL
MODEL       79
REMARK 921   NORMALIZED FREE ENERGY PREDICTED BY IDOCK:   -3.91 KCAL/MOL
REMARK 922        TOTAL FREE ENERGY PREDICTED BY IDOCK:   -4.71 KCAL/MOL
REMARK 923 INTER-LIGAND FREE ENERGY PREDICTED BY IDOCK:   -4.77 KCAL/MOL
REMARK 924 INTRA-LIGAND FREE ENERGY PREDICTED BY IDOCK:    0.06 KCAL/MOL
REMARK 927      BINDING AFFINITY PREDICTED BY RF-SCORE:    0.00 PKD
ROOT
HETATM    1  C   UNL     1      -8.390   8.856  64.639  1.00  0.00    -0.170 C  
HETATM    2  N   UNL     1      -9.361   9.435  65.546  1.00  0.00    -0.239 NA 
HETATM    3  C   UNL     1     -10.230  10.444  64.934  1.00  0.00    -0.260 C  
HETATM    4  C   UNL     1     -10.602  11.770  65.639  1.00  0.00    -0.268 C  
HETATM    5  O   UNL     1     -11.183  11.537  66.912  1.00  0.00    -0.299 OA 
HETATM    6  C   UNL     1     -10.418  11.916  68.070  1.00  0.00    -0.208 C  
HETATM    7  C   UNL     1      -8.918   9.561  66.926  1.00  0.00    -0.131 C  
HETATM    8  C   UNL     1      -8.902  11.938  67.849  1.00  0.00    -0.172 A  
HETATM    9  C   UNL     1      -8.206  10.846  67.280  1.00  0.00    -0.123 A  
HETATM   10  C   UNL     1      -8.200  13.138  68.090  1.00  0.00    -0.160 A  
HETATM   11  C   UNL     1      -6.842  10.987  66.970  1.00  0.00    -0.109 A  
HETATM   12  C   UNL     1      -6.852  13.264  67.755  1.00  0.00    -0.154 A  
HETATM   13  C   UNL     1      -6.173  12.189  67.195  1.00  0.00    -0.143 A  
ENDROOT
BRANCH   6  14
HETATM   14  C   UNL     1     -10.887  11.075  69.265  1.00  0.00    -0.285 A  
HETATM   15  C   UNL     1     -10.461   9.391  70.973  1.00  0.00    -0.392 A  
HETATM   16  C   UNL     1     -12.564  10.561  70.973  1.00  0.00    -0.499 A  
HETATM   17  C   UNL     1     -12.152  11.282  69.851  1.00  0.00    -0.414 A  
HETATM   18  C   UNL     1     -10.050  10.108  69.844  1.00  0.00    -0.268 A  
HETATM   19  C   UNL     1     -11.712   9.622  71.541  1.00  0.00    -0.472 A  
ENDBRANCH   6  14
TORSDOF 1
ENDMDL
MODEL       80
REMARK 921   NORMALIZED FREE ENERGY PREDICTED BY IDOCK:   -3.90 KCAL/MOL
REMARK 922        TOTAL FREE ENERGY PREDICTED BY IDOCK:   -4.70 KCAL/MOL
REMARK 923 INTER-LIGAND FREE ENERGY PREDICTED BY IDOCK:   -4.13 KCAL/MOL
REMARK 924 INTRA-LIGAND FREE ENERGY PREDICTED BY IDOCK:   -0.57 KCAL/MOL
REMARK 927      BINDING AFFINITY PREDICTED BY RF-SCORE:    0.00 PKD
ROOT
HETATM    1  C   UNL     1      -9.374   8.234  66.460  1.00  0.00    -0.206 C  
HETATM    2  N   UNL     1      -9.391   7.511  67.715  1.00  0.00    -0.141 NA 
HETATM    3  C   UNL     1     -10.493   6.554  67.844  1.00  0.00    -0.222 C  
HETATM    4  C   UNL     1     -11.312   6.388  69.147  1.00  0.00    -0.296 C  
HETATM    5  O   UNL     1     -10.474   6.106  70.256  1.00  0.00    -0.199 OA 
HETATM    6  C   UNL     1     -10.340   7.124  71.264  1.00  0.00    -0.198 C  
HETATM    7  C   UNL     1      -8.905   8.259  68.865  1.00  0.00    -0.140 C  
HETATM    8  C   UNL     1     -10.585   8.550  70.760  1.00  0.00    -0.244 A  
HETATM    9  C   UNL     1      -9.938   9.068  69.615  1.00  0.00    -0.196 A  
HETATM   10  C   UNL     1     -11.594   9.321  71.376  1.00  0.00    -0.437 A  
HETATM   11  C   UNL     1     -10.316  10.329  69.122  1.00  0.00    -0.241 A  
HETATM   12  C   UNL     1     -11.969  10.561  70.859  1.00  0.00    -0.481 A  
HETATM   13  C   UNL     1     -11.331  11.065  69.732  1.00  0.00    -0.366 A  
ENDROOT
BRANCH   6  14
HETATM   14  C   UNL     1      -9.009   6.915  71.999  1.00  0.00    -0.136 A  
HETATM   15  C   UNL     1      -7.256   7.723  73.485  1.00  0.00    -0.131 A  
HETATM   16  C   UNL     1      -7.165   5.456  72.681  1.00  0.00    -0.090 A  
HETATM   17  C   UNL     1      -8.347   5.671  71.970  1.00  0.00    -0.122 A  
HETATM   18  C   UNL     1      -8.436   7.942  72.766  1.00  0.00    -0.212 A  
HETATM   19  C   UNL     1      -6.626   6.480  73.449  1.00  0.00    -0.069 A  
ENDBRANCH   6  14
TORSDOF 1
ENDMDL
MODEL       81
REMARK 921   NORMALIZED FREE ENERGY PREDICTED BY IDOCK:   -3.87 KCAL/MOL
REMARK 922        TOTAL FREE ENERGY PREDICTED BY IDOCK:   -4.66 KCAL/MOL
REMARK 923 INTER-LIGAND FREE ENERGY PREDICTED BY IDOCK:   -4.07 KCAL/MOL
REMARK 924 INTRA-LIGAND FREE ENERGY PREDICTED BY IDOCK:   -0.59 KCAL/MOL
REMARK 927      BINDING AFFINITY PREDICTED BY RF-SCORE:    0.00 PKD
ROOT
HETATM    1  C   UNL     1      -7.422   9.814  66.068  1.00  0.00    -0.102 C  
HETATM    2  N   UNL     1      -8.123   8.968  67.013  1.00  0.00    -0.105 NA 
HETATM    3  C   UNL     1      -9.218   8.191  66.428  1.00  0.00    -0.199 C  
HETATM    4  C   UNL     1     -10.588   8.015  67.127  1.00  0.00    -0.297 C  
HETATM    5  O   UNL     1     -10.442   7.482  68.433  1.00  0.00    -0.194 OA 
HETATM    6  C   UNL     1     -10.743   8.348  69.542  1.00  0.00    -0.175 C  
HETATM    7  C   UNL     1      -8.213   9.497  68.366  1.00  0.00    -0.113 C  
HETATM    8  C   UNL     1     -10.583   9.841  69.241  1.00  0.00    -0.240 A  
HETATM    9  C   UNL     1      -9.410  10.373  68.657  1.00  0.00    -0.167 A  
HETATM   10  C   UNL     1     -11.695  10.691  69.422  1.00  0.00    -0.344 A  
HETATM   11  C   UNL     1      -9.385  11.725  68.273  1.00  0.00    -0.193 A  
HETATM   12  C   UNL     1     -11.657  12.024  69.014  1.00  0.00    -0.370 A  
HETATM   13  C   UNL     1     -10.502  12.541  68.439  1.00  0.00    -0.250 A  
ENDROOT
BRANCH   6  14
HETATM   14  C   UNL     1      -9.978   7.849  70.775  1.00  0.00    -0.192 A  
HETATM   15  C   UNL     1      -8.655   6.145  71.907  1.00  0.00    -0.132 A  
HETATM   16  C   UNL     1      -9.040   8.254  73.000  1.00  0.00    -0.319 A  
HETATM   17  C   UNL     1      -9.782   8.680  71.897  1.00  0.00    -0.383 A  
HETATM   18  C   UNL     1      -9.405   6.568  70.804  1.00  0.00    -0.162 A  
HETATM   19  C   UNL     1      -8.466   6.989  72.999  1.00  0.00    -0.131 A  
ENDBRANCH   6  14
TORSDOF 1
ENDMDL
MODEL       82
REMARK 921   NORMALIZED FREE ENERGY PREDICTED BY IDOCK:   -3.84 KCAL/MOL
REMARK 922        TOTAL FREE ENERGY PREDICTED BY IDOCK:   -4.63 KCAL/MOL
REMARK 923 INTER-LIGAND FREE ENERGY PREDICTED BY IDOCK:   -4.07 KCAL/MOL
REMARK 924 INTRA-LIGAND FREE ENERGY PREDICTED BY IDOCK:   -0.56 KCAL/MOL
REMARK 927      BINDING AFFINITY PREDICTED BY RF-SCORE:    0.00 PKD
ROOT
HETATM    1  C   UNL     1     -10.503  19.581  65.246  1.00  0.00     0.335 C  
HETATM    2  N   UNL     1     -10.068  18.594  66.212  1.00  0.00    -0.391 NA 
HETATM    3  C   UNL     1     -10.737  18.687  67.512  1.00  0.00    -0.394 C  
HETATM    4  C   UNL     1      -9.983  18.544  68.857  1.00  0.00    -0.347 C  
HETATM    5  O   UNL     1      -9.265  17.323  68.923  1.00  0.00    -0.256 OA 
HETATM    6  C   UNL     1      -7.828  17.396  68.894  1.00  0.00    -0.196 C  
HETATM    7  C   UNL     1      -8.668  18.207  66.113  1.00  0.00    -0.090 C  
HETATM    8  C   UNL     1      -7.270  18.642  68.199  1.00  0.00    -0.269 A  
HETATM    9  C   UNL     1      -7.691  19.040  66.910  1.00  0.00    -0.253 A  
HETATM   10  C   UNL     1      -6.414  19.496  68.927  1.00  0.00    -0.326 A  
HETATM   11  C   UNL     1      -7.250  20.270  66.391  1.00  0.00    -0.302 A  
HETATM   12  C   UNL     1      -6.005  20.722  68.403  1.00  0.00    -0.390 A  
HETATM   13  C   UNL     1      -6.423  21.110  67.135  1.00  0.00    -0.417 A  
ENDROOT
BRANCH   6  14
HETATM   14  C   UNL     1      -7.279  16.061  68.372  1.00  0.00    -0.126 A  
HETATM   15  C   UNL     1      -5.419  14.534  67.991  1.00  0.00    -0.122 A  
HETATM   16  C   UNL     1      -7.657  13.820  67.462  1.00  0.00    -0.185 A  
HETATM   17  C   UNL     1      -8.142  15.057  67.887  1.00  0.00    -0.142 A  
HETATM   18  C   UNL     1      -5.905  15.778  68.409  1.00  0.00    -0.109 A  
HETATM   19  C   UNL     1      -6.295  13.554  67.525  1.00  0.00    -0.096 A  
ENDBRANCH   6  14
TORSDOF 1
ENDMDL
MODEL       83
REMARK 921   NORMALIZED FREE ENERGY PREDICTED BY IDOCK:   -3.83 KCAL/MOL
REMARK 922        TOTAL FREE ENERGY PREDICTED BY IDOCK:   -4.62 KCAL/MOL
REMARK 923 INTER-LIGAND FREE ENERGY PREDICTED BY IDOCK:   -4.06 KCAL/MOL
REMARK 924 INTRA-LIGAND FREE ENERGY PREDICTED BY IDOCK:   -0.56 KCAL/MOL
REMARK 927      BINDING AFFINITY PREDICTED BY RF-SCORE:    0.00 PKD
ROOT
HETATM    1  C   UNL     1     -12.447   8.501  72.621  1.00  0.00    -0.211 C  
HETATM    2  N   UNL     1     -11.947   8.248  71.285  1.00  0.00    -0.287 NA 
HETATM    3  C   UNL     1     -12.150   6.875  70.815  1.00  0.00    -0.349 C  
HETATM    4  C   UNL     1     -11.066   6.082  70.047  1.00  0.00    -0.381 C  
HETATM    5  O   UNL     1     -10.627   6.782  68.895  1.00  0.00    -0.201 OA 
HETATM    6  C   UNL     1      -9.285   7.303  68.904  1.00  0.00    -0.141 C  
HETATM    7  C   UNL     1     -10.756   9.000  70.919  1.00  0.00    -0.253 C  
HETATM    8  C   UNL     1      -8.726   7.587  70.302  1.00  0.00    -0.145 A  
HETATM    9  C   UNL     1      -9.432   8.353  71.257  1.00  0.00    -0.240 A  
HETATM   10  C   UNL     1      -7.532   6.945  70.696  1.00  0.00    -0.082 A  
HETATM   11  C   UNL     1      -8.931   8.452  72.566  1.00  0.00    -0.308 A  
HETATM   12  C   UNL     1      -7.063   7.038  72.006  1.00  0.00    -0.073 A  
HETATM   13  C   UNL     1      -7.762   7.792  72.942  1.00  0.00    -0.137 A  
ENDROOT
BRANCH   6  14
HETATM   14  C   UNL     1      -9.208   8.480  67.923  1.00  0.00    -0.148 A  
HETATM   15  C   UNL     1     -10.110   9.737  66.040  1.00  0.00    -0.322 A  
HETATM   16  C   UNL     1      -8.182  10.585  67.207  1.00  0.00    -0.119 A  
HETATM   17  C   UNL     1      -8.225   9.481  68.060  1.00  0.00    -0.114 A  
HETATM   18  C   UNL     1     -10.148   8.626  66.891  1.00  0.00    -0.355 A  
HETATM   19  C   UNL     1      -9.134  10.718  66.203  1.00  0.00    -0.193 A  
ENDBRANCH   6  14
TORSDOF 1
ENDMDL
MODEL       84
REMARK 921   NORMALIZED FREE ENERGY PREDICTED BY IDOCK:   -3.82 KCAL/MOL
REMARK 922        TOTAL FREE ENERGY PREDICTED BY IDOCK:   -4.61 KCAL/MOL
REMARK 923 INTER-LIGAND FREE ENERGY PREDICTED BY IDOCK:   -4.01 KCAL/MOL
REMARK 924 INTRA-LIGAND FREE ENERGY PREDICTED BY IDOCK:   -0.59 KCAL/MOL
REMARK 927      BINDING AFFINITY PREDICTED BY RF-SCORE:    0.00 PKD
ROOT
HETATM    1  C   UNL     1     -10.674   7.392  67.340  1.00  0.00    -0.278 C  
HETATM    2  N   UNL     1     -10.294   8.713  66.881  1.00  0.00    -0.293 NA 
HETATM    3  C   UNL     1      -9.183   8.722  65.926  1.00  0.00    -0.220 C  
HETATM    4  C   UNL     1      -8.030   9.753  65.990  1.00  0.00    -0.111 C  
HETATM    5  O   UNL     1      -8.519  11.083  65.968  1.00  0.00    -0.167 OA 
HETATM    6  C   UNL     1      -8.384  11.862  67.171  1.00  0.00    -0.174 C  
HETATM    7  C   UNL     1     -10.453   9.777  67.861  1.00  0.00    -0.239 C  
HETATM    8  C   UNL     1      -8.316  11.032  68.457  1.00  0.00    -0.149 A  
HETATM    9  C   UNL     1      -9.266  10.031  68.762  1.00  0.00    -0.159 A  
HETATM   10  C   UNL     1      -7.189  11.175  69.295  1.00  0.00    -0.112 A  
HETATM   11  C   UNL     1      -9.063   9.209  69.884  1.00  0.00    -0.188 A  
HETATM   12  C   UNL     1      -6.995  10.335  70.391  1.00  0.00    -0.081 A  
HETATM   13  C   UNL     1      -7.932   9.351  70.686  1.00  0.00    -0.189 A  
ENDROOT
BRANCH   6  14
HETATM   14  C   UNL     1      -9.453  12.963  67.165  1.00  0.00    -0.229 A  
HETATM   15  C   UNL     1     -11.192  14.228  66.020  1.00  0.00    -0.324 A  
HETATM   16  C   UNL     1     -10.789  14.632  68.358  1.00  0.00    -0.250 A  
HETATM   17  C   UNL     1      -9.780  13.668  68.341  1.00  0.00    -0.217 A  
HETATM   18  C   UNL     1     -10.175  13.267  66.001  1.00  0.00    -0.291 A  
HETATM   19  C   UNL     1     -11.503  14.903  67.198  1.00  0.00    -0.344 A  
ENDBRANCH   6  14
TORSDOF 1
ENDMDL
MODEL       85
REMARK 921   NORMALIZED FREE ENERGY PREDICTED BY IDOCK:   -3.81 KCAL/MOL
REMARK 922        TOTAL FREE ENERGY PREDICTED BY IDOCK:   -4.60 KCAL/MOL
REMARK 923 INTER-LIGAND FREE ENERGY PREDICTED BY IDOCK:   -4.01 KCAL/MOL
REMARK 924 INTRA-LIGAND FREE ENERGY PREDICTED BY IDOCK:   -0.59 KCAL/MOL
REMARK 927      BINDING AFFINITY PREDICTED BY RF-SCORE:    0.00 PKD
ROOT
HETATM    1  C   UNL     1     -10.027   9.501  65.852  1.00  0.00    -0.272 C  
HETATM    2  N   UNL     1     -10.487   9.519  67.226  1.00  0.00    -0.261 NA 
HETATM    3  C   UNL     1     -10.732  10.861  67.761  1.00  0.00    -0.235 C  
HETATM    4  C   UNL     1     -10.304  11.287  69.186  1.00  0.00    -0.129 C  
HETATM    5  O   UNL     1     -10.836  10.417  70.172  1.00  0.00    -0.283 OA 
HETATM    6  C   UNL     1      -9.913   9.566  70.875  1.00  0.00    -0.238 C  
HETATM    7  C   UNL     1      -9.955   8.458  68.069  1.00  0.00    -0.182 C  
HETATM    8  C   UNL     1      -8.631   9.245  70.100  1.00  0.00    -0.215 A  
HETATM    9  C   UNL     1      -8.652   8.759  68.773  1.00  0.00    -0.137 A  
HETATM   10  C   UNL     1      -7.388   9.579  70.680  1.00  0.00    -0.133 A  
HETATM   11  C   UNL     1      -7.442   8.625  68.070  1.00  0.00    -0.097 A  
HETATM   12  C   UNL     1      -6.201   9.458  69.958  1.00  0.00    -0.045 A  
HETATM   13  C   UNL     1      -6.227   8.982  68.653  1.00  0.00    -0.045 A  
ENDROOT
BRANCH   6  14
HETATM   14  C   UNL     1     -10.676   8.343  71.401  1.00  0.00    -0.298 A  
HETATM   15  C   UNL     1     -12.701   6.994  71.519  1.00  0.00    -0.425 A  
HETATM   16  C   UNL     1     -10.701   6.212  72.607  1.00  0.00    -0.261 A  
HETATM   17  C   UNL     1     -10.029   7.355  72.171  1.00  0.00    -0.203 A  
HETATM   18  C   UNL     1     -12.030   8.144  71.089  1.00  0.00    -0.296 A  
HETATM   19  C   UNL     1     -12.036   6.027  72.270  1.00  0.00    -0.259 A  
ENDBRANCH   6  14
TORSDOF 1
ENDMDL
MODEL       86
REMARK 921   NORMALIZED FREE ENERGY PREDICTED BY IDOCK:   -3.73 KCAL/MOL
REMARK 922        TOTAL FREE ENERGY PREDICTED BY IDOCK:   -4.51 KCAL/MOL
REMARK 923 INTER-LIGAND FREE ENERGY PREDICTED BY IDOCK:   -3.91 KCAL/MOL
REMARK 924 INTRA-LIGAND FREE ENERGY PREDICTED BY IDOCK:   -0.60 KCAL/MOL
REMARK 927      BINDING AFFINITY PREDICTED BY RF-SCORE:    0.00 PKD
ROOT
HETATM    1  C   UNL     1      -7.242   5.775  66.171  1.00  0.00    -0.076 C  
HETATM    2  N   UNL     1      -8.298   5.812  67.162  1.00  0.00    -0.105 NA 
HETATM    3  C   UNL     1      -9.601   5.354  66.673  1.00  0.00    -0.151 C  
HETATM    4  C   UNL     1     -10.927   6.072  67.018  1.00  0.00    -0.276 C  
HETATM    5  O   UNL     1     -11.105   6.191  68.420  1.00  0.00    -0.330 OA 
HETATM    6  C   UNL     1     -11.022   7.510  68.991  1.00  0.00     0.031 C  
HETATM    7  C   UNL     1      -8.196   6.891  68.133  1.00  0.00    -0.119 C  
HETATM    8  C   UNL     1     -10.175   8.498  68.183  1.00  0.00    -0.254 A  
HETATM    9  C   UNL     1      -8.864   8.192  67.751  1.00  0.00    -0.130 A  
HETATM   10  C   UNL     1     -10.775   9.694  67.734  1.00  0.00    -0.316 A  
HETATM   11  C   UNL     1      -8.198   9.082  66.891  1.00  0.00    -0.116 A  
HETATM   12  C   UNL     1     -10.105  10.553  66.863  1.00  0.00    -0.265 A  
HETATM   13  C   UNL     1      -8.817  10.247  66.441  1.00  0.00    -0.158 A  
ENDROOT
BRANCH   6  14
HETATM   14  C   UNL     1     -10.633   7.380  70.469  1.00  0.00    -0.234 A  
HETATM   15  C   UNL     1     -10.179   6.011  72.433  1.00  0.00    -0.216 A  
HETATM   16  C   UNL     1      -9.841   8.391  72.554  1.00  0.00    -0.359 A  
HETATM   17  C   UNL     1     -10.250   8.507  71.225  1.00  0.00    -0.287 A  
HETATM   18  C   UNL     1     -10.597   6.128  71.103  1.00  0.00    -0.300 A  
HETATM   19  C   UNL     1      -9.795   7.140  73.155  1.00  0.00    -0.251 A  
ENDBRANCH   6  14
TORSDOF 1
ENDMDL
MODEL       87
REMARK 921   NORMALIZED FREE ENERGY PREDICTED BY IDOCK:   -3.72 KCAL/MOL
REMARK 922        TOTAL FREE ENERGY PREDICTED BY IDOCK:   -4.51 KCAL/MOL
REMARK 923 INTER-LIGAND FREE ENERGY PREDICTED BY IDOCK:   -4.27 KCAL/MOL
REMARK 924 INTRA-LIGAND FREE ENERGY PREDICTED BY IDOCK:   -0.24 KCAL/MOL
REMARK 927      BINDING AFFINITY PREDICTED BY RF-SCORE:    0.00 PKD
ROOT
HETATM    1  C   UNL     1      -9.497   9.762  68.356  1.00  0.00    -0.140 C  
HETATM    2  N   UNL     1      -9.679  11.163  68.676  1.00  0.00    -0.196 NA 
HETATM    3  C   UNL     1     -11.044  11.517  69.074  1.00  0.00    -0.245 C  
HETATM    4  C   UNL     1     -11.757  12.799  68.580  1.00  0.00    -0.324 C  
HETATM    5  O   UNL     1     -10.997  13.961  68.870  1.00  0.00    -0.252 OA 
HETATM    6  C   UNL     1     -10.412  14.666  67.760  1.00  0.00    -0.246 C  
HETATM    7  C   UNL     1      -8.858  12.084  67.904  1.00  0.00    -0.174 C  
HETATM    8  C   UNL     1     -10.148  13.798  66.527  1.00  0.00    -0.286 A  
HETATM    9  C   UNL     1      -9.450  12.571  66.602  1.00  0.00    -0.242 A  
HETATM   10  C   UNL     1     -10.743  14.165  65.300  1.00  0.00    -0.374 A  
HETATM   11  C   UNL     1      -9.370  11.753  65.461  1.00  0.00    -0.131 A  
HETATM   12  C   UNL     1     -10.670  13.330  64.186  1.00  0.00    -0.350 A  
HETATM   13  C   UNL     1      -9.984  12.124  64.265  1.00  0.00    -0.262 A  
ENDROOT
BRANCH   6  14
HETATM   14  C   UNL     1      -9.200  15.459  68.267  1.00  0.00    -0.188 A  
HETATM   15  C   UNL     1      -7.858  17.493  68.304  1.00  0.00    -0.253 A  
HETATM   16  C   UNL     1      -7.279  15.674  69.770  1.00  0.00    -0.086 A  
HETATM   17  C   UNL     1      -8.351  14.937  69.264  1.00  0.00    -0.114 A  
HETATM   18  C   UNL     1      -8.928  16.751  67.790  1.00  0.00    -0.216 A  
HETATM   19  C   UNL     1      -7.040  16.958  69.298  1.00  0.00    -0.192 A  
ENDBRANCH   6  14
TORSDOF 1
ENDMDL
MODEL       88
REMARK 921   NORMALIZED FREE ENERGY PREDICTED BY IDOCK:   -3.71 KCAL/MOL
REMARK 922        TOTAL FREE ENERGY PREDICTED BY IDOCK:   -4.49 KCAL/MOL
REMARK 923 INTER-LIGAND FREE ENERGY PREDICTED BY IDOCK:   -4.01 KCAL/MOL
REMARK 924 INTRA-LIGAND FREE ENERGY PREDICTED BY IDOCK:   -0.48 KCAL/MOL
REMARK 927      BINDING AFFINITY PREDICTED BY RF-SCORE:    0.00 PKD
ROOT
HETATM    1  C   UNL     1     -12.573   9.215  72.625  1.00  0.00    -0.134 C  
HETATM    2  N   UNL     1     -11.543   8.496  71.903  1.00  0.00    -0.316 NA 
HETATM    3  C   UNL     1     -10.216   8.564  72.521  1.00  0.00    -0.253 C  
HETATM    4  C   UNL     1      -8.920   8.781  71.703  1.00  0.00    -0.231 C  
HETATM    5  O   UNL     1      -8.779   7.806  70.682  1.00  0.00    -0.136 OA 
HETATM    6  C   UNL     1      -8.915   8.248  69.319  1.00  0.00    -0.147 C  
HETATM    7  C   UNL     1     -11.699   8.480  70.456  1.00  0.00    -0.072 C  
HETATM    8  C   UNL     1      -9.771   9.506  69.143  1.00  0.00    -0.178 A  
HETATM    9  C   UNL     1     -11.062   9.626  69.706  1.00  0.00    -0.247 A  
HETATM   10  C   UNL     1      -9.196  10.633  68.518  1.00  0.00    -0.170 A  
HETATM   11  C   UNL     1     -11.733  10.859  69.631  1.00  0.00    -0.403 A  
HETATM   12  C   UNL     1      -9.870  11.853  68.473  1.00  0.00    -0.187 A  
HETATM   13  C   UNL     1     -11.138  11.967  69.030  1.00  0.00    -0.300 A  
ENDROOT
BRANCH   6  14
HETATM   14  C   UNL     1      -9.334   7.051  68.456  1.00  0.00    -0.135 A  
HETATM   15  C   UNL     1      -9.351   4.655  68.012  1.00  0.00    -0.173 A  
HETATM   16  C   UNL     1     -10.632   6.123  66.598  1.00  0.00    -0.296 A  
HETATM   17  C   UNL     1     -10.200   7.213  67.355  1.00  0.00    -0.291 A  
HETATM   18  C   UNL     1      -8.912   5.749  68.766  1.00  0.00    -0.116 A  
HETATM   19  C   UNL     1     -10.215   4.841  66.935  1.00  0.00    -0.230 A  
ENDBRANCH   6  14
TORSDOF 1
ENDMDL
MODEL       89
REMARK 921   NORMALIZED FREE ENERGY PREDICTED BY IDOCK:   -3.71 KCAL/MOL
REMARK 922        TOTAL FREE ENERGY PREDICTED BY IDOCK:   -4.49 KCAL/MOL
REMARK 923 INTER-LIGAND FREE ENERGY PREDICTED BY IDOCK:   -3.96 KCAL/MOL
REMARK 924 INTRA-LIGAND FREE ENERGY PREDICTED BY IDOCK:   -0.54 KCAL/MOL
REMARK 927      BINDING AFFINITY PREDICTED BY RF-SCORE:    0.00 PKD
ROOT
HETATM    1  C   UNL     1     -11.947  11.835  68.595  1.00  0.00    -0.239 C  
HETATM    2  N   UNL     1     -11.572  13.043  67.888  1.00  0.00    -0.320 NA 
HETATM    3  C   UNL     1     -11.540  12.903  66.430  1.00  0.00    -0.371 C  
HETATM    4  C   UNL     1     -10.416  13.505  65.553  1.00  0.00    -0.299 C  
HETATM    5  O   UNL     1     -10.277  14.900  65.772  1.00  0.00    -0.294 OA 
HETATM    6  C   UNL     1      -9.082  15.353  66.434  1.00  0.00    -0.314 C  
HETATM    7  C   UNL     1     -10.617  13.893  68.583  1.00  0.00    -0.257 C  
HETATM    8  C   UNL     1      -8.428  14.308  67.344  1.00  0.00    -0.216 A  
HETATM    9  C   UNL     1      -9.157  13.600  68.327  1.00  0.00    -0.193 A  
HETATM   10  C   UNL     1      -7.088  13.940  67.098  1.00  0.00     0.280 A  
HETATM   11  C   UNL     1      -8.531  12.553  69.027  1.00  0.00     0.439 A  
HETATM   12  C   UNL     1      -6.492  12.885  67.788  1.00  0.00    -0.143 A  
HETATM   13  C   UNL     1      -7.214  12.191  68.752  1.00  0.00    -0.103 A  
ENDROOT
BRANCH   6  14
HETATM   14  C   UNL     1      -9.373  16.703  67.102  1.00  0.00    -0.236 A  
HETATM   15  C   UNL     1     -10.682  18.752  67.266  1.00  0.00    -0.490 A  
HETATM   16  C   UNL     1      -8.973  18.312  68.903  1.00  0.00    -0.148 A  
HETATM   17  C   UNL     1      -8.676  17.111  68.257  1.00  0.00    -0.241 A  
HETATM   18  C   UNL     1     -10.379  17.551  66.613  1.00  0.00    -0.319 A  
HETATM   19  C   UNL     1      -9.985  19.128  68.413  1.00  0.00    -0.493 A  
ENDBRANCH   6  14
TORSDOF 1
ENDMDL
MODEL       90
REMARK 921   NORMALIZED FREE ENERGY PREDICTED BY IDOCK:   -3.67 KCAL/MOL
REMARK 922        TOTAL FREE ENERGY PREDICTED BY IDOCK:   -4.45 KCAL/MOL
REMARK 923 INTER-LIGAND FREE ENERGY PREDICTED BY IDOCK:   -3.93 KCAL/MOL
REMARK 924 INTRA-LIGAND FREE ENERGY PREDICTED BY IDOCK:   -0.52 KCAL/MOL
REMARK 927      BINDING AFFINITY PREDICTED BY RF-SCORE:    0.00 PKD
ROOT
HETATM    1  C   UNL     1      -5.466   9.727  68.631  1.00  0.00    -0.036 C  
HETATM    2  N   UNL     1      -6.766   9.101  68.761  1.00  0.00    -0.053 NA 
HETATM    3  C   UNL     1      -7.091   8.159  67.688  1.00  0.00    -0.087 C  
HETATM    4  C   UNL     1      -8.487   8.093  67.023  1.00  0.00    -0.120 C  
HETATM    5  O   UNL     1      -9.511   7.894  67.982  1.00  0.00    -0.147 OA 
HETATM    6  C   UNL     1     -10.418   8.985  68.223  1.00  0.00    -0.200 C  
HETATM    7  C   UNL     1      -7.793   9.933  69.369  1.00  0.00    -0.127 C  
HETATM    8  C   UNL     1      -9.840  10.369  67.913  1.00  0.00    -0.176 A  
HETATM    9  C   UNL     1      -8.593  10.798  68.423  1.00  0.00    -0.141 A  
HETATM   10  C   UNL     1     -10.506  11.187  66.975  1.00  0.00    -0.277 A  
HETATM   11  C   UNL     1      -8.053  12.019  67.982  1.00  0.00    -0.153 A  
HETATM   12  C   UNL     1      -9.943  12.384  66.535  1.00  0.00    -0.242 A  
HETATM   13  C   UNL     1      -8.716  12.801  67.038  1.00  0.00    -0.197 A  
ENDROOT
BRANCH   6  14
HETATM   14  C   UNL     1     -11.011   8.830  69.629  1.00  0.00    -0.114 A  
HETATM   15  C   UNL     1     -12.041   9.793  71.617  1.00  0.00    -0.475 A  
HETATM   16  C   UNL     1     -11.780   7.405  71.466  1.00  0.00    -0.314 A  
HETATM   17  C   UNL     1     -11.190   7.558  70.210  1.00  0.00    -0.253 A  
HETATM   18  C   UNL     1     -11.442   9.948  70.361  1.00  0.00    -0.372 A  
HETATM   19  C   UNL     1     -12.216   8.523  72.164  1.00  0.00    -0.446 A  
ENDBRANCH   6  14
TORSDOF 1
ENDMDL
MODEL       91
REMARK 921   NORMALIZED FREE ENERGY PREDICTED BY IDOCK:   -3.66 KCAL/MOL
REMARK 922        TOTAL FREE ENERGY PREDICTED BY IDOCK:   -4.44 KCAL/MOL
REMARK 923 INTER-LIGAND FREE ENERGY PREDICTED BY IDOCK:   -3.88 KCAL/MOL
REMARK 924 INTRA-LIGAND FREE ENERGY PREDICTED BY IDOCK:   -0.56 KCAL/MOL
REMARK 927      BINDING AFFINITY PREDICTED BY RF-SCORE:    0.00 PKD
ROOT
HETATM    1  C   UNL     1     -13.226   8.575  72.012  1.00  0.00    -0.369 C  
HETATM    2  N   UNL     1     -12.168   7.585  72.009  1.00  0.00    -0.291 NA 
HETATM    3  C   UNL     1     -11.276   7.654  73.170  1.00  0.00    -0.256 C  
HETATM    4  C   UNL     1      -9.739   7.509  73.057  1.00  0.00    -0.225 C  
HETATM    5  O   UNL     1      -9.376   6.300  72.410  1.00  0.00    -0.143 OA 
HETATM    6  C   UNL     1      -8.791   6.397  71.099  1.00  0.00    -0.138 C  
HETATM    7  C   UNL     1     -11.664   7.224  70.693  1.00  0.00    -0.275 C  
HETATM    8  C   UNL     1      -9.179   7.660  70.324  1.00  0.00    -0.157 A  
HETATM    9  C   UNL     1     -10.525   8.064  70.165  1.00  0.00    -0.225 A  
HETATM   10  C   UNL     1      -8.155   8.522  69.875  1.00  0.00    -0.118 A  
HETATM   11  C   UNL     1     -10.803   9.307  69.570  1.00  0.00    -0.211 A  
HETATM   12  C   UNL     1      -8.452   9.760  69.308  1.00  0.00    -0.152 A  
HETATM   13  C   UNL     1      -9.776  10.154  69.155  1.00  0.00    -0.225 A  
ENDROOT
BRANCH   6  14
HETATM   14  C   UNL     1      -9.033   5.078  70.354  1.00  0.00    -0.159 A  
HETATM   15  C   UNL     1      -9.109   3.791  68.287  1.00  0.00    -0.193 A  
HETATM   16  C   UNL     1      -9.462   2.668  70.386  1.00  0.00    -0.185 A  
HETATM   17  C   UNL     1      -9.296   3.883  71.053  1.00  0.00    -0.222 A  
HETATM   18  C   UNL     1      -8.950   5.010  68.954  1.00  0.00    -0.127 A  
HETATM   19  C   UNL     1      -9.357   2.621  69.002  1.00  0.00    -0.212 A  
ENDBRANCH   6  14
TORSDOF 1
ENDMDL
MODEL       92
REMARK 921   NORMALIZED FREE ENERGY PREDICTED BY IDOCK:   -3.66 KCAL/MOL
REMARK 922        TOTAL FREE ENERGY PREDICTED BY IDOCK:   -4.44 KCAL/MOL
REMARK 923 INTER-LIGAND FREE ENERGY PREDICTED BY IDOCK:   -3.84 KCAL/MOL
REMARK 924 INTRA-LIGAND FREE ENERGY PREDICTED BY IDOCK:   -0.60 KCAL/MOL
REMARK 927      BINDING AFFINITY PREDICTED BY RF-SCORE:    0.00 PKD
ROOT
HETATM    1  C   UNL     1      -6.777   8.703  71.515  1.00  0.00    -0.078 C  
HETATM    2  N   UNL     1      -7.561   8.621  70.299  1.00  0.00    -0.069 NA 
HETATM    3  C   UNL     1      -8.330   9.831  69.996  1.00  0.00    -0.192 C  
HETATM    4  C   UNL     1      -9.790   9.791  69.485  1.00  0.00    -0.214 C  
HETATM    5  O   UNL     1      -9.910   9.000  68.314  1.00  0.00    -0.156 OA 
HETATM    6  C   UNL     1     -10.623   7.754  68.425  1.00  0.00    -0.112 C  
HETATM    7  C   UNL     1      -8.085   7.299  69.990  1.00  0.00    -0.130 C  
HETATM    8  C   UNL     1     -10.625   7.148  69.831  1.00  0.00    -0.246 A  
HETATM    9  C   UNL     1      -9.437   6.968  70.577  1.00  0.00    -0.166 A  
HETATM   10  C   UNL     1     -11.864   6.892  70.457  1.00  0.00    -0.385 A  
HETATM   11  C   UNL     1      -9.523   6.544  71.915  1.00  0.00    -0.153 A  
HETATM   12  C   UNL     1     -11.928   6.492  71.791  1.00  0.00    -0.394 A  
HETATM   13  C   UNL     1     -10.758   6.318  72.521  1.00  0.00    -0.256 A  
ENDROOT
BRANCH   6  14
HETATM   14  C   UNL     1     -10.142   6.813  67.313  1.00  0.00    -0.237 A  
HETATM   15  C   UNL     1      -8.660   6.320  65.442  1.00  0.00    -0.097 A  
HETATM   16  C   UNL     1     -10.180   4.623  66.219  1.00  0.00    -0.306 A  
HETATM   17  C   UNL     1     -10.653   5.505  67.192  1.00  0.00    -0.313 A  
HETATM   18  C   UNL     1      -9.140   7.207  66.413  1.00  0.00    -0.189 A  
HETATM   19  C   UNL     1      -9.174   5.028  65.351  1.00  0.00    -0.144 A  
ENDBRANCH   6  14
TORSDOF 1
ENDMDL
MODEL       93
REMARK 921   NORMALIZED FREE ENERGY PREDICTED BY IDOCK:   -3.64 KCAL/MOL
REMARK 922        TOTAL FREE ENERGY PREDICTED BY IDOCK:   -4.42 KCAL/MOL
REMARK 923 INTER-LIGAND FREE ENERGY PREDICTED BY IDOCK:   -4.17 KCAL/MOL
REMARK 924 INTRA-LIGAND FREE ENERGY PREDICTED BY IDOCK:   -0.25 KCAL/MOL
REMARK 927      BINDING AFFINITY PREDICTED BY RF-SCORE:    0.00 PKD
ROOT
HETATM    1  C   UNL     1      -7.931  17.948  67.756  1.00  0.00    -0.230 C  
HETATM    2  N   UNL     1      -8.763  16.778  67.564  1.00  0.00    -0.197 NA 
HETATM    3  C   UNL     1      -9.661  16.487  68.684  1.00  0.00    -0.247 C  
HETATM    4  C   UNL     1      -9.897  15.055  69.221  1.00  0.00    -0.197 C  
HETATM    5  O   UNL     1     -10.329  14.179  68.192  1.00  0.00    -0.229 OA 
HETATM    6  C   UNL     1      -9.417  13.148  67.771  1.00  0.00    -0.209 C  
HETATM    7  C   UNL     1      -8.153  15.707  66.790  1.00  0.00    -0.244 C  
HETATM    8  C   UNL     1      -7.939  13.476  68.006  1.00  0.00    -0.151 A  
HETATM    9  C   UNL     1      -7.357  14.691  67.576  1.00  0.00    -0.220 A  
HETATM   10  C   UNL     1      -7.169  12.599  68.800  1.00  0.00    -0.083 A  
HETATM   11  C   UNL     1      -6.036  14.992  67.952  1.00  0.00    -0.170 A  
HETATM   12  C   UNL     1      -5.867  12.926  69.179  1.00  0.00    -0.081 A  
HETATM   13  C   UNL     1      -5.300  14.122  68.756  1.00  0.00    -0.087 A  
ENDROOT
BRANCH   6  14
HETATM   14  C   UNL     1      -9.769  12.737  66.336  1.00  0.00    -0.261 A  
HETATM   15  C   UNL     1     -10.454  13.314  64.069  1.00  0.00    -0.160 A  
HETATM   16  C   UNL     1      -9.892  11.031  64.584  1.00  0.00    -0.338 A  
HETATM   17  C   UNL     1      -9.627  11.403  65.902  1.00  0.00    -0.254 A  
HETATM   18  C   UNL     1     -10.196  13.686  65.394  1.00  0.00    -0.330 A  
HETATM   19  C   UNL     1     -10.295  11.991  63.664  1.00  0.00    -0.482 A  
ENDBRANCH   6  14
TORSDOF 1
ENDMDL
MODEL       94
REMARK 921   NORMALIZED FREE ENERGY PREDICTED BY IDOCK:   -3.64 KCAL/MOL
REMARK 922        TOTAL FREE ENERGY PREDICTED BY IDOCK:   -4.41 KCAL/MOL
REMARK 923 INTER-LIGAND FREE ENERGY PREDICTED BY IDOCK:   -3.89 KCAL/MOL
REMARK 924 INTRA-LIGAND FREE ENERGY PREDICTED BY IDOCK:   -0.53 KCAL/MOL
REMARK 927      BINDING AFFINITY PREDICTED BY RF-SCORE:    0.00 PKD
ROOT
HETATM    1  C   UNL     1     -10.903  11.283  66.908  1.00  0.00    -0.282 C  
HETATM    2  N   UNL     1     -10.396  10.743  68.153  1.00  0.00    -0.164 NA 
HETATM    3  C   UNL     1      -9.161  11.375  68.626  1.00  0.00    -0.146 C  
HETATM    4  C   UNL     1      -7.978  10.570  69.215  1.00  0.00    -0.154 C  
HETATM    5  O   UNL     1      -8.392   9.759  70.303  1.00  0.00    -0.189 OA 
HETATM    6  C   UNL     1      -8.390   8.333  70.106  1.00  0.00    -0.124 C  
HETATM    7  C   UNL     1     -10.638   9.322  68.354  1.00  0.00    -0.190 C  
HETATM    8  C   UNL     1      -8.546   7.895  68.647  1.00  0.00    -0.128 A  
HETATM    9  C   UNL     1      -9.579   8.386  67.817  1.00  0.00    -0.185 A  
HETATM   10  C   UNL     1      -7.543   7.083  68.073  1.00  0.00    -0.111 A  
HETATM   11  C   UNL     1      -9.579   8.058  66.450  1.00  0.00    -0.267 A  
HETATM   12  C   UNL     1      -7.549   6.787  66.710  1.00  0.00    -0.090 A  
HETATM   13  C   UNL     1      -8.567   7.274  65.898  1.00  0.00    -0.159 A  
ENDROOT
BRANCH   6  14
HETATM   14  C   UNL     1      -9.389   7.701  71.084  1.00  0.00    -0.161 A  
HETATM   15  C   UNL     1     -10.663   7.774  73.160  1.00  0.00    -0.414 A  
HETATM   16  C   UNL     1     -11.017   5.954  71.624  1.00  0.00    -0.327 A  
HETATM   17  C   UNL     1     -10.065   6.506  70.766  1.00  0.00    -0.211 A  
HETATM   18  C   UNL     1      -9.702   8.323  72.303  1.00  0.00    -0.362 A  
HETATM   19  C   UNL     1     -11.324   6.596  72.818  1.00  0.00    -0.223 A  
ENDBRANCH   6  14
TORSDOF 1
ENDMDL
MODEL       95
REMARK 921   NORMALIZED FREE ENERGY PREDICTED BY IDOCK:   -3.63 KCAL/MOL
REMARK 922        TOTAL FREE ENERGY PREDICTED BY IDOCK:   -4.41 KCAL/MOL
REMARK 923 INTER-LIGAND FREE ENERGY PREDICTED BY IDOCK:   -3.91 KCAL/MOL
REMARK 924 INTRA-LIGAND FREE ENERGY PREDICTED BY IDOCK:   -0.50 KCAL/MOL
REMARK 927      BINDING AFFINITY PREDICTED BY RF-SCORE:    0.00 PKD
ROOT
HETATM    1  C   UNL     1      -9.412   7.482  70.408  1.00  0.00    -0.161 C  
HETATM    2  N   UNL     1     -10.093   8.600  69.786  1.00  0.00    -0.194 NA 
HETATM    3  C   UNL     1     -10.612   8.318  68.445  1.00  0.00    -0.099 C  
HETATM    4  C   UNL     1     -10.493   9.320  67.271  1.00  0.00    -0.264 C  
HETATM    5  O   UNL     1     -11.054  10.580  67.604  1.00  0.00    -0.300 OA 
HETATM    6  C   UNL     1     -10.150  11.689  67.761  1.00  0.00    -0.187 C  
HETATM    7  C   UNL     1      -9.565   9.912  70.128  1.00  0.00    -0.185 C  
HETATM    8  C   UNL     1      -8.724  11.293  68.157  1.00  0.00    -0.155 A  
HETATM    9  C   UNL     1      -8.454  10.432  69.245  1.00  0.00    -0.162 A  
HETATM   10  C   UNL     1      -7.656  11.686  67.322  1.00  0.00    -0.147 A  
HETATM   11  C   UNL     1      -7.137   9.992  69.464  1.00  0.00    -0.091 A  
HETATM   12  C   UNL     1      -6.360  11.222  67.544  1.00  0.00    -0.068 A  
HETATM   13  C   UNL     1      -6.100  10.374  68.615  1.00  0.00    -0.043 A  
ENDROOT
BRANCH   6  14
HETATM   14  C   UNL     1     -10.809  12.734  68.670  1.00  0.00    -0.284 A  
HETATM   15  C   UNL     1     -12.466  13.345  70.349  1.00  0.00    -0.322 A  
HETATM   16  C   UNL     1     -10.856  14.985  69.632  1.00  0.00    -0.283 A  
HETATM   17  C   UNL     1     -10.297  14.044  68.766  1.00  0.00    -0.225 A  
HETATM   18  C   UNL     1     -11.911  12.404  69.474  1.00  0.00    -0.368 A  
HETATM   19  C   UNL     1     -11.935  14.630  70.433  1.00  0.00    -0.375 A  
ENDBRANCH   6  14
TORSDOF 1
ENDMDL
MODEL       96
REMARK 921   NORMALIZED FREE ENERGY PREDICTED BY IDOCK:   -3.62 KCAL/MOL
REMARK 922        TOTAL FREE ENERGY PREDICTED BY IDOCK:   -4.40 KCAL/MOL
REMARK 923 INTER-LIGAND FREE ENERGY PREDICTED BY IDOCK:   -3.80 KCAL/MOL
REMARK 924 INTRA-LIGAND FREE ENERGY PREDICTED BY IDOCK:   -0.60 KCAL/MOL
REMARK 927      BINDING AFFINITY PREDICTED BY RF-SCORE:    0.00 PKD
ROOT
HETATM    1  C   UNL     1      -9.841   4.281  66.699  1.00  0.00    -0.214 C  
HETATM    2  N   UNL     1     -10.247   5.372  67.562  1.00  0.00    -0.192 NA 
HETATM    3  C   UNL     1     -10.890   6.486  66.862  1.00  0.00    -0.357 C  
HETATM    4  C   UNL     1     -10.582   7.969  67.182  1.00  0.00    -0.297 C  
HETATM    5  O   UNL     1     -10.785   8.257  68.556  1.00  0.00    -0.142 OA 
HETATM    6  C   UNL     1      -9.622   8.541  69.354  1.00  0.00    -0.170 C  
HETATM    7  C   UNL     1      -9.385   5.603  68.712  1.00  0.00    -0.123 C  
HETATM    8  C   UNL     1      -8.326   7.919  68.828  1.00  0.00    -0.128 A  
HETATM    9  C   UNL     1      -8.227   6.548  68.494  1.00  0.00    -0.121 A  
HETATM   10  C   UNL     1      -7.237   8.768  68.533  1.00  0.00    -0.074 A  
HETATM   11  C   UNL     1      -7.055   6.073  67.879  1.00  0.00    -0.074 A  
HETATM   12  C   UNL     1      -6.093   8.281  67.904  1.00  0.00    -0.047 A  
HETATM   13  C   UNL     1      -6.001   6.934  67.576  1.00  0.00    -0.028 A  
ENDROOT
BRANCH   6  14
HETATM   14  C   UNL     1      -9.945   8.225  70.821  1.00  0.00    -0.217 A  
HETATM   15  C   UNL     1     -11.464   7.373  72.524  1.00  0.00    -0.346 A  
HETATM   16  C   UNL     1      -9.241   8.044  73.159  1.00  0.00    -0.347 A  
HETATM   17  C   UNL     1      -8.975   8.382  71.832  1.00  0.00    -0.280 A  
HETATM   18  C   UNL     1     -11.200   7.720  71.195  1.00  0.00    -0.285 A  
HETATM   19  C   UNL     1     -10.484   7.528  73.503  1.00  0.00    -0.362 A  
ENDBRANCH   6  14
TORSDOF 1
ENDMDL
MODEL       97
REMARK 921   NORMALIZED FREE ENERGY PREDICTED BY IDOCK:   -3.59 KCAL/MOL
REMARK 922        TOTAL FREE ENERGY PREDICTED BY IDOCK:   -4.37 KCAL/MOL
REMARK 923 INTER-LIGAND FREE ENERGY PREDICTED BY IDOCK:   -3.77 KCAL/MOL
REMARK 924 INTRA-LIGAND FREE ENERGY PREDICTED BY IDOCK:   -0.60 KCAL/MOL
REMARK 927      BINDING AFFINITY PREDICTED BY RF-SCORE:    0.00 PKD
ROOT
HETATM    1  C   UNL     1      -6.994  10.457  70.217  1.00  0.00    -0.096 C  
HETATM    2  N   UNL     1      -8.106  10.388  69.292  1.00  0.00    -0.149 NA 
HETATM    3  C   UNL     1      -9.239   9.590  69.770  1.00  0.00    -0.208 C  
HETATM    4  C   UNL     1     -10.013   8.603  68.862  1.00  0.00    -0.189 C  
HETATM    5  O   UNL     1     -10.506   9.245  67.698  1.00  0.00    -0.238 OA 
HETATM    6  C   UNL     1      -9.909   8.886  66.438  1.00  0.00    -0.283 C  
HETATM    7  C   UNL     1      -7.740  10.406  67.884  1.00  0.00    -0.089 C  
HETATM    8  C   UNL     1      -8.473   8.364  66.544  1.00  0.00    -0.116 A  
HETATM    9  C   UNL     1      -7.466   9.061  67.252  1.00  0.00    -0.084 A  
HETATM   10  C   UNL     1      -8.180   7.079  66.039  1.00  0.00    -0.129 A  
HETATM   11  C   UNL     1      -6.210   8.456  67.434  1.00  0.00    -0.056 A  
HETATM   12  C   UNL     1      -6.935   6.488  66.249  1.00  0.00    -0.066 A  
HETATM   13  C   UNL     1      -5.949   7.176  66.947  1.00  0.00    -0.034 A  
ENDROOT
BRANCH   6  14
HETATM   14  C   UNL     1     -10.107  10.046  65.453  1.00  0.00    -0.317 A  
HETATM   15  C   UNL     1     -10.982  12.258  64.927  1.00  0.00    -0.344 A  
HETATM   16  C   UNL     1      -9.624  11.112  63.303  1.00  0.00    -0.371 A  
HETATM   17  C   UNL     1      -9.496  10.037  64.183  1.00  0.00    -0.314 A  
HETATM   18  C   UNL     1     -10.860  11.176  65.807  1.00  0.00    -0.218 A  
HETATM   19  C   UNL     1     -10.359  12.229  63.681  1.00  0.00    -0.463 A  
ENDBRANCH   6  14
TORSDOF 1
ENDMDL
MODEL       98
REMARK 921   NORMALIZED FREE ENERGY PREDICTED BY IDOCK:   -3.55 KCAL/MOL
REMARK 922        TOTAL FREE ENERGY PREDICTED BY IDOCK:   -4.33 KCAL/MOL
REMARK 923 INTER-LIGAND FREE ENERGY PREDICTED BY IDOCK:   -3.77 KCAL/MOL
REMARK 924 INTRA-LIGAND FREE ENERGY PREDICTED BY IDOCK:   -0.56 KCAL/MOL
REMARK 927      BINDING AFFINITY PREDICTED BY RF-SCORE:    0.00 PKD
ROOT
HETATM    1  C   UNL     1      -6.937   5.780  70.620  1.00  0.00    -0.058 C  
HETATM    2  N   UNL     1      -8.045   6.625  70.220  1.00  0.00    -0.119 NA 
HETATM    3  C   UNL     1      -9.308   6.321  70.897  1.00  0.00    -0.161 C  
HETATM    4  C   UNL     1     -10.668   6.284  70.159  1.00  0.00    -0.286 C  
HETATM    5  O   UNL     1     -10.923   7.500  69.475  1.00  0.00    -0.209 OA 
HETATM    6  C   UNL     1     -10.901   7.471  68.037  1.00  0.00    -0.030 C  
HETATM    7  C   UNL     1      -8.020   7.059  68.832  1.00  0.00    -0.120 C  
HETATM    8  C   UNL     1     -10.037   6.357  67.439  1.00  0.00    -0.198 A  
HETATM    9  C   UNL     1      -8.698   6.143  67.838  1.00  0.00    -0.113 A  
HETATM   10  C   UNL     1     -10.640   5.427  66.565  1.00  0.00    -0.353 A  
HETATM   11  C   UNL     1      -8.008   5.016  67.359  1.00  0.00    -0.096 A  
HETATM   12  C   UNL     1      -9.946   4.303  66.118  1.00  0.00    -0.231 A  
HETATM   13  C   UNL     1      -8.630   4.097  66.514  1.00  0.00    -0.113 A  
ENDROOT
BRANCH   6  14
HETATM   14  C   UNL     1     -10.589   8.882  67.522  1.00  0.00    -0.307 A  
HETATM   15  C   UNL     1      -9.889  10.383  65.734  1.00  0.00    -0.300 A  
HETATM   16  C   UNL     1     -10.592  11.310  67.842  1.00  0.00    -0.231 A  
HETATM   17  C   UNL     1     -10.821  10.019  68.322  1.00  0.00    -0.286 A  
HETATM   18  C   UNL     1     -10.110   9.089  66.218  1.00  0.00    -0.311 A  
HETATM   19  C   UNL     1     -10.137  11.491  66.542  1.00  0.00    -0.246 A  
ENDBRANCH   6  14
TORSDOF 1
ENDMDL
MODEL       99
REMARK 921   NORMALIZED FREE ENERGY PREDICTED BY IDOCK:   -3.55 KCAL/MOL
REMARK 922        TOTAL FREE ENERGY PREDICTED BY IDOCK:   -4.32 KCAL/MOL
REMARK 923 INTER-LIGAND FREE ENERGY PREDICTED BY IDOCK:   -3.73 KCAL/MOL
REMARK 924 INTRA-LIGAND FREE ENERGY PREDICTED BY IDOCK:   -0.59 KCAL/MOL
REMARK 927      BINDING AFFINITY PREDICTED BY RF-SCORE:    0.00 PKD
ROOT
HETATM    1  C   UNL     1     -13.049   7.123  71.483  1.00  0.00    -0.375 C  
HETATM    2  N   UNL     1     -11.662   7.043  71.071  1.00  0.00    -0.315 NA 
HETATM    3  C   UNL     1     -11.462   6.466  69.739  1.00  0.00    -0.399 C  
HETATM    4  C   UNL     1     -10.338   5.450  69.425  1.00  0.00    -0.269 C  
HETATM    5  O   UNL     1      -9.062   5.959  69.779  1.00  0.00    -0.135 OA 
HETATM    6  C   UNL     1      -8.387   5.345  70.892  1.00  0.00    -0.118 C  
HETATM    7  C   UNL     1     -10.711   6.803  72.146  1.00  0.00    -0.220 C  
HETATM    8  C   UNL     1      -9.318   4.681  71.910  1.00  0.00    -0.185 A  
HETATM    9  C   UNL     1     -10.428   5.355  72.470  1.00  0.00    -0.262 A  
HETATM   10  C   UNL     1      -9.146   3.308  72.191  1.00  0.00    -0.150 A  
HETATM   11  C   UNL     1     -11.326   4.642  73.285  1.00  0.00    -0.393 A  
HETATM   12  C   UNL     1     -10.060   2.615  72.984  1.00  0.00    -0.207 A  
HETATM   13  C   UNL     1     -11.150   3.281  73.531  1.00  0.00    -0.314 A  
ENDROOT
BRANCH   6  14
HETATM   14  C   UNL     1      -7.395   6.356  71.482  1.00  0.00    -0.088 A  
HETATM   15  C   UNL     1      -6.460   8.604  71.579  1.00  0.00    -0.069 A  
HETATM   16  C   UNL     1      -5.701   6.945  73.149  1.00  0.00    -0.046 A  
HETATM   17  C   UNL     1      -6.565   6.015  72.569  1.00  0.00    -0.068 A  
HETATM   18  C   UNL     1      -7.321   7.669  70.992  1.00  0.00    -0.070 A  
HETATM   19  C   UNL     1      -5.657   8.244  72.660  1.00  0.00    -0.048 A  
ENDBRANCH   6  14
TORSDOF 1
ENDMDL
MODEL      100
REMARK 921   NORMALIZED FREE ENERGY PREDICTED BY IDOCK:   -3.54 KCAL/MOL
REMARK 922        TOTAL FREE ENERGY PREDICTED BY IDOCK:   -4.32 KCAL/MOL
REMARK 923 INTER-LIGAND FREE ENERGY PREDICTED BY IDOCK:   -4.48 KCAL/MOL
REMARK 924 INTRA-LIGAND FREE ENERGY PREDICTED BY IDOCK:    0.16 KCAL/MOL
REMARK 927      BINDING AFFINITY PREDICTED BY RF-SCORE:    0.00 PKD
ROOT
HETATM    1  C   UNL     1     -10.061  12.072  63.693  1.00  0.00    -0.415 C  
HETATM    2  N   UNL     1     -10.635  11.422  64.854  1.00  0.00    -0.302 NA 
HETATM    3  C   UNL     1     -11.555  12.264  65.622  1.00  0.00    -0.380 C  
HETATM    4  C   UNL     1     -11.559  12.309  67.169  1.00  0.00    -0.353 C  
HETATM    5  O   UNL     1     -11.724  11.016  67.726  1.00  0.00    -0.573 OA 
HETATM    6  C   UNL     1     -10.599  10.441  68.415  1.00  0.00    -0.208 C  
HETATM    7  C   UNL     1      -9.767  10.459  65.515  1.00  0.00    -0.249 C  
HETATM    8  C   UNL     1      -9.237  10.971  67.955  1.00  0.00    -0.159 A  
HETATM    9  C   UNL     1      -8.863  11.011  66.593  1.00  0.00    -0.168 A  
HETATM   10  C   UNL     1      -8.386  11.568  68.910  1.00  0.00    -0.005 A  
HETATM   11  C   UNL     1      -7.661  11.644  66.228  1.00  0.00     0.145 A  
HETATM   12  C   UNL     1      -7.209  12.209  68.525  1.00  0.00    -0.102 A  
HETATM   13  C   UNL     1      -6.846  12.247  67.184  1.00  0.00    -0.101 A  
ENDROOT
BRANCH   6  14
HETATM   14  C   UNL     1     -10.740   8.913  68.395  1.00  0.00    -0.126 A  
HETATM   15  C   UNL     1     -11.135   6.803  69.548  1.00  0.00    -0.324 A  
HETATM   16  C   UNL     1     -10.908   6.811  67.152  1.00  0.00    -0.462 A  
HETATM   17  C   UNL     1     -10.724   8.194  67.183  1.00  0.00    -0.264 A  
HETATM   18  C   UNL     1     -10.943   8.189  69.581  1.00  0.00    -0.094 A  
HETATM   19  C   UNL     1     -11.125   6.117  68.335  1.00  0.00    -0.343 A  
ENDBRANCH   6  14
TORSDOF 1
ENDMDL
MODEL      101
REMARK 921   NORMALIZED FREE ENERGY PREDICTED BY IDOCK:   -3.53 KCAL/MOL
REMARK 922        TOTAL FREE ENERGY PREDICTED BY IDOCK:   -4.30 KCAL/MOL
REMARK 923 INTER-LIGAND FREE ENERGY PREDICTED BY IDOCK:   -3.82 KCAL/MOL
REMARK 924 INTRA-LIGAND FREE ENERGY PREDICTED BY IDOCK:   -0.48 KCAL/MOL
REMARK 927      BINDING AFFINITY PREDICTED BY RF-SCORE:    0.00 PKD
ROOT
HETATM    1  C   UNL     1     -10.988  12.804  66.960  1.00  0.00    -0.263 C  
HETATM    2  N   UNL     1     -11.046  11.484  67.554  1.00  0.00    -0.254 NA 
HETATM    3  C   UNL     1     -11.710  11.440  68.860  1.00  0.00    -0.343 C  
HETATM    4  C   UNL     1     -11.167  10.612  70.049  1.00  0.00    -0.309 C  
HETATM    5  O   UNL     1     -10.997   9.248  69.699  1.00  0.00    -0.234 OA 
HETATM    6  C   UNL     1      -9.651   8.749  69.607  1.00  0.00    -0.171 C  
HETATM    7  C   UNL     1      -9.911  10.623  67.258  1.00  0.00    -0.176 C  
HETATM    8  C   UNL     1      -8.600   9.816  69.289  1.00  0.00    -0.158 A  
HETATM    9  C   UNL     1      -8.740  10.717  68.209  1.00  0.00    -0.136 A  
HETATM   10  C   UNL     1      -7.526   9.998  70.188  1.00  0.00    -0.176 A  
HETATM   11  C   UNL     1      -7.814  11.765  68.061  1.00  0.00    -0.134 A  
HETATM   12  C   UNL     1      -6.631  11.056  70.036  1.00  0.00    -0.134 A  
HETATM   13  C   UNL     1      -6.775  11.940  68.973  1.00  0.00    -0.099 A  
ENDROOT
BRANCH   6  14
HETATM   14  C   UNL     1      -9.642   7.531  68.673  1.00  0.00    -0.151 A  
HETATM   15  C   UNL     1      -8.613   5.468  67.885  1.00  0.00    -0.104 A  
HETATM   16  C   UNL     1     -10.746   6.136  66.991  1.00  0.00    -0.423 A  
HETATM   17  C   UNL     1     -10.720   7.271  67.803  1.00  0.00    -0.267 A  
HETATM   18  C   UNL     1      -8.583   6.610  68.693  1.00  0.00    -0.125 A  
HETATM   19  C   UNL     1      -9.696   5.228  67.041  1.00  0.00    -0.167 A  
ENDBRANCH   6  14
TORSDOF 1
ENDMDL
MODEL      102
REMARK 921   NORMALIZED FREE ENERGY PREDICTED BY IDOCK:   -3.53 KCAL/MOL
REMARK 922        TOTAL FREE ENERGY PREDICTED BY IDOCK:   -4.30 KCAL/MOL
REMARK 923 INTER-LIGAND FREE ENERGY PREDICTED BY IDOCK:   -3.71 KCAL/MOL
REMARK 924 INTRA-LIGAND FREE ENERGY PREDICTED BY IDOCK:   -0.59 KCAL/MOL
REMARK 927      BINDING AFFINITY PREDICTED BY RF-SCORE:    0.00 PKD
ROOT
HETATM    1  C   UNL     1     -10.558   6.032  71.433  1.00  0.00    -0.246 C  
HETATM    2  N   UNL     1     -10.826   6.932  70.330  1.00  0.00    -0.248 NA 
HETATM    3  C   UNL     1     -11.362   6.277  69.135  1.00  0.00    -0.287 C  
HETATM    4  C   UNL     1     -10.891   6.628  67.703  1.00  0.00    -0.315 C  
HETATM    5  O   UNL     1     -11.033   8.014  67.434  1.00  0.00    -0.151 OA 
HETATM    6  C   UNL     1      -9.829   8.791  67.298  1.00  0.00    -0.201 C  
HETATM    7  C   UNL     1      -9.920   8.066  70.225  1.00  0.00    -0.189 C  
HETATM    8  C   UNL     1      -8.618   8.217  68.039  1.00  0.00    -0.129 A  
HETATM    9  C   UNL     1      -8.673   7.845  69.402  1.00  0.00    -0.138 A  
HETATM   10  C   UNL     1      -7.452   7.918  67.301  1.00  0.00    -0.093 A  
HETATM   11  C   UNL     1      -7.572   7.190  69.981  1.00  0.00    -0.091 A  
HETATM   12  C   UNL     1      -6.379   7.248  67.889  1.00  0.00    -0.048 A  
HETATM   13  C   UNL     1      -6.439   6.883  69.229  1.00  0.00    -0.043 A  
ENDROOT
BRANCH   6  14
HETATM   14  C   UNL     1     -10.151  10.256  67.619  1.00  0.00    -0.229 A  
HETATM   15  C   UNL     1     -11.710  11.970  68.375  1.00  0.00    -0.390 A  
HETATM   16  C   UNL     1      -9.425  12.575  67.917  1.00  0.00    -0.196 A  
HETATM   17  C   UNL     1      -9.153  11.250  67.572  1.00  0.00    -0.151 A  
HETATM   18  C   UNL     1     -11.439  10.643  68.021  1.00  0.00    -0.289 A  
HETATM   19  C   UNL     1     -10.703  12.932  68.330  1.00  0.00    -0.273 A  
ENDBRANCH   6  14
TORSDOF 1
ENDMDL
MODEL      103
REMARK 921   NORMALIZED FREE ENERGY PREDICTED BY IDOCK:   -3.52 KCAL/MOL
REMARK 922        TOTAL FREE ENERGY PREDICTED BY IDOCK:   -4.30 KCAL/MOL
REMARK 923 INTER-LIGAND FREE ENERGY PREDICTED BY IDOCK:   -3.73 KCAL/MOL
REMARK 924 INTRA-LIGAND FREE ENERGY PREDICTED BY IDOCK:   -0.57 KCAL/MOL
REMARK 927      BINDING AFFINITY PREDICTED BY RF-SCORE:    0.00 PKD
ROOT
HETATM    1  C   UNL     1     -12.241   6.363  71.975  1.00  0.00    -0.269 C  
HETATM    2  N   UNL     1     -11.447   6.668  70.803  1.00  0.00    -0.331 NA 
HETATM    3  C   UNL     1     -10.752   5.513  70.229  1.00  0.00    -0.263 C  
HETATM    4  C   UNL     1      -9.289   5.578  69.728  1.00  0.00    -0.142 C  
HETATM    5  O   UNL     1      -9.114   6.603  68.764  1.00  0.00    -0.132 OA 
HETATM    6  C   UNL     1      -8.327   7.746  69.145  1.00  0.00    -0.134 C  
HETATM    7  C   UNL     1     -10.841   7.991  70.795  1.00  0.00    -0.232 C  
HETATM    8  C   UNL     1      -8.296   8.020  70.652  1.00  0.00    -0.123 A  
HETATM    9  C   UNL     1      -9.474   8.099  71.430  1.00  0.00    -0.211 A  
HETATM   10  C   UNL     1      -7.047   8.053  71.309  1.00  0.00    -0.057 A  
HETATM   11  C   UNL     1      -9.370   8.206  72.828  1.00  0.00    -0.344 A  
HETATM   12  C   UNL     1      -6.966   8.138  72.698  1.00  0.00    -0.107 A  
HETATM   13  C   UNL     1      -8.127   8.214  73.458  1.00  0.00    -0.261 A  
ENDROOT
BRANCH   6  14
HETATM   14  C   UNL     1      -8.743   8.941  68.278  1.00  0.00    -0.134 A  
HETATM   15  C   UNL     1      -8.409  11.232  67.517  1.00  0.00    -0.131 A  
HETATM   16  C   UNL     1     -10.134   9.895  66.503  1.00  0.00    -0.298 A  
HETATM   17  C   UNL     1      -9.786   8.830  67.335  1.00  0.00    -0.250 A  
HETATM   18  C   UNL     1      -8.065  10.167  68.358  1.00  0.00    -0.104 A  
HETATM   19  C   UNL     1      -9.437  11.093  66.587  1.00  0.00    -0.204 A  
ENDBRANCH   6  14
TORSDOF 1
ENDMDL
MODEL      104
REMARK 921   NORMALIZED FREE ENERGY PREDICTED BY IDOCK:   -3.47 KCAL/MOL
REMARK 922        TOTAL FREE ENERGY PREDICTED BY IDOCK:   -4.24 KCAL/MOL
REMARK 923 INTER-LIGAND FREE ENERGY PREDICTED BY IDOCK:   -4.02 KCAL/MOL
REMARK 924 INTRA-LIGAND FREE ENERGY PREDICTED BY IDOCK:   -0.22 KCAL/MOL
REMARK 927      BINDING AFFINITY PREDICTED BY RF-SCORE:    0.00 PKD
ROOT
HETATM    1  C   UNL     1      -6.517   7.712  73.508  1.00  0.00    -0.075 C  
HETATM    2  N   UNL     1      -7.963   7.769  73.574  1.00  0.00    -0.143 NA 
HETATM    3  C   UNL     1      -8.562   6.806  74.501  1.00  0.00    -0.173 C  
HETATM    4  C   UNL     1      -9.833   5.991  74.160  1.00  0.00    -0.224 C  
HETATM    5  O   UNL     1     -10.910   6.837  73.793  1.00  0.00    -0.269 OA 
HETATM    6  C   UNL     1     -11.338   6.810  72.420  1.00  0.00    -0.268 C  
HETATM    7  C   UNL     1      -8.624   8.124  72.327  1.00  0.00    -0.175 C  
HETATM    8  C   UNL     1     -10.253   6.383  71.427  1.00  0.00    -0.228 A  
HETATM    9  C   UNL     1      -8.970   6.976  71.408  1.00  0.00    -0.139 A  
HETATM   10  C   UNL     1     -10.496   5.265  70.599  1.00  0.00    -0.306 A  
HETATM   11  C   UNL     1      -7.976   6.438  70.572  1.00  0.00    -0.112 A  
HETATM   12  C   UNL     1      -9.490   4.734  69.793  1.00  0.00    -0.233 A  
HETATM   13  C   UNL     1      -8.229   5.320  69.779  1.00  0.00    -0.098 A  
ENDROOT
BRANCH   6  14
HETATM   14  C   UNL     1     -12.027   8.142  72.094  1.00  0.00    -0.413 A  
HETATM   15  C   UNL     1     -12.318  10.085  70.652  1.00  0.00    -0.342 A  
HETATM   16  C   UNL     1     -13.772   9.798  72.549  1.00  0.00    -0.176 A  
HETATM   17  C   UNL     1     -13.103   8.617  72.872  1.00  0.00     0.037 A  
HETATM   18  C   UNL     1     -11.642   8.904  70.980  1.00  0.00    -0.347 A  
HETATM   19  C   UNL     1     -13.386  10.527  71.431  1.00  0.00    -0.339 A  
ENDBRANCH   6  14
TORSDOF 1
ENDMDL
MODEL      105
REMARK 921   NORMALIZED FREE ENERGY PREDICTED BY IDOCK:   -3.47 KCAL/MOL
REMARK 922        TOTAL FREE ENERGY PREDICTED BY IDOCK:   -4.24 KCAL/MOL
REMARK 923 INTER-LIGAND FREE ENERGY PREDICTED BY IDOCK:   -3.69 KCAL/MOL
REMARK 924 INTRA-LIGAND FREE ENERGY PREDICTED BY IDOCK:   -0.55 KCAL/MOL
REMARK 927      BINDING AFFINITY PREDICTED BY RF-SCORE:    0.00 PKD
ROOT
HETATM    1  C   UNL     1     -12.244  14.262  66.733  1.00  0.00    -0.352 C  
HETATM    2  N   UNL     1     -11.525  13.011  66.607  1.00  0.00    -0.319 NA 
HETATM    3  C   UNL     1     -11.729  12.084  67.723  1.00  0.00    -0.309 C  
HETATM    4  C   UNL     1     -10.577  11.268  68.357  1.00  0.00    -0.197 C  
HETATM    5  O   UNL     1      -9.888  10.497  67.386  1.00  0.00    -0.167 OA 
HETATM    6  C   UNL     1      -8.540  10.884  67.064  1.00  0.00    -0.136 C  
HETATM    7  C   UNL     1     -10.240  13.103  65.930  1.00  0.00    -0.291 C  
HETATM    8  C   UNL     1      -8.229  12.363  67.311  1.00  0.00    -0.184 A  
HETATM    9  C   UNL     1      -9.047  13.401  66.808  1.00  0.00    -0.221 A  
HETATM   10  C   UNL     1      -7.173  12.697  68.186  1.00  0.00    -0.109 A  
HETATM   11  C   UNL     1      -8.789  14.728  67.193  1.00  0.00    -0.234 A  
HETATM   12  C   UNL     1      -6.947  14.017  68.573  1.00  0.00    -0.103 A  
HETATM   13  C   UNL     1      -7.755  15.034  68.076  1.00  0.00    -0.129 A  
ENDROOT
BRANCH   6  14
HETATM   14  C   UNL     1      -8.207  10.377  65.655  1.00  0.00    -0.158 A  
HETATM   15  C   UNL     1      -6.587   9.897  63.899  1.00  0.00    -0.126 A  
HETATM   16  C   UNL     1      -8.894   9.291  63.571  1.00  0.00    -0.145 A  
HETATM   17  C   UNL     1      -9.198   9.806  64.832  1.00  0.00    -0.314 A  
HETATM   18  C   UNL     1      -6.894  10.420  65.160  1.00  0.00    -0.085 A  
HETATM   19  C   UNL     1      -7.584   9.327  63.109  1.00  0.00    -0.108 A  
ENDBRANCH   6  14
TORSDOF 1
ENDMDL
MODEL      106
REMARK 921   NORMALIZED FREE ENERGY PREDICTED BY IDOCK:   -3.36 KCAL/MOL
REMARK 922        TOTAL FREE ENERGY PREDICTED BY IDOCK:   -4.12 KCAL/MOL
REMARK 923 INTER-LIGAND FREE ENERGY PREDICTED BY IDOCK:   -3.52 KCAL/MOL
REMARK 924 INTRA-LIGAND FREE ENERGY PREDICTED BY IDOCK:   -0.60 KCAL/MOL
REMARK 927      BINDING AFFINITY PREDICTED BY RF-SCORE:    0.00 PKD
ROOT
HETATM    1  C   UNL     1     -12.803   6.942  71.472  1.00  0.00    -0.333 C  
HETATM    2  N   UNL     1     -11.680   6.255  70.866  1.00  0.00    -0.294 NA 
HETATM    3  C   UNL     1     -10.634   5.858  71.812  1.00  0.00    -0.234 C  
HETATM    4  C   UNL     1      -9.125   6.016  71.509  1.00  0.00    -0.143 C  
HETATM    5  O   UNL     1      -8.766   5.366  70.301  1.00  0.00    -0.123 OA 
HETATM    6  C   UNL     1      -8.391   6.194  69.186  1.00  0.00    -0.116 C  
HETATM    7  C   UNL     1     -11.350   6.684  69.516  1.00  0.00    -0.299 C  
HETATM    8  C   UNL     1      -8.991   7.603  69.214  1.00  0.00    -0.135 A  
HETATM    9  C   UNL     1     -10.374   7.832  69.404  1.00  0.00    -0.219 A  
HETATM   10  C   UNL     1      -8.118   8.712  69.191  1.00  0.00    -0.116 A  
HETATM   11  C   UNL     1     -10.837   9.149  69.566  1.00  0.00    -0.194 A  
HETATM   12  C   UNL     1      -8.595  10.009  69.375  1.00  0.00    -0.182 A  
HETATM   13  C   UNL     1      -9.955  10.228  69.563  1.00  0.00    -0.252 A  
ENDROOT
BRANCH   6  14
HETATM   14  C   UNL     1      -8.635   5.411  67.889  1.00  0.00    -0.104 A  
HETATM   15  C   UNL     1      -9.374   3.398  66.731  1.00  0.00    -0.190 A  
HETATM   16  C   UNL     1      -8.731   5.328  65.444  1.00  0.00    -0.150 A  
HETATM   17  C   UNL     1      -8.457   6.015  66.628  1.00  0.00    -0.112 A  
HETATM   18  C   UNL     1      -9.092   4.084  67.918  1.00  0.00    -0.176 A  
HETATM   19  C   UNL     1      -9.200   4.022  65.497  1.00  0.00    -0.150 A  
ENDBRANCH   6  14
TORSDOF 1
ENDMDL
MODEL      107
REMARK 921   NORMALIZED FREE ENERGY PREDICTED BY IDOCK:   -3.32 KCAL/MOL
REMARK 922        TOTAL FREE ENERGY PREDICTED BY IDOCK:   -4.08 KCAL/MOL
REMARK 923 INTER-LIGAND FREE ENERGY PREDICTED BY IDOCK:   -3.54 KCAL/MOL
REMARK 924 INTRA-LIGAND FREE ENERGY PREDICTED BY IDOCK:   -0.54 KCAL/MOL
REMARK 927      BINDING AFFINITY PREDICTED BY RF-SCORE:    0.00 PKD
ROOT
HETATM    1  C   UNL     1      -9.184  14.708  66.533  1.00  0.00    -0.266 C  
HETATM    2  N   UNL     1      -9.235  13.261  66.578  1.00  0.00    -0.215 NA 
HETATM    3  C   UNL     1     -10.169  12.662  65.621  1.00  0.00    -0.273 C  
HETATM    4  C   UNL     1     -11.105  11.484  65.985  1.00  0.00    -0.230 C  
HETATM    5  O   UNL     1     -10.376  10.380  66.498  1.00  0.00    -0.234 OA 
HETATM    6  C   UNL     1     -10.541  10.065  67.892  1.00  0.00    -0.250 C  
HETATM    7  C   UNL     1      -9.029  12.676  67.894  1.00  0.00    -0.189 C  
HETATM    8  C   UNL     1     -10.957  11.253  68.765  1.00  0.00    -0.270 A  
HETATM    9  C   UNL     1     -10.268  12.487  68.739  1.00  0.00    -0.101 A  
HETATM   10  C   UNL     1     -12.149  11.159  69.515  1.00  0.00    -0.396 A  
HETATM   11  C   UNL     1     -10.788  13.581  69.453  1.00  0.00    -0.032 A  
HETATM   12  C   UNL     1     -12.660  12.261  70.199  1.00  0.00     0.041 A  
HETATM   13  C   UNL     1     -11.979  13.473  70.168  1.00  0.00    -0.399 A  
ENDROOT
BRANCH   6  14
HETATM   14  C   UNL     1      -9.297   9.309  68.376  1.00  0.00    -0.142 A  
HETATM   15  C   UNL     1      -7.825   8.572  70.172  1.00  0.00    -0.099 A  
HETATM   16  C   UNL     1      -7.418   7.805  67.927  1.00  0.00    -0.104 A  
HETATM   17  C   UNL     1      -8.518   8.541  67.486  1.00  0.00    -0.128 A  
HETATM   18  C   UNL     1      -8.924   9.316  69.729  1.00  0.00    -0.180 A  
HETATM   19  C   UNL     1      -7.078   7.812  69.274  1.00  0.00    -0.076 A  
ENDBRANCH   6  14
TORSDOF 1
ENDMDL
MODEL      108
REMARK 921   NORMALIZED FREE ENERGY PREDICTED BY IDOCK:   -3.26 KCAL/MOL
REMARK 922        TOTAL FREE ENERGY PREDICTED BY IDOCK:   -4.01 KCAL/MOL
REMARK 923 INTER-LIGAND FREE ENERGY PREDICTED BY IDOCK:   -4.16 KCAL/MOL
REMARK 924 INTRA-LIGAND FREE ENERGY PREDICTED BY IDOCK:    0.15 KCAL/MOL
REMARK 927      BINDING AFFINITY PREDICTED BY RF-SCORE:    0.00 PKD
ROOT
HETATM    1  C   UNL     1     -10.650  20.449  67.913  1.00  0.00     0.018 C  
HETATM    2  N   UNL     1     -10.357  19.031  67.969  1.00  0.00    -0.394 NA 
HETATM    3  C   UNL     1      -9.648  18.609  69.179  1.00  0.00    -0.126 C  
HETATM    4  C   UNL     1      -8.472  17.603  69.155  1.00  0.00     0.112 C  
HETATM    5  O   UNL     1      -8.841  16.386  68.526  1.00  0.00    -0.205 OA 
HETATM    6  C   UNL     1      -8.241  16.089  67.252  1.00  0.00    -0.182 C  
HETATM    7  C   UNL     1     -10.089  18.406  66.682  1.00  0.00    -0.380 C  
HETATM    8  C   UNL     1      -7.792  17.321  66.460  1.00  0.00    -0.322 A  
HETATM    9  C   UNL     1      -8.649  18.421  66.224  1.00  0.00    -0.215 A  
HETATM   10  C   UNL     1      -6.438  17.422  66.076  1.00  0.00    -0.161 A  
HETATM   11  C   UNL     1      -8.130  19.580  65.619  1.00  0.00     0.108 A  
HETATM   12  C   UNL     1      -5.938  18.588  65.496  1.00  0.00    -0.272 A  
HETATM   13  C   UNL     1      -6.784  19.667  65.268  1.00  0.00    -0.301 A  
ENDROOT
BRANCH   6  14
HETATM   14  C   UNL     1      -9.162  15.128  66.488  1.00  0.00    -0.318 A  
HETATM   15  C   UNL     1     -10.727  14.678  64.675  1.00  0.00    -0.309 A  
HETATM   16  C   UNL     1     -10.011  12.866  66.089  1.00  0.00    -0.274 A  
HETATM   17  C   UNL     1      -9.219  13.758  66.814  1.00  0.00    -0.255 A  
HETATM   18  C   UNL     1      -9.939  15.574  65.407  1.00  0.00    -0.339 A  
HETATM   19  C   UNL     1     -10.757  13.326  65.011  1.00  0.00    -0.346 A  
ENDBRANCH   6  14
TORSDOF 1
ENDMDL
MODEL      109
REMARK 921   NORMALIZED FREE ENERGY PREDICTED BY IDOCK:   -3.23 KCAL/MOL
REMARK 922        TOTAL FREE ENERGY PREDICTED BY IDOCK:   -3.99 KCAL/MOL
REMARK 923 INTER-LIGAND FREE ENERGY PREDICTED BY IDOCK:   -3.57 KCAL/MOL
REMARK 924 INTRA-LIGAND FREE ENERGY PREDICTED BY IDOCK:   -0.42 KCAL/MOL
REMARK 927      BINDING AFFINITY PREDICTED BY RF-SCORE:    0.00 PKD
ROOT
HETATM    1  C   UNL     1     -10.861  10.196  70.198  1.00  0.00    -0.311 C  
HETATM    2  N   UNL     1     -10.834  10.869  68.915  1.00  0.00    -0.203 NA 
HETATM    3  C   UNL     1     -11.114   9.997  67.772  1.00  0.00    -0.180 C  
HETATM    4  C   UNL     1     -10.317  10.068  66.447  1.00  0.00    -0.179 C  
HETATM    5  O   UNL     1     -10.334  11.376  65.899  1.00  0.00    -0.236 OA 
HETATM    6  C   UNL     1      -9.099  12.114  65.901  1.00  0.00     0.002 C  
HETATM    7  C   UNL     1      -9.880  11.963  68.811  1.00  0.00    -0.065 C  
HETATM    8  C   UNL     1      -8.112  11.693  66.994  1.00  0.00    -0.164 A  
HETATM    9  C   UNL     1      -8.489  11.589  68.353  1.00  0.00    -0.159 A  
HETATM   10  C   UNL     1      -6.824  11.260  66.614  1.00  0.00    -0.130 A  
HETATM   11  C   UNL     1      -7.577  11.057  69.281  1.00  0.00    -0.090 A  
HETATM   12  C   UNL     1      -5.941  10.716  67.546  1.00  0.00    -0.048 A  
HETATM   13  C   UNL     1      -6.317  10.614  68.880  1.00  0.00    -0.045 A  
ENDROOT
BRANCH   6  14
HETATM   14  C   UNL     1      -9.422  13.613  65.861  1.00  0.00    -0.057 A  
HETATM   15  C   UNL     1     -10.831  15.462  65.130  1.00  0.00    -0.447 A  
HETATM   16  C   UNL     1      -9.001  15.898  66.632  1.00  0.00    -0.301 A  
HETATM   17  C   UNL     1      -8.678  14.541  66.618  1.00  0.00    -0.162 A  
HETATM   18  C   UNL     1     -10.503  14.102  65.110  1.00  0.00    -0.422 A  
HETATM   19  C   UNL     1     -10.086  16.357  65.895  1.00  0.00    -0.370 A  
ENDBRANCH   6  14
TORSDOF 1
ENDMDL
MODEL      110
REMARK 921   NORMALIZED FREE ENERGY PREDICTED BY IDOCK:   -3.23 KCAL/MOL
REMARK 922        TOTAL FREE ENERGY PREDICTED BY IDOCK:   -3.99 KCAL/MOL
REMARK 923 INTER-LIGAND FREE ENERGY PREDICTED BY IDOCK:   -3.46 KCAL/MOL
REMARK 924 INTRA-LIGAND FREE ENERGY PREDICTED BY IDOCK:   -0.53 KCAL/MOL
REMARK 927      BINDING AFFINITY PREDICTED BY RF-SCORE:    0.00 PKD
ROOT
HETATM    1  C   UNL     1      -7.927   7.339  68.522  1.00  0.00    -0.124 C  
HETATM    2  N   UNL     1      -8.317   8.357  67.568  1.00  0.00    -0.128 NA 
HETATM    3  C   UNL     1      -7.483   8.407  66.365  1.00  0.00    -0.083 C  
HETATM    4  C   UNL     1      -7.002   9.734  65.731  1.00  0.00    -0.103 C  
HETATM    5  O   UNL     1      -8.091  10.593  65.435  1.00  0.00    -0.156 OA 
HETATM    6  C   UNL     1      -8.222  11.794  66.218  1.00  0.00     0.070 C  
HETATM    7  C   UNL     1      -8.869   9.571  68.152  1.00  0.00    -0.124 C  
HETATM    8  C   UNL     1      -7.595  11.712  67.613  1.00  0.00    -0.128 A  
HETATM    9  C   UNL     1      -7.873  10.650  68.504  1.00  0.00    -0.115 A  
HETATM   10  C   UNL     1      -6.601  12.650  67.965  1.00  0.00    -0.095 A  
HETATM   11  C   UNL     1      -7.153  10.558  69.709  1.00  0.00    -0.150 A  
HETATM   12  C   UNL     1      -5.884  12.528  69.154  1.00  0.00    -0.080 A  
HETATM   13  C   UNL     1      -6.159  11.482  70.027  1.00  0.00    -0.151 A  
ENDROOT
BRANCH   6  14
HETATM   14  C   UNL     1      -9.690  12.239  66.192  1.00  0.00    -0.256 A  
HETATM   15  C   UNL     1     -11.557  13.458  67.175  1.00  0.00    -0.399 A  
HETATM   16  C   UNL     1     -11.844  12.391  65.037  1.00  0.00    -0.440 A  
HETATM   17  C   UNL     1     -10.524  11.942  65.094  1.00  0.00    -0.330 A  
HETATM   18  C   UNL     1     -10.235  13.001  67.237  1.00  0.00    -0.239 A  
HETATM   19  C   UNL     1     -12.357  13.160  66.074  1.00  0.00    -0.426 A  
ENDBRANCH   6  14
TORSDOF 1
ENDMDL
MODEL      111
REMARK 921   NORMALIZED FREE ENERGY PREDICTED BY IDOCK:   -3.14 KCAL/MOL
REMARK 922        TOTAL FREE ENERGY PREDICTED BY IDOCK:   -3.89 KCAL/MOL
REMARK 923 INTER-LIGAND FREE ENERGY PREDICTED BY IDOCK:   -3.33 KCAL/MOL
REMARK 924 INTRA-LIGAND FREE ENERGY PREDICTED BY IDOCK:   -0.56 KCAL/MOL
REMARK 927      BINDING AFFINITY PREDICTED BY RF-SCORE:    0.00 PKD
ROOT
HETATM    1  C   UNL     1     -12.565  10.535  70.575  1.00  0.00    -0.339 C  
HETATM    2  N   UNL     1     -11.223  10.199  70.147  1.00  0.00    -0.288 NA 
HETATM    3  C   UNL     1     -11.123   9.790  68.743  1.00  0.00    -0.095 C  
HETATM    4  C   UNL     1     -10.253   8.599  68.275  1.00  0.00    -0.198 C  
HETATM    5  O   UNL     1      -8.906   8.743  68.692  1.00  0.00    -0.136 OA 
HETATM    6  C   UNL     1      -8.420   7.835  69.697  1.00  0.00    -0.133 C  
HETATM    7  C   UNL     1     -10.382   9.592  71.168  1.00  0.00    -0.260 C  
HETATM    8  C   UNL     1      -9.507   7.263  70.613  1.00  0.00    -0.164 A  
HETATM    9  C   UNL     1     -10.448   8.086  71.273  1.00  0.00    -0.238 A  
HETATM   10  C   UNL     1      -9.662   5.862  70.686  1.00  0.00    -0.217 A  
HETATM   11  C   UNL     1     -11.507   7.490  71.980  1.00  0.00    -0.319 A  
HETATM   12  C   UNL     1     -10.732   5.291  71.374  1.00  0.00    -0.203 A  
HETATM   13  C   UNL     1     -11.655   6.104  72.021  1.00  0.00    -0.364 A  
ENDROOT
BRANCH   6  14
HETATM   14  C   UNL     1      -7.240   8.492  70.424  1.00  0.00    -0.039 A  
HETATM   15  C   UNL     1      -5.487  10.181  70.530  1.00  0.00    -0.060 A  
HETATM   16  C   UNL     1      -5.838   8.729  72.418  1.00  0.00    -0.076 A  
HETATM   17  C   UNL     1      -6.874   8.098  71.728  1.00  0.00    -0.073 A  
HETATM   18  C   UNL     1      -6.520   9.544  69.835  1.00  0.00    -0.053 A  
HETATM   19  C   UNL     1      -5.152   9.780  71.822  1.00  0.00    -0.076 A  
ENDBRANCH   6  14
TORSDOF 1
ENDMDL
MODEL      112
REMARK 921   NORMALIZED FREE ENERGY PREDICTED BY IDOCK:   -3.07 KCAL/MOL
REMARK 922        TOTAL FREE ENERGY PREDICTED BY IDOCK:   -3.81 KCAL/MOL
REMARK 923 INTER-LIGAND FREE ENERGY PREDICTED BY IDOCK:   -3.24 KCAL/MOL
REMARK 924 INTRA-LIGAND FREE ENERGY PREDICTED BY IDOCK:   -0.58 KCAL/MOL
REMARK 927      BINDING AFFINITY PREDICTED BY RF-SCORE:    0.00 PKD
ROOT
HETATM    1  C   UNL     1     -10.745   9.467  68.341  1.00  0.00    -0.186 C  
HETATM    2  N   UNL     1     -10.369   8.752  69.543  1.00  0.00    -0.209 NA 
HETATM    3  C   UNL     1      -9.420   9.468  70.399  1.00  0.00    -0.262 C  
HETATM    4  C   UNL     1      -8.216   8.775  71.081  1.00  0.00    -0.165 C  
HETATM    5  O   UNL     1      -8.630   7.671  71.869  1.00  0.00    -0.105 OA 
HETATM    6  C   UNL     1      -8.268   6.355  71.411  1.00  0.00    -0.121 C  
HETATM    7  C   UNL     1     -10.315   7.303  69.408  1.00  0.00    -0.208 C  
HETATM    8  C   UNL     1      -8.047   6.250  69.899  1.00  0.00    -0.120 A  
HETATM    9  C   UNL     1      -8.992   6.726  68.962  1.00  0.00    -0.131 A  
HETATM   10  C   UNL     1      -6.798   5.790  69.428  1.00  0.00    -0.062 A  
HETATM   11  C   UNL     1      -8.663   6.732  67.595  1.00  0.00    -0.119 A  
HETATM   12  C   UNL     1      -6.483   5.824  68.070  1.00  0.00    -0.043 A  
HETATM   13  C   UNL     1      -7.415   6.295  67.153  1.00  0.00    -0.084 A  
ENDROOT
BRANCH   6  14
HETATM   14  C   UNL     1      -9.263   5.342  71.994  1.00  0.00    -0.152 A  
HETATM   15  C   UNL     1      -9.978   3.043  72.366  1.00  0.00    -0.235 A  
HETATM   16  C   UNL     1     -11.214   4.840  73.385  1.00  0.00    -0.425 A  
HETATM   17  C   UNL     1     -10.337   5.759  72.806  1.00  0.00    -0.221 A  
HETATM   18  C   UNL     1      -9.104   3.964  71.779  1.00  0.00    -0.169 A  
HETATM   19  C   UNL     1     -11.026   3.480  73.174  1.00  0.00    -0.221 A  
ENDBRANCH   6  14
TORSDOF 1
ENDMDL
MODEL      113
REMARK 921   NORMALIZED FREE ENERGY PREDICTED BY IDOCK:   -3.02 KCAL/MOL
REMARK 922        TOTAL FREE ENERGY PREDICTED BY IDOCK:   -3.77 KCAL/MOL
REMARK 923 INTER-LIGAND FREE ENERGY PREDICTED BY IDOCK:   -3.18 KCAL/MOL
REMARK 924 INTRA-LIGAND FREE ENERGY PREDICTED BY IDOCK:   -0.58 KCAL/MOL
REMARK 927      BINDING AFFINITY PREDICTED BY RF-SCORE:    0.00 PKD
ROOT
HETATM    1  C   UNL     1     -11.422  11.646  67.115  1.00  0.00    -0.271 C  
HETATM    2  N   UNL     1     -10.613  10.697  67.852  1.00  0.00    -0.210 NA 
HETATM    3  C   UNL     1      -9.546  11.306  68.650  1.00  0.00    -0.190 C  
HETATM    4  C   UNL     1      -8.115  10.721  68.725  1.00  0.00    -0.143 C  
HETATM    5  O   UNL     1      -8.128   9.366  69.141  1.00  0.00    -0.100 OA 
HETATM    6  C   UNL     1      -7.762   8.369  68.170  1.00  0.00    -0.103 C  
HETATM    7  C   UNL     1     -10.422   9.410  67.200  1.00  0.00    -0.244 C  
HETATM    8  C   UNL     1      -7.999   8.785  66.715  1.00  0.00    -0.097 A  
HETATM    9  C   UNL     1      -9.236   9.306  66.270  1.00  0.00    -0.236 A  
HETATM   10  C   UNL     1      -6.905   8.781  65.823  1.00  0.00    -0.072 A  
HETATM   11  C   UNL     1      -9.341   9.804  64.960  1.00  0.00    -0.325 A  
HETATM   12  C   UNL     1      -7.024   9.300  64.534  1.00  0.00    -0.093 A  
HETATM   13  C   UNL     1      -8.242   9.812  64.102  1.00  0.00    -0.158 A  
ENDROOT
BRANCH   6  14
HETATM   14  C   UNL     1      -8.398   7.032  68.574  1.00  0.00    -0.121 A  
HETATM   15  C   UNL     1      -8.779   4.658  68.181  1.00  0.00    -0.113 A  
HETATM   16  C   UNL     1      -9.639   5.672  70.187  1.00  0.00    -0.215 A  
HETATM   17  C   UNL     1      -9.106   6.898  69.785  1.00  0.00    -0.144 A  
HETATM   18  C   UNL     1      -8.251   5.888  67.774  1.00  0.00    -0.105 A  
HETATM   19  C   UNL     1      -9.465   4.549  69.389  1.00  0.00    -0.244 A  
ENDBRANCH   6  14
TORSDOF 1
ENDMDL
MODEL      114
REMARK 921   NORMALIZED FREE ENERGY PREDICTED BY IDOCK:   -2.98 KCAL/MOL
REMARK 922        TOTAL FREE ENERGY PREDICTED BY IDOCK:   -3.72 KCAL/MOL
REMARK 923 INTER-LIGAND FREE ENERGY PREDICTED BY IDOCK:   -3.40 KCAL/MOL
REMARK 924 INTRA-LIGAND FREE ENERGY PREDICTED BY IDOCK:   -0.32 KCAL/MOL
REMARK 927      BINDING AFFINITY PREDICTED BY RF-SCORE:    0.00 PKD
ROOT
HETATM    1  C   UNL     1     -10.819  10.798  69.075  1.00  0.00    -0.235 C  
HETATM    2  N   UNL     1      -9.868   9.812  69.548  1.00  0.00    -0.201 NA 
HETATM    3  C   UNL     1      -9.594   8.734  68.595  1.00  0.00    -0.154 C  
HETATM    4  C   UNL     1      -9.483   7.249  69.017  1.00  0.00    -0.147 C  
HETATM    5  O   UNL     1      -8.513   7.068  70.036  1.00  0.00    -0.136 OA 
HETATM    6  C   UNL     1      -8.985   6.709  71.347  1.00  0.00    -0.139 C  
HETATM    7  C   UNL     1      -9.904   9.559  70.981  1.00  0.00    -0.166 C  
HETATM    8  C   UNL     1     -10.420   7.153  71.647  1.00  0.00    -0.218 A  
HETATM    9  C   UNL     1     -10.858   8.482  71.442  1.00  0.00    -0.327 A  
HETATM   10  C   UNL     1     -11.371   6.174  72.006  1.00  0.00    -0.348 A  
HETATM   11  C   UNL     1     -12.221   8.788  71.597  1.00  0.00    -0.399 A  
HETATM   12  C   UNL     1     -12.722   6.494  72.134  1.00  0.00    -0.097 A  
HETATM   13  C   UNL     1     -13.148   7.801  71.930  1.00  0.00    -0.300 A  
ENDROOT
BRANCH   6  14
HETATM   14  C   UNL     1      -7.940   7.147  72.382  1.00  0.00    -0.102 A  
HETATM   15  C   UNL     1      -6.247   8.720  73.155  1.00  0.00    -0.045 A  
HETATM   16  C   UNL     1      -6.868   6.871  74.566  1.00  0.00    -0.091 A  
HETATM   17  C   UNL     1      -7.776   6.447  73.595  1.00  0.00    -0.092 A  
HETATM   18  C   UNL     1      -7.152   8.290  72.177  1.00  0.00    -0.103 A  
HETATM   19  C   UNL     1      -6.111   8.016  74.350  1.00  0.00    -0.101 A  
ENDBRANCH   6  14
TORSDOF 1
ENDMDL
MODEL      115
REMARK 921   NORMALIZED FREE ENERGY PREDICTED BY IDOCK:   -2.91 KCAL/MOL
REMARK 922        TOTAL FREE ENERGY PREDICTED BY IDOCK:   -3.65 KCAL/MOL
REMARK 923 INTER-LIGAND FREE ENERGY PREDICTED BY IDOCK:   -3.06 KCAL/MOL
REMARK 924 INTRA-LIGAND FREE ENERGY PREDICTED BY IDOCK:   -0.58 KCAL/MOL
REMARK 927      BINDING AFFINITY PREDICTED BY RF-SCORE:    0.00 PKD
ROOT
HETATM    1  C   UNL     1     -11.294   7.114  72.997  1.00  0.00    -0.168 C  
HETATM    2  N   UNL     1     -10.301   6.863  71.973  1.00  0.00    -0.198 NA 
HETATM    3  C   UNL     1      -8.934   7.222  72.357  1.00  0.00    -0.127 C  
HETATM    4  C   UNL     1      -7.956   7.946  71.401  1.00  0.00    -0.094 C  
HETATM    5  O   UNL     1      -7.799   7.237  70.183  1.00  0.00    -0.097 OA 
HETATM    6  C   UNL     1      -8.346   7.833  68.992  1.00  0.00    -0.131 C  
HETATM    7  C   UNL     1     -10.768   7.036  70.605  1.00  0.00    -0.231 C  
HETATM    8  C   UNL     1      -9.516   8.790  69.243  1.00  0.00    -0.161 A  
HETATM    9  C   UNL     1     -10.634   8.426  70.029  1.00  0.00    -0.235 A  
HETATM   10  C   UNL     1      -9.409  10.124  68.794  1.00  0.00    -0.168 A  
HETATM   11  C   UNL     1     -11.601   9.398  70.340  1.00  0.00    -0.241 A  
HETATM   12  C   UNL     1     -10.368  11.077  69.132  1.00  0.00    -0.210 A  
HETATM   13  C   UNL     1     -11.465  10.715  69.905  1.00  0.00    -0.393 A  
ENDROOT
BRANCH   6  14
HETATM   14  C   UNL     1      -8.624   6.723  67.970  1.00  0.00    -0.122 A  
HETATM   15  C   UNL     1      -9.396   6.004  65.774  1.00  0.00     0.013 A  
HETATM   16  C   UNL     1      -8.453   4.380  67.280  1.00  0.00    -0.104 A  
HETATM   17  C   UNL     1      -8.256   5.387  68.226  1.00  0.00    -0.095 A  
HETATM   18  C   UNL     1      -9.206   7.012  66.726  1.00  0.00    -0.181 A  
HETATM   19  C   UNL     1      -9.014   4.693  66.048  1.00  0.00    -0.123 A  
ENDBRANCH   6  14
TORSDOF 1
ENDMDL
MODEL      116
REMARK 921   NORMALIZED FREE ENERGY PREDICTED BY IDOCK:   -2.86 KCAL/MOL
REMARK 922        TOTAL FREE ENERGY PREDICTED BY IDOCK:   -3.59 KCAL/MOL
REMARK 923 INTER-LIGAND FREE ENERGY PREDICTED BY IDOCK:   -2.99 KCAL/MOL
REMARK 924 INTRA-LIGAND FREE ENERGY PREDICTED BY IDOCK:   -0.60 KCAL/MOL
REMARK 927      BINDING AFFINITY PREDICTED BY RF-SCORE:    0.00 PKD
ROOT
HETATM    1  C   UNL     1     -12.459  14.116  70.310  1.00  0.00    -0.353 C  
HETATM    2  N   UNL     1     -11.601  14.742  69.325  1.00  0.00    -0.286 NA 
HETATM    3  C   UNL     1     -12.268  15.064  68.061  1.00  0.00     0.154 C  
HETATM    4  C   UNL     1     -11.613  14.820  66.680  1.00  0.00    -0.313 C  
HETATM    5  O   UNL     1     -10.353  15.462  66.582  1.00  0.00    -0.267 OA 
HETATM    6  C   UNL     1      -9.183  14.625  66.535  1.00  0.00    -0.266 C  
HETATM    7  C   UNL     1     -10.211  14.309  69.354  1.00  0.00     0.080 C  
HETATM    8  C   UNL     1      -9.358  13.254  67.196  1.00  0.00    -0.240 A  
HETATM    9  C   UNL     1      -9.873  13.107  68.504  1.00  0.00    -0.155 A  
HETATM   10  C   UNL     1      -9.130  12.096  66.422  1.00  0.00    -0.177 A  
HETATM   11  C   UNL     1     -10.145  11.817  68.995  1.00  0.00    -0.004 A  
HETATM   12  C   UNL     1      -9.427  10.827  66.920  1.00  0.00    -0.192 A  
HETATM   13  C   UNL     1      -9.935  10.688  68.206  1.00  0.00    -0.173 A  
ENDROOT
BRANCH   6  14
HETATM   14  C   UNL     1      -7.979  15.436  67.033  1.00  0.00    -0.259 A  
HETATM   15  C   UNL     1      -7.022  17.509  67.884  1.00  0.00    -0.185 A  
HETATM   16  C   UNL     1      -5.633  15.549  67.725  1.00  0.00    -0.139 A  
HETATM   17  C   UNL     1      -6.719  14.833  67.219  1.00  0.00     0.101 A  
HETATM   18  C   UNL     1      -8.109  16.793  67.369  1.00  0.00    -0.190 A  
HETATM   19  C   UNL     1      -5.789  16.886  68.068  1.00  0.00    -0.126 A  
ENDBRANCH   6  14
TORSDOF 1
ENDMDL
MODEL      117
REMARK 921   NORMALIZED FREE ENERGY PREDICTED BY IDOCK:   -2.83 KCAL/MOL
REMARK 922        TOTAL FREE ENERGY PREDICTED BY IDOCK:   -3.57 KCAL/MOL
REMARK 923 INTER-LIGAND FREE ENERGY PREDICTED BY IDOCK:   -3.29 KCAL/MOL
REMARK 924 INTRA-LIGAND FREE ENERGY PREDICTED BY IDOCK:   -0.28 KCAL/MOL
REMARK 927      BINDING AFFINITY PREDICTED BY RF-SCORE:    0.00 PKD
ROOT
HETATM    1  C   UNL     1      -5.512  10.677  70.783  1.00  0.00    -0.100 C  
HETATM    2  N   UNL     1      -6.057  11.111  69.512  1.00  0.00    -0.069 NA 
HETATM    3  C   UNL     1      -6.397  12.534  69.457  1.00  0.00    -0.112 C  
HETATM    4  C   UNL     1      -7.697  13.062  68.802  1.00  0.00     0.004 C  
HETATM    5  O   UNL     1      -7.817  12.623  67.458  1.00  0.00    -0.152 OA 
HETATM    6  C   UNL     1      -8.852  11.668  67.162  1.00  0.00    -0.172 C  
HETATM    7  C   UNL     1      -6.859  10.117  68.813  1.00  0.00    -0.061 C  
HETATM    8  C   UNL     1      -9.272  10.799  68.351  1.00  0.00    -0.164 A  
HETATM    9  C   UNL     1      -8.333  10.101  69.146  1.00  0.00    -0.154 A  
HETATM   10  C   UNL     1     -10.625  10.809  68.753  1.00  0.00    -0.229 A  
HETATM   11  C   UNL     1      -8.770   9.442  70.308  1.00  0.00    -0.261 A  
HETATM   12  C   UNL     1     -11.035  10.167  69.921  1.00  0.00    -0.344 A  
HETATM   13  C   UNL     1     -10.108   9.484  70.699  1.00  0.00    -0.353 A  
ENDROOT
BRANCH   6  14
HETATM   14  C   UNL     1      -8.455  10.891  65.899  1.00  0.00    -0.158 A  
HETATM   15  C   UNL     1      -9.040   9.853  63.774  1.00  0.00    -0.293 A  
HETATM   16  C   UNL     1      -6.731   9.930  64.450  1.00  0.00    -0.125 A  
HETATM   17  C   UNL     1      -7.107  10.586  65.623  1.00  0.00    -0.119 A  
HETATM   18  C   UNL     1      -9.418  10.504  64.954  1.00  0.00    -0.304 A  
HETATM   19  C   UNL     1      -7.699   9.573  63.519  1.00  0.00    -0.123 A  
ENDBRANCH   6  14
TORSDOF 1
ENDMDL
MODEL      118
REMARK 921   NORMALIZED FREE ENERGY PREDICTED BY IDOCK:   -2.77 KCAL/MOL
REMARK 922        TOTAL FREE ENERGY PREDICTED BY IDOCK:   -3.50 KCAL/MOL
REMARK 923 INTER-LIGAND FREE ENERGY PREDICTED BY IDOCK:   -2.90 KCAL/MOL
REMARK 924 INTRA-LIGAND FREE ENERGY PREDICTED BY IDOCK:   -0.60 KCAL/MOL
REMARK 927      BINDING AFFINITY PREDICTED BY RF-SCORE:    0.00 PKD
ROOT
HETATM    1  C   UNL     1     -11.527   7.065  70.444  1.00  0.00    -0.310 C  
HETATM    2  N   UNL     1     -10.614   6.254  69.664  1.00  0.00    -0.234 NA 
HETATM    3  C   UNL     1      -9.323   6.007  70.313  1.00  0.00    -0.159 C  
HETATM    4  C   UNL     1      -7.976   6.072  69.553  1.00  0.00    -0.106 C  
HETATM    5  O   UNL     1      -7.971   5.208  68.428  1.00  0.00    -0.086 OA 
HETATM    6  C   UNL     1      -7.968   5.815  67.124  1.00  0.00    -0.102 C  
HETATM    7  C   UNL     1     -10.711   6.427  68.223  1.00  0.00    -0.285 C  
HETATM    8  C   UNL     1      -8.575   7.221  67.078  1.00  0.00    -0.122 A  
HETATM    9  C   UNL     1      -9.846   7.513  67.625  1.00  0.00    -0.203 A  
HETATM   10  C   UNL     1      -7.781   8.286  66.602  1.00  0.00    -0.093 A  
HETATM   11  C   UNL     1     -10.280   8.849  67.681  1.00  0.00    -0.296 A  
HETATM   12  C   UNL     1      -8.222   9.607  66.686  1.00  0.00    -0.120 A  
HETATM   13  C   UNL     1      -9.471   9.889  67.226  1.00  0.00    -0.181 A  
ENDROOT
BRANCH   6  14
HETATM   14  C   UNL     1      -8.561   4.820  66.117  1.00  0.00    -0.115 A  
HETATM   15  C   UNL     1      -9.512   2.637  65.600  1.00  0.00     0.060 A  
HETATM   16  C   UNL     1      -9.409   4.316  63.877  1.00  0.00    -0.138 A  
HETATM   17  C   UNL     1      -8.819   5.197  64.784  1.00  0.00    -0.100 A  
HETATM   18  C   UNL     1      -8.912   3.518  66.507  1.00  0.00    -0.154 A  
HETATM   19  C   UNL     1      -9.767   3.038  64.290  1.00  0.00    -0.154 A  
ENDBRANCH   6  14
TORSDOF 1
ENDMDL
MODEL      119
REMARK 921   NORMALIZED FREE ENERGY PREDICTED BY IDOCK:   -2.77 KCAL/MOL
REMARK 922        TOTAL FREE ENERGY PREDICTED BY IDOCK:   -3.50 KCAL/MOL
REMARK 923 INTER-LIGAND FREE ENERGY PREDICTED BY IDOCK:   -2.94 KCAL/MOL
REMARK 924 INTRA-LIGAND FREE ENERGY PREDICTED BY IDOCK:   -0.56 KCAL/MOL
REMARK 927      BINDING AFFINITY PREDICTED BY RF-SCORE:    0.00 PKD
ROOT
HETATM    1  C   UNL     1     -12.450  10.127  69.903  1.00  0.00     0.123 C  
HETATM    2  N   UNL     1     -11.234   9.690  69.247  1.00  0.00    -0.114 NA 
HETATM    3  C   UNL     1     -10.155   9.316  70.165  1.00  0.00    -0.213 C  
HETATM    4  C   UNL     1      -8.679   9.720  69.933  1.00  0.00    -0.217 C  
HETATM    5  O   UNL     1      -8.217   9.295  68.662  1.00  0.00    -0.110 OA 
HETATM    6  C   UNL     1      -7.948  10.312  67.679  1.00  0.00    -0.102 C  
HETATM    7  C   UNL     1     -10.950  10.340  67.976  1.00  0.00    -0.289 C  
HETATM    8  C   UNL     1      -8.740  11.608  67.875  1.00  0.00    -0.154 A  
HETATM    9  C   UNL     1     -10.143  11.616  68.049  1.00  0.00    -0.198 A  
HETATM   10  C   UNL     1      -8.031  12.819  68.027  1.00  0.00    -0.160 A  
HETATM   11  C   UNL     1     -10.790  12.823  68.370  1.00  0.00    -0.272 A  
HETATM   12  C   UNL     1      -8.689  14.000  68.367  1.00  0.00    -0.179 A  
HETATM   13  C   UNL     1     -10.068  14.003  68.539  1.00  0.00    -0.236 A  
ENDROOT
BRANCH   6  14
HETATM   14  C   UNL     1      -8.062   9.686  66.282  1.00  0.00    -0.112 A  
HETATM   15  C   UNL     1      -8.291   9.913  63.867  1.00  0.00    -0.172 A  
HETATM   16  C   UNL     1      -7.973   7.726  64.819  1.00  0.00    -0.142 A  
HETATM   17  C   UNL     1      -7.926   8.296  66.092  1.00  0.00    -0.100 A  
HETATM   18  C   UNL     1      -8.253  10.485  65.144  1.00  0.00    -0.134 A  
HETATM   19  C   UNL     1      -8.144   8.537  63.705  1.00  0.00    -0.154 A  
ENDBRANCH   6  14
TORSDOF 1
ENDMDL
MODEL      120
REMARK 921   NORMALIZED FREE ENERGY PREDICTED BY IDOCK:   -2.74 KCAL/MOL
REMARK 922        TOTAL FREE ENERGY PREDICTED BY IDOCK:   -3.47 KCAL/MOL
REMARK 923 INTER-LIGAND FREE ENERGY PREDICTED BY IDOCK:   -2.91 KCAL/MOL
REMARK 924 INTRA-LIGAND FREE ENERGY PREDICTED BY IDOCK:   -0.56 KCAL/MOL
REMARK 927      BINDING AFFINITY PREDICTED BY RF-SCORE:    0.00 PKD
ROOT
HETATM    1  C   UNL     1      -9.616   4.110  65.773  1.00  0.00    -0.190 C  
HETATM    2  N   UNL     1      -9.029   5.422  65.958  1.00  0.00    -0.143 NA 
HETATM    3  C   UNL     1      -7.633   5.401  66.400  1.00  0.00    -0.088 C  
HETATM    4  C   UNL     1      -7.083   6.350  67.492  1.00  0.00    -0.080 C  
HETATM    5  O   UNL     1      -7.325   7.709  67.169  1.00  0.00    -0.087 OA 
HETATM    6  C   UNL     1      -8.279   8.424  67.975  1.00  0.00    -0.127 C  
HETATM    7  C   UNL     1      -9.949   6.450  66.420  1.00  0.00    -0.036 C  
HETATM    8  C   UNL     1      -9.334   7.537  68.643  1.00  0.00    -0.143 A  
HETATM    9  C   UNL     1     -10.091   6.588  67.918  1.00  0.00    -0.170 A  
HETATM   10  C   UNL     1      -9.455   7.570  70.049  1.00  0.00    -0.161 A  
HETATM   11  C   UNL     1     -10.936   5.706  68.615  1.00  0.00    -0.076 A  
HETATM   12  C   UNL     1     -10.282   6.673  70.722  1.00  0.00    -0.221 A  
HETATM   13  C   UNL     1     -11.023   5.740  70.006  1.00  0.00    -0.382 A  
ENDROOT
BRANCH   6  14
HETATM   14  C   UNL     1      -8.839   9.592  67.152  1.00  0.00    -0.141 A  
HETATM   15  C   UNL     1     -10.526  11.311  66.782  1.00  0.00    -0.291 A  
HETATM   16  C   UNL     1      -8.603  11.218  65.337  1.00  0.00     0.066 A  
HETATM   17  C   UNL     1      -8.128  10.120  66.056  1.00  0.00    -0.129 A  
HETATM   18  C   UNL     1     -10.054  10.205  67.498  1.00  0.00    -0.244 A  
HETATM   19  C   UNL     1      -9.798  11.821  65.709  1.00  0.00    -0.267 A  
ENDBRANCH   6  14
TORSDOF 1
ENDMDL
MODEL      121
REMARK 921   NORMALIZED FREE ENERGY PREDICTED BY IDOCK:   -2.73 KCAL/MOL
REMARK 922        TOTAL FREE ENERGY PREDICTED BY IDOCK:   -3.46 KCAL/MOL
REMARK 923 INTER-LIGAND FREE ENERGY PREDICTED BY IDOCK:   -2.90 KCAL/MOL
REMARK 924 INTRA-LIGAND FREE ENERGY PREDICTED BY IDOCK:   -0.57 KCAL/MOL
REMARK 927      BINDING AFFINITY PREDICTED BY RF-SCORE:    0.00 PKD
ROOT
HETATM    1  C   UNL     1      -7.732  10.344  69.870  1.00  0.00    -0.069 C  
HETATM    2  N   UNL     1      -7.938   9.338  68.848  1.00  0.00    -0.097 NA 
HETATM    3  C   UNL     1      -8.757   9.785  67.719  1.00  0.00    -0.129 C  
HETATM    4  C   UNL     1      -9.855   8.902  67.077  1.00  0.00    -0.214 C  
HETATM    5  O   UNL     1      -9.337   7.651  66.657  1.00  0.00    -0.171 OA 
HETATM    6  C   UNL     1      -9.760   6.480  67.379  1.00  0.00    -0.126 C  
HETATM    7  C   UNL     1      -8.011   7.969  69.335  1.00  0.00    -0.116 C  
HETATM    8  C   UNL     1     -10.190   6.749  68.825  1.00  0.00    -0.184 A  
HETATM    9  C   UNL     1      -9.384   7.477  69.730  1.00  0.00    -0.150 A  
HETATM   10  C   UNL     1     -11.493   6.379  69.223  1.00  0.00    -0.318 A  
HETATM   11  C   UNL     1      -9.900   7.813  70.993  1.00  0.00    -0.186 A  
HETATM   12  C   UNL     1     -11.993   6.741  70.473  1.00  0.00    -0.385 A  
HETATM   13  C   UNL     1     -11.198   7.458  71.359  1.00  0.00    -0.272 A  
ENDROOT
BRANCH   6  14
HETATM   14  C   UNL     1      -8.695   5.388  67.212  1.00  0.00    -0.107 A  
HETATM   15  C   UNL     1      -7.698   3.272  67.894  1.00  0.00    -0.064 A  
HETATM   16  C   UNL     1      -6.845   4.401  65.947  1.00  0.00    -0.058 A  
HETATM   17  C   UNL     1      -7.780   5.419  66.139  1.00  0.00    -0.092 A  
HETATM   18  C   UNL     1      -8.631   4.297  68.091  1.00  0.00    -0.107 A  
HETATM   19  C   UNL     1      -6.813   3.321  66.819  1.00  0.00    -0.053 A  
ENDBRANCH   6  14
TORSDOF 1
ENDMDL
MODEL      122
REMARK 921   NORMALIZED FREE ENERGY PREDICTED BY IDOCK:   -2.73 KCAL/MOL
REMARK 922        TOTAL FREE ENERGY PREDICTED BY IDOCK:   -3.46 KCAL/MOL
REMARK 923 INTER-LIGAND FREE ENERGY PREDICTED BY IDOCK:   -2.86 KCAL/MOL
REMARK 924 INTRA-LIGAND FREE ENERGY PREDICTED BY IDOCK:   -0.60 KCAL/MOL
REMARK 927      BINDING AFFINITY PREDICTED BY RF-SCORE:    0.00 PKD
ROOT
HETATM    1  C   UNL     1     -10.423   8.739  70.463  1.00  0.00    -0.209 C  
HETATM    2  N   UNL     1     -10.242   7.727  71.485  1.00  0.00    -0.181 NA 
HETATM    3  C   UNL     1      -9.698   8.236  72.747  1.00  0.00    -0.266 C  
HETATM    4  C   UNL     1      -8.602   7.493  73.549  1.00  0.00    -0.181 C  
HETATM    5  O   UNL     1      -8.989   6.162  73.848  1.00  0.00    -0.126 OA 
HETATM    6  C   UNL     1      -8.281   5.099  73.186  1.00  0.00    -0.108 C  
HETATM    7  C   UNL     1      -9.883   6.407  70.989  1.00  0.00    -0.180 C  
HETATM    8  C   UNL     1      -7.661   5.493  71.841  1.00  0.00    -0.104 A  
HETATM    9  C   UNL     1      -8.406   6.137  70.826  1.00  0.00    -0.126 A  
HETATM   10  C   UNL     1      -6.270   5.334  71.664  1.00  0.00    -0.030 A  
HETATM   11  C   UNL     1      -7.743   6.602  69.677  1.00  0.00    -0.107 A  
HETATM   12  C   UNL     1      -5.628   5.821  70.527  1.00  0.00    -0.013 A  
HETATM   13  C   UNL     1      -6.364   6.456  69.532  1.00  0.00    -0.035 A  
ENDROOT
BRANCH   6  14
HETATM   14  C   UNL     1      -9.182   3.858  73.146  1.00  0.00    -0.121 A  
HETATM   15  C   UNL     1     -11.276   2.737  73.693  1.00  0.00    -0.311 A  
HETATM   16  C   UNL     1      -9.649   1.596  72.334  1.00  0.00    -0.148 A  
HETATM   17  C   UNL     1      -8.810   2.708  72.422  1.00  0.00    -0.100 A  
HETATM   18  C   UNL     1     -10.431   3.849  73.788  1.00  0.00    -0.268 A  
HETATM   19  C   UNL     1     -10.888   1.616  72.961  1.00  0.00    -0.246 A  
ENDBRANCH   6  14
TORSDOF 1
ENDMDL
MODEL      123
REMARK 921   NORMALIZED FREE ENERGY PREDICTED BY IDOCK:   -2.70 KCAL/MOL
REMARK 922        TOTAL FREE ENERGY PREDICTED BY IDOCK:   -3.43 KCAL/MOL
REMARK 923 INTER-LIGAND FREE ENERGY PREDICTED BY IDOCK:   -2.99 KCAL/MOL
REMARK 924 INTRA-LIGAND FREE ENERGY PREDICTED BY IDOCK:   -0.44 KCAL/MOL
REMARK 927      BINDING AFFINITY PREDICTED BY RF-SCORE:    0.00 PKD
ROOT
HETATM    1  C   UNL     1      -7.588   6.374  73.600  1.00  0.00    -0.089 C  
HETATM    2  N   UNL     1      -8.013   7.473  72.757  1.00  0.00    -0.099 NA 
HETATM    3  C   UNL     1      -9.299   8.062  73.139  1.00  0.00    -0.277 C  
HETATM    4  C   UNL     1     -10.380   8.460  72.105  1.00  0.00    -0.327 C  
HETATM    5  O   UNL     1      -9.864   9.352  71.130  1.00  0.00    -0.282 OA 
HETATM    6  C   UNL     1      -9.718   8.857  69.787  1.00  0.00    -0.175 C  
HETATM    7  C   UNL     1      -7.619   7.368  71.360  1.00  0.00    -0.082 C  
HETATM    8  C   UNL     1      -9.542   7.339  69.687  1.00  0.00    -0.155 A  
HETATM    9  C   UNL     1      -8.581   6.638  70.452  1.00  0.00    -0.143 A  
HETATM   10  C   UNL     1     -10.463   6.599  68.914  1.00  0.00    -0.239 A  
HETATM   11  C   UNL     1      -8.570   5.232  70.422  1.00  0.00    -0.120 A  
HETATM   12  C   UNL     1     -10.449   5.205  68.915  1.00  0.00    -0.131 A  
HETATM   13  C   UNL     1      -9.503   4.521  69.669  1.00  0.00    -0.244 A  
ENDROOT
BRANCH   6  14
HETATM   14  C   UNL     1      -8.641   9.683  69.073  1.00  0.00    -0.133 A  
HETATM   15  C   UNL     1      -6.645  11.079  69.141  1.00  0.00    -0.077 A  
HETATM   16  C   UNL     1      -7.556  10.430  67.009  1.00  0.00    -0.101 A  
HETATM   17  C   UNL     1      -8.566   9.726  67.666  1.00  0.00    -0.125 A  
HETATM   18  C   UNL     1      -7.663  10.381  69.800  1.00  0.00    -0.126 A  
HETATM   19  C   UNL     1      -6.587  11.097  67.749  1.00  0.00    -0.064 A  
ENDBRANCH   6  14
TORSDOF 1
ENDMDL
MODEL      124
REMARK 921   NORMALIZED FREE ENERGY PREDICTED BY IDOCK:   -2.61 KCAL/MOL
REMARK 922        TOTAL FREE ENERGY PREDICTED BY IDOCK:   -3.32 KCAL/MOL
REMARK 923 INTER-LIGAND FREE ENERGY PREDICTED BY IDOCK:   -2.74 KCAL/MOL
REMARK 924 INTRA-LIGAND FREE ENERGY PREDICTED BY IDOCK:   -0.59 KCAL/MOL
REMARK 927      BINDING AFFINITY PREDICTED BY RF-SCORE:    0.00 PKD
ROOT
HETATM    1  C   UNL     1     -10.097  10.372  68.872  1.00  0.00    -0.201 C  
HETATM    2  N   UNL     1      -9.719   9.062  68.383  1.00  0.00    -0.153 NA 
HETATM    3  C   UNL     1     -10.766   8.379  67.620  1.00  0.00    -0.121 C  
HETATM    4  C   UNL     1     -11.082   6.873  67.791  1.00  0.00    -0.146 C  
HETATM    5  O   UNL     1      -9.928   6.073  67.592  1.00  0.00    -0.120 OA 
HETATM    6  C   UNL     1      -9.379   5.401  68.740  1.00  0.00    -0.128 C  
HETATM    7  C   UNL     1      -8.809   8.321  69.244  1.00  0.00    -0.143 C  
HETATM    8  C   UNL     1      -9.689   6.078  70.078  1.00  0.00    -0.202 A  
HETATM    9  C   UNL     1      -9.453   7.454  70.301  1.00  0.00    -0.165 A  
HETATM   10  C   UNL     1     -10.361   5.336  71.073  1.00  0.00    -0.298 A  
HETATM   11  C   UNL     1      -9.895   8.043  71.499  1.00  0.00    -0.217 A  
HETATM   12  C   UNL     1     -10.810   5.943  72.245  1.00  0.00    -0.292 A  
HETATM   13  C   UNL     1     -10.578   7.297  72.459  1.00  0.00    -0.285 A  
ENDROOT
BRANCH   6  14
HETATM   14  C   UNL     1      -7.892   5.124  68.481  1.00  0.00    -0.079 A  
HETATM   15  C   UNL     1      -5.731   4.276  69.221  1.00  0.00    -0.017 A  
HETATM   16  C   UNL     1      -5.979   5.051  66.955  1.00  0.00    -0.026 A  
HETATM   17  C   UNL     1      -7.316   5.353  67.215  1.00  0.00    -0.083 A  
HETATM   18  C   UNL     1      -7.070   4.586  69.484  1.00  0.00    -0.050 A  
HETATM   19  C   UNL     1      -5.189   4.501  67.957  1.00  0.00    -0.011 A  
ENDBRANCH   6  14
TORSDOF 1
ENDMDL
MODEL      125
REMARK 921   NORMALIZED FREE ENERGY PREDICTED BY IDOCK:   -2.58 KCAL/MOL
REMARK 922        TOTAL FREE ENERGY PREDICTED BY IDOCK:   -3.29 KCAL/MOL
REMARK 923 INTER-LIGAND FREE ENERGY PREDICTED BY IDOCK:   -2.75 KCAL/MOL
REMARK 924 INTRA-LIGAND FREE ENERGY PREDICTED BY IDOCK:   -0.55 KCAL/MOL
REMARK 927      BINDING AFFINITY PREDICTED BY RF-SCORE:    0.00 PKD
ROOT
HETATM    1  C   UNL     1      -7.220   8.331  71.417  1.00  0.00    -0.080 C  
HETATM    2  N   UNL     1      -7.458   8.907  70.110  1.00  0.00    -0.058 NA 
HETATM    3  C   UNL     1      -8.470   9.966  70.093  1.00  0.00    -0.111 C  
HETATM    4  C   UNL     1      -9.547  10.080  68.987  1.00  0.00    -0.196 C  
HETATM    5  O   UNL     1      -8.962  10.138  67.696  1.00  0.00    -0.131 OA 
HETATM    6  C   UNL     1      -9.153   9.005  66.829  1.00  0.00    -0.145 C  
HETATM    7  C   UNL     1      -7.316   7.984  68.993  1.00  0.00    -0.084 C  
HETATM    8  C   UNL     1      -9.403   7.683  67.561  1.00  0.00    -0.159 A  
HETATM    9  C   UNL     1      -8.560   7.223  68.599  1.00  0.00    -0.128 A  
HETATM   10  C   UNL     1     -10.590   6.971  67.286  1.00  0.00    -0.395 A  
HETATM   11  C   UNL     1      -8.928   6.077  69.326  1.00  0.00    -0.122 A  
HETATM   12  C   UNL     1     -10.947   5.849  68.033  1.00  0.00    -0.252 A  
HETATM   13  C   UNL     1     -10.116   5.402  69.054  1.00  0.00    -0.283 A  
ENDROOT
BRANCH   6  14
HETATM   14  C   UNL     1      -8.012   8.974  65.804  1.00  0.00    -0.103 A  
HETATM   15  C   UNL     1      -7.040   8.131  63.734  1.00  0.00    -0.078 A  
HETATM   16  C   UNL     1      -5.897   9.866  64.951  1.00  0.00    -0.094 A  
HETATM   17  C   UNL     1      -6.912   9.849  65.909  1.00  0.00    -0.106 A  
HETATM   18  C   UNL     1      -8.053   8.108  64.699  1.00  0.00    -0.148 A  
HETATM   19  C   UNL     1      -5.968   9.013  63.856  1.00  0.00    -0.072 A  
ENDBRANCH   6  14
TORSDOF 1
ENDMDL
MODEL      126
REMARK 921   NORMALIZED FREE ENERGY PREDICTED BY IDOCK:   -2.54 KCAL/MOL
REMARK 922        TOTAL FREE ENERGY PREDICTED BY IDOCK:   -3.26 KCAL/MOL
REMARK 923 INTER-LIGAND FREE ENERGY PREDICTED BY IDOCK:   -2.65 KCAL/MOL
REMARK 924 INTRA-LIGAND FREE ENERGY PREDICTED BY IDOCK:   -0.60 KCAL/MOL
REMARK 927      BINDING AFFINITY PREDICTED BY RF-SCORE:    0.00 PKD
ROOT
HETATM    1  C   UNL     1     -11.595   7.071  69.665  1.00  0.00    -0.006 C  
HETATM    2  N   UNL     1     -10.371   7.496  69.016  1.00  0.00    -0.209 NA 
HETATM    3  C   UNL     1      -9.225   7.628  69.919  1.00  0.00    -0.147 C  
HETATM    4  C   UNL     1      -8.230   8.811  69.845  1.00  0.00    -0.118 C  
HETATM    5  O   UNL     1      -7.668   8.938  68.549  1.00  0.00    -0.095 OA 
HETATM    6  C   UNL     1      -8.051  10.085  67.769  1.00  0.00    -0.109 C  
HETATM    7  C   UNL     1     -10.552   8.403  67.892  1.00  0.00    -0.154 C  
HETATM    8  C   UNL     1      -9.417  10.673  68.134  1.00  0.00    -0.158 A  
HETATM    9  C   UNL     1     -10.582   9.876  68.226  1.00  0.00    -0.269 A  
HETATM   10  C   UNL     1      -9.489  12.026  68.530  1.00  0.00    -0.136 A  
HETATM   11  C   UNL     1     -11.771  10.450  68.708  1.00  0.00    -0.108 A  
HETATM   12  C   UNL     1     -10.673  12.570  69.025  1.00  0.00    -0.139 A  
HETATM   13  C   UNL     1     -11.815  11.783  69.115  1.00  0.00    -0.389 A  
ENDROOT
BRANCH   6  14
HETATM   14  C   UNL     1      -7.864   9.753  66.283  1.00  0.00    -0.106 A  
HETATM   15  C   UNL     1      -7.228   8.196  64.519  1.00  0.00    -0.084 A  
HETATM   16  C   UNL     1      -8.153  10.337  63.922  1.00  0.00    -0.138 A  
HETATM   17  C   UNL     1      -8.267  10.654  65.277  1.00  0.00    -0.105 A  
HETATM   18  C   UNL     1      -7.334   8.518  65.877  1.00  0.00    -0.077 A  
HETATM   19  C   UNL     1      -7.643   9.101  63.544  1.00  0.00    -0.109 A  
ENDBRANCH   6  14
TORSDOF 1
ENDMDL
MODEL      127
REMARK 921   NORMALIZED FREE ENERGY PREDICTED BY IDOCK:   -2.38 KCAL/MOL
REMARK 922        TOTAL FREE ENERGY PREDICTED BY IDOCK:   -3.09 KCAL/MOL
REMARK 923 INTER-LIGAND FREE ENERGY PREDICTED BY IDOCK:   -2.57 KCAL/MOL
REMARK 924 INTRA-LIGAND FREE ENERGY PREDICTED BY IDOCK:   -0.51 KCAL/MOL
REMARK 927      BINDING AFFINITY PREDICTED BY RF-SCORE:    0.00 PKD
ROOT
HETATM    1  C   UNL     1      -5.128  10.055  66.649  1.00  0.00    -0.040 C  
HETATM    2  N   UNL     1      -6.005  10.938  67.391  1.00  0.00    -0.045 NA 
HETATM    3  C   UNL     1      -6.013  10.703  68.837  1.00  0.00    -0.040 C  
HETATM    4  C   UNL     1      -7.310  10.709  69.681  1.00  0.00    -0.130 C  
HETATM    5  O   UNL     1      -8.030  11.920  69.521  1.00  0.00     0.426 OA 
HETATM    6  C   UNL     1      -9.285  11.860  68.819  1.00  0.00     0.034 C  
HETATM    7  C   UNL     1      -7.214  11.341  66.687  1.00  0.00    -0.126 C  
HETATM    8  C   UNL     1      -9.401  10.698  67.828  1.00  0.00    -0.154 A  
HETATM    9  C   UNL     1      -8.412  10.435  66.852  1.00  0.00    -0.124 A  
HETATM   10  C   UNL     1     -10.458   9.776  67.986  1.00  0.00    -0.271 A  
HETATM   11  C   UNL     1      -8.507   9.269  66.073  1.00  0.00    -0.144 A  
HETATM   12  C   UNL     1     -10.523   8.615  67.217  1.00  0.00    -0.360 A  
HETATM   13  C   UNL     1      -9.547   8.360  66.261  1.00  0.00    -0.286 A  
ENDROOT
BRANCH   6  14
HETATM   14  C   UNL     1      -9.586  13.245  68.232  1.00  0.00    -0.221 A  
HETATM   15  C   UNL     1     -10.672  14.655  66.567  1.00  0.00    -0.312 A  
HETATM   16  C   UNL     1      -9.469  15.686  68.380  1.00  0.00    -0.196 A  
HETATM   17  C   UNL     1      -9.152  14.421  68.877  1.00  0.00    -0.069 A  
HETATM   18  C   UNL     1     -10.347  13.386  67.061  1.00  0.00    -0.247 A  
HETATM   19  C   UNL     1     -10.240  15.802  67.230  1.00  0.00    -0.268 A  
ENDBRANCH   6  14
TORSDOF 1
ENDMDL
MODEL      128
REMARK 921   NORMALIZED FREE ENERGY PREDICTED BY IDOCK:   -2.38 KCAL/MOL
REMARK 922        TOTAL FREE ENERGY PREDICTED BY IDOCK:   -3.08 KCAL/MOL
REMARK 923 INTER-LIGAND FREE ENERGY PREDICTED BY IDOCK:   -2.49 KCAL/MOL
REMARK 924 INTRA-LIGAND FREE ENERGY PREDICTED BY IDOCK:   -0.60 KCAL/MOL
REMARK 927      BINDING AFFINITY PREDICTED BY RF-SCORE:    0.00 PKD
ROOT
HETATM    1  C   UNL     1      -9.456   8.131  70.614  1.00  0.00    -0.162 C  
HETATM    2  N   UNL     1      -9.369   7.755  69.218  1.00  0.00    -0.149 NA 
HETATM    3  C   UNL     1     -10.661   7.686  68.530  1.00  0.00    -0.124 C  
HETATM    4  C   UNL     1     -11.029   6.550  67.547  1.00  0.00    -0.359 C  
HETATM    5  O   UNL     1     -10.074   6.433  66.505  1.00  0.00    -0.162 OA 
HETATM    6  C   UNL     1      -9.240   5.261  66.496  1.00  0.00    -0.139 C  
HETATM    7  C   UNL     1      -8.294   6.828  68.895  1.00  0.00    -0.121 C  
HETATM    8  C   UNL     1      -9.040   4.615  67.871  1.00  0.00    -0.140 A  
HETATM    9  C   UNL     1      -8.631   5.358  69.002  1.00  0.00    -0.102 A  
HETATM   10  C   UNL     1      -9.412   3.265  68.045  1.00  0.00    -0.217 A  
HETATM   11  C   UNL     1      -8.608   4.736  70.262  1.00  0.00    -0.110 A  
HETATM   12  C   UNL     1      -9.403   2.673  69.307  1.00  0.00    -0.188 A  
HETATM   13  C   UNL     1      -9.001   3.408  70.417  1.00  0.00    -0.167 A  
ENDROOT
BRANCH   6  14
HETATM   14  C   UNL     1      -7.946   5.584  65.737  1.00  0.00    -0.108 A  
HETATM   15  C   UNL     1      -6.502   7.173  64.585  1.00  0.00    -0.037 A  
HETATM   16  C   UNL     1      -5.727   4.922  64.941  1.00  0.00    -0.014 A  
HETATM   17  C   UNL     1      -6.930   4.619  65.581  1.00  0.00    -0.063 A  
HETATM   18  C   UNL     1      -7.711   6.868  65.219  1.00  0.00    -0.110 A  
HETATM   19  C   UNL     1      -5.509   6.204  64.453  1.00  0.00    -0.018 A  
ENDBRANCH   6  14
TORSDOF 1
ENDMDL
MODEL      129
REMARK 921   NORMALIZED FREE ENERGY PREDICTED BY IDOCK:   -2.37 KCAL/MOL
REMARK 922        TOTAL FREE ENERGY PREDICTED BY IDOCK:   -3.08 KCAL/MOL
REMARK 923 INTER-LIGAND FREE ENERGY PREDICTED BY IDOCK:   -2.53 KCAL/MOL
REMARK 924 INTRA-LIGAND FREE ENERGY PREDICTED BY IDOCK:   -0.55 KCAL/MOL
REMARK 927      BINDING AFFINITY PREDICTED BY RF-SCORE:    0.00 PKD
ROOT
HETATM    1  C   UNL     1      -8.609   4.483  69.950  1.00  0.00    -0.069 C  
HETATM    2  N   UNL     1      -9.046   5.693  69.285  1.00  0.00    -0.113 NA 
HETATM    3  C   UNL     1     -10.415   5.633  68.764  1.00  0.00    -0.219 C  
HETATM    4  C   UNL     1     -10.809   6.188  67.374  1.00  0.00    -0.343 C  
HETATM    5  O   UNL     1     -10.444   7.551  67.235  1.00  0.00    -0.262 OA 
HETATM    6  C   UNL     1      -9.383   7.864  66.314  1.00  0.00    -0.164 C  
HETATM    7  C   UNL     1      -8.004   6.420  68.576  1.00  0.00    -0.106 C  
HETATM    8  C   UNL     1      -8.394   6.718  66.075  1.00  0.00    -0.134 A  
HETATM    9  C   UNL     1      -7.776   6.020  67.137  1.00  0.00    -0.101 A  
HETATM   10  C   UNL     1      -8.203   6.253  64.756  1.00  0.00    -0.100 A  
HETATM   11  C   UNL     1      -6.994   4.887  66.852  1.00  0.00    -0.064 A  
HETATM   12  C   UNL     1      -7.442   5.115  64.497  1.00  0.00    -0.072 A  
HETATM   13  C   UNL     1      -6.837   4.431  65.544  1.00  0.00    -0.057 A  
ENDROOT
BRANCH   6  14
HETATM   14  C   UNL     1      -8.745   9.194  66.735  1.00  0.00    -0.138 A  
HETATM   15  C   UNL     1      -8.414  10.966  68.375  1.00  0.00    -0.141 A  
HETATM   16  C   UNL     1      -7.168  11.020  66.316  1.00  0.00    -0.095 A  
HETATM   17  C   UNL     1      -7.795   9.838  65.917  1.00  0.00    -0.108 A  
HETATM   18  C   UNL     1      -9.049   9.785  67.971  1.00  0.00    -0.127 A  
HETATM   19  C   UNL     1      -7.470  11.577  67.552  1.00  0.00    -0.116 A  
ENDBRANCH   6  14
TORSDOF 1
ENDMDL
MODEL      130
REMARK 921   NORMALIZED FREE ENERGY PREDICTED BY IDOCK:   -2.36 KCAL/MOL
REMARK 922        TOTAL FREE ENERGY PREDICTED BY IDOCK:   -3.06 KCAL/MOL
REMARK 923 INTER-LIGAND FREE ENERGY PREDICTED BY IDOCK:   -2.71 KCAL/MOL
REMARK 924 INTRA-LIGAND FREE ENERGY PREDICTED BY IDOCK:   -0.36 KCAL/MOL
REMARK 927      BINDING AFFINITY PREDICTED BY RF-SCORE:    0.00 PKD
ROOT
HETATM    1  C   UNL     1     -10.545  19.177  67.544  1.00  0.00    -0.471 C  
HETATM    2  N   UNL     1      -9.411  18.638  68.266  1.00  0.00    -0.316 NA 
HETATM    3  C   UNL     1      -8.867  19.534  69.290  1.00  0.00     0.041 C  
HETATM    4  C   UNL     1      -7.348  19.738  69.506  1.00  0.00    -0.095 C  
HETATM    5  O   UNL     1      -6.685  18.505  69.735  1.00  0.00    -0.120 OA 
HETATM    6  C   UNL     1      -5.794  18.029  68.710  1.00  0.00    -0.193 C  
HETATM    7  C   UNL     1      -8.541  17.768  67.489  1.00  0.00    -0.228 C  
HETATM    8  C   UNL     1      -6.118  18.540  67.302  1.00  0.00    -0.172 A  
HETATM    9  C   UNL     1      -7.415  18.448  66.745  1.00  0.00    -0.240 A  
HETATM   10  C   UNL     1      -5.125  19.251  66.595  1.00  0.00    -0.157 A  
HETATM   11  C   UNL     1      -7.678  19.067  65.511  1.00  0.00     0.269 A  
HETATM   12  C   UNL     1      -5.413  19.876  65.382  1.00  0.00    -0.189 A  
HETATM   13  C   UNL     1      -6.689  19.784  64.839  1.00  0.00    -0.153 A  
ENDROOT
BRANCH   6  14
HETATM   14  C   UNL     1      -5.672  16.505  68.834  1.00  0.00    -0.132 A  
HETATM   15  C   UNL     1      -5.514  14.493  70.199  1.00  0.00    -0.111 A  
HETATM   16  C   UNL     1      -5.667  14.283  67.806  1.00  0.00    -0.069 A  
HETATM   17  C   UNL     1      -5.721  15.673  67.697  1.00  0.00    -0.133 A  
HETATM   18  C   UNL     1      -5.560  15.887  70.090  1.00  0.00    -0.162 A  
HETATM   19  C   UNL     1      -5.575  13.692  69.060  1.00  0.00    -0.074 A  
ENDBRANCH   6  14
TORSDOF 1
ENDMDL
MODEL      131
REMARK 921   NORMALIZED FREE ENERGY PREDICTED BY IDOCK:   -2.34 KCAL/MOL
REMARK 922        TOTAL FREE ENERGY PREDICTED BY IDOCK:   -3.04 KCAL/MOL
REMARK 923 INTER-LIGAND FREE ENERGY PREDICTED BY IDOCK:   -2.49 KCAL/MOL
REMARK 924 INTRA-LIGAND FREE ENERGY PREDICTED BY IDOCK:   -0.55 KCAL/MOL
REMARK 927      BINDING AFFINITY PREDICTED BY RF-SCORE:    0.00 PKD
ROOT
HETATM    1  C   UNL     1     -11.256  10.668  68.525  1.00  0.00    -0.282 C  
HETATM    2  N   UNL     1     -10.304   9.765  67.912  1.00  0.00    -0.198 NA 
HETATM    3  C   UNL     1      -9.606   8.892  68.860  1.00  0.00    -0.160 C  
HETATM    4  C   UNL     1      -8.090   8.595  68.766  1.00  0.00    -0.116 C  
HETATM    5  O   UNL     1      -7.738   8.078  67.493  1.00  0.00    -0.102 OA 
HETATM    6  C   UNL     1      -6.944   8.915  66.632  1.00  0.00    -0.080 C  
HETATM    7  C   UNL     1      -9.631  10.285  66.731  1.00  0.00    -0.172 C  
HETATM    8  C   UNL     1      -7.091  10.416  66.899  1.00  0.00    -0.094 A  
HETATM    9  C   UNL     1      -8.352  11.050  66.980  1.00  0.00    -0.137 A  
HETATM   10  C   UNL     1      -5.935  11.164  67.213  1.00  0.00    -0.064 A  
HETATM   11  C   UNL     1      -8.420  12.399  67.371  1.00  0.00    -0.179 A  
HETATM   12  C   UNL     1      -6.026  12.494  67.620  1.00  0.00    -0.136 A  
HETATM   13  C   UNL     1      -7.269  13.112  67.699  1.00  0.00    -0.160 A  
ENDROOT
BRANCH   6  14
HETATM   14  C   UNL     1      -7.182   8.488  65.178  1.00  0.00    -0.080 A  
HETATM   15  C   UNL     1      -7.903   6.832  63.542  1.00  0.00    -0.110 A  
HETATM   16  C   UNL     1      -7.280   9.033  62.793  1.00  0.00    -0.094 A  
HETATM   17  C   UNL     1      -7.012   9.396  64.114  1.00  0.00    -0.099 A  
HETATM   18  C   UNL     1      -7.627   7.194  64.866  1.00  0.00    -0.103 A  
HETATM   19  C   UNL     1      -7.737   7.752  62.509  1.00  0.00    -0.124 A  
ENDBRANCH   6  14
TORSDOF 1
ENDMDL
MODEL      132
REMARK 921   NORMALIZED FREE ENERGY PREDICTED BY IDOCK:   -2.31 KCAL/MOL
REMARK 922        TOTAL FREE ENERGY PREDICTED BY IDOCK:   -3.01 KCAL/MOL
REMARK 923 INTER-LIGAND FREE ENERGY PREDICTED BY IDOCK:   -2.51 KCAL/MOL
REMARK 924 INTRA-LIGAND FREE ENERGY PREDICTED BY IDOCK:   -0.50 KCAL/MOL
REMARK 927      BINDING AFFINITY PREDICTED BY RF-SCORE:    0.00 PKD
ROOT
HETATM    1  C   UNL     1      -7.588   9.293  70.507  1.00  0.00    -0.139 C  
HETATM    2  N   UNL     1      -8.198   8.091  69.976  1.00  0.00    -0.116 NA 
HETATM    3  C   UNL     1      -9.640   8.201  69.738  1.00  0.00    -0.171 C  
HETATM    4  C   UNL     1     -10.639   7.076  70.101  1.00  0.00    -0.228 C  
HETATM    5  O   UNL     1     -10.280   5.846  69.494  1.00  0.00    -0.186 OA 
HETATM    6  C   UNL     1      -9.815   4.791  70.356  1.00  0.00    -0.239 C  
HETATM    7  C   UNL     1      -7.605   6.843  70.434  1.00  0.00    -0.088 C  
HETATM    8  C   UNL     1      -9.190   5.274  71.668  1.00  0.00    -0.170 A  
HETATM    9  C   UNL     1      -8.179   6.262  71.705  1.00  0.00    -0.118 A  
HETATM   10  C   UNL     1      -9.740   4.822  72.887  1.00  0.00    -0.167 A  
HETATM   11  C   UNL     1      -7.753   6.765  72.947  1.00  0.00    -0.094 A  
HETATM   12  C   UNL     1      -9.319   5.349  74.107  1.00  0.00    -0.134 A  
HETATM   13  C   UNL     1      -8.325   6.321  74.138  1.00  0.00    -0.117 A  
ENDROOT
BRANCH   6  14
HETATM   14  C   UNL     1      -8.939   3.836  69.534  1.00  0.00    -0.168 A  
HETATM   15  C   UNL     1      -7.574   3.366  67.571  1.00  0.00    -0.069 A  
HETATM   16  C   UNL     1      -7.740   1.712  69.313  1.00  0.00    -0.044 A  
HETATM   17  C   UNL     1      -8.582   2.565  70.029  1.00  0.00    -0.108 A  
HETATM   18  C   UNL     1      -8.424   4.218  68.285  1.00  0.00    -0.103 A  
HETATM   19  C   UNL     1      -7.227   2.119  68.088  1.00  0.00    -0.047 A  
ENDBRANCH   6  14
TORSDOF 1
ENDMDL
MODEL      133
REMARK 921   NORMALIZED FREE ENERGY PREDICTED BY IDOCK:   -2.15 KCAL/MOL
REMARK 922        TOTAL FREE ENERGY PREDICTED BY IDOCK:   -2.84 KCAL/MOL
REMARK 923 INTER-LIGAND FREE ENERGY PREDICTED BY IDOCK:   -2.26 KCAL/MOL
REMARK 924 INTRA-LIGAND FREE ENERGY PREDICTED BY IDOCK:   -0.58 KCAL/MOL
REMARK 927      BINDING AFFINITY PREDICTED BY RF-SCORE:    0.00 PKD
ROOT
HETATM    1  C   UNL     1     -10.865   5.698  67.472  1.00  0.00    -0.095 C  
HETATM    2  N   UNL     1     -10.325   6.574  68.493  1.00  0.00    -0.175 NA 
HETATM    3  C   UNL     1     -10.255   7.984  68.101  1.00  0.00    -0.207 C  
HETATM    4  C   UNL     1      -9.037   8.884  68.419  1.00  0.00    -0.137 C  
HETATM    5  O   UNL     1      -8.745   8.893  69.807  1.00  0.00    -0.129 OA 
HETATM    6  C   UNL     1      -7.532   8.248  70.235  1.00  0.00    -0.066 C  
HETATM    7  C   UNL     1      -9.306   5.977  69.342  1.00  0.00    -0.131 C  
HETATM    8  C   UNL     1      -7.038   7.141  69.299  1.00  0.00    -0.079 A  
HETATM    9  C   UNL     1      -7.881   6.097  68.853  1.00  0.00    -0.101 A  
HETATM   10  C   UNL     1      -5.741   7.246  68.751  1.00  0.00    -0.022 A  
HETATM   11  C   UNL     1      -7.408   5.198  67.881  1.00  0.00    -0.075 A  
HETATM   12  C   UNL     1      -5.299   6.357  67.773  1.00  0.00    -0.005 A  
HETATM   13  C   UNL     1      -6.131   5.333  67.337  1.00  0.00    -0.030 A  
ENDROOT
BRANCH   6  14
HETATM   14  C   UNL     1      -7.689   7.833  71.704  1.00  0.00    -0.091 A  
HETATM   15  C   UNL     1      -8.882   7.945  73.826  1.00  0.00    -0.332 A  
HETATM   16  C   UNL     1      -7.024   6.432  73.598  1.00  0.00    -0.082 A  
HETATM   17  C   UNL     1      -6.852   6.856  72.280  1.00  0.00    -0.062 A  
HETATM   18  C   UNL     1      -8.705   8.376  72.506  1.00  0.00    -0.277 A  
HETATM   19  C   UNL     1      -8.048   6.969  74.368  1.00  0.00    -0.163 A  
ENDBRANCH   6  14
TORSDOF 1
ENDMDL
MODEL      134
REMARK 921   NORMALIZED FREE ENERGY PREDICTED BY IDOCK:   -2.14 KCAL/MOL
REMARK 922        TOTAL FREE ENERGY PREDICTED BY IDOCK:   -2.83 KCAL/MOL
REMARK 923 INTER-LIGAND FREE ENERGY PREDICTED BY IDOCK:   -2.29 KCAL/MOL
REMARK 924 INTRA-LIGAND FREE ENERGY PREDICTED BY IDOCK:   -0.54 KCAL/MOL
REMARK 927      BINDING AFFINITY PREDICTED BY RF-SCORE:    0.00 PKD
ROOT
HETATM    1  C   UNL     1     -10.638   9.318  69.510  1.00  0.00    -0.224 C  
HETATM    2  N   UNL     1     -10.158   8.173  70.258  1.00  0.00    -0.190 NA 
HETATM    3  C   UNL     1      -9.605   8.502  71.574  1.00  0.00    -0.228 C  
HETATM    4  C   UNL     1      -8.309   7.860  72.124  1.00  0.00    -0.131 C  
HETATM    5  O   UNL     1      -8.391   6.444  72.125  1.00  0.00    -0.109 OA 
HETATM    6  C   UNL     1      -7.553   5.729  71.198  1.00  0.00    -0.099 C  
HETATM    7  C   UNL     1      -9.594   7.101  69.451  1.00  0.00    -0.153 C  
HETATM    8  C   UNL     1      -7.161   6.529  69.953  1.00  0.00    -0.077 A  
HETATM    9  C   UNL     1      -8.116   7.201  69.155  1.00  0.00    -0.121 A  
HETATM   10  C   UNL     1      -5.791   6.719  69.673  1.00  0.00    -0.015 A  
HETATM   11  C   UNL     1      -7.676   8.036  68.113  1.00  0.00    -0.118 A  
HETATM   12  C   UNL     1      -5.375   7.568  68.649  1.00  0.00    -0.022 A  
HETATM   13  C   UNL     1      -6.317   8.228  67.868  1.00  0.00    -0.053 A  
ENDROOT
BRANCH   6  14
HETATM   14  C   UNL     1      -8.188   4.361  70.917  1.00  0.00    -0.081 A  
HETATM   15  C   UNL     1      -8.448   2.390  69.508  1.00  0.00    -0.090 A  
HETATM   16  C   UNL     1      -9.559   2.466  71.642  1.00  0.00    -0.213 A  
HETATM   17  C   UNL     1      -9.023   3.735  71.865  1.00  0.00    -0.148 A  
HETATM   18  C   UNL     1      -7.916   3.666  69.728  1.00  0.00    -0.056 A  
HETATM   19  C   UNL     1      -9.261   1.789  70.466  1.00  0.00    -0.166 A  
ENDBRANCH   6  14
TORSDOF 1
ENDMDL
MODEL      135
REMARK 921   NORMALIZED FREE ENERGY PREDICTED BY IDOCK:   -2.00 KCAL/MOL
REMARK 922        TOTAL FREE ENERGY PREDICTED BY IDOCK:   -2.68 KCAL/MOL
REMARK 923 INTER-LIGAND FREE ENERGY PREDICTED BY IDOCK:   -2.08 KCAL/MOL
REMARK 924 INTRA-LIGAND FREE ENERGY PREDICTED BY IDOCK:   -0.60 KCAL/MOL
REMARK 927      BINDING AFFINITY PREDICTED BY RF-SCORE:    0.00 PKD
ROOT
HETATM    1  C   UNL     1      -8.586   9.341  71.546  1.00  0.00     0.264 C  
HETATM    2  N   UNL     1      -9.118   8.933  70.262  1.00  0.00    -0.167 NA 
HETATM    3  C   UNL     1     -10.427   8.279  70.332  1.00  0.00    -0.215 C  
HETATM    4  C   UNL     1     -10.783   7.023  69.501  1.00  0.00    -0.241 C  
HETATM    5  O   UNL     1     -10.577   7.241  68.115  1.00  0.00    -0.203 OA 
HETATM    6  C   UNL     1      -9.497   6.528  67.484  1.00  0.00    -0.125 C  
HETATM    7  C   UNL     1      -8.122   8.520  69.284  1.00  0.00    -0.113 C  
HETATM    8  C   UNL     1      -8.362   6.130  68.432  1.00  0.00    -0.114 A  
HETATM    9  C   UNL     1      -7.742   7.057  69.300  1.00  0.00    -0.109 A  
HETATM   10  C   UNL     1      -8.020   4.764  68.543  1.00  0.00    -0.084 A  
HETATM   11  C   UNL     1      -6.810   6.597  70.246  1.00  0.00    -0.058 A  
HETATM   12  C   UNL     1      -7.109   4.326  69.503  1.00  0.00    -0.050 A  
HETATM   13  C   UNL     1      -6.504   5.242  70.355  1.00  0.00    -0.031 A  
ENDROOT
BRANCH   6  14
HETATM   14  C   UNL     1      -9.058   7.306  66.237  1.00  0.00    -0.186 A  
HETATM   15  C   UNL     1      -9.238   9.245  64.771  1.00  0.00    -0.160 A  
HETATM   16  C   UNL     1      -7.534   7.600  64.343  1.00  0.00    -0.099 A  
HETATM   17  C   UNL     1      -7.976   6.868  65.446  1.00  0.00    -0.125 A  
HETATM   18  C   UNL     1      -9.687   8.508  65.873  1.00  0.00    -0.101 A  
HETATM   19  C   UNL     1      -8.159   8.796  64.013  1.00  0.00    -0.164 A  
ENDBRANCH   6  14
TORSDOF 1
ENDMDL
MODEL      136
REMARK 921   NORMALIZED FREE ENERGY PREDICTED BY IDOCK:   -1.70 KCAL/MOL
REMARK 922        TOTAL FREE ENERGY PREDICTED BY IDOCK:   -2.37 KCAL/MOL
REMARK 923 INTER-LIGAND FREE ENERGY PREDICTED BY IDOCK:   -1.98 KCAL/MOL
REMARK 924 INTRA-LIGAND FREE ENERGY PREDICTED BY IDOCK:   -0.39 KCAL/MOL
REMARK 927      BINDING AFFINITY PREDICTED BY RF-SCORE:    0.00 PKD
ROOT
HETATM    1  C   UNL     1     -10.777   6.473  73.333  1.00  0.00    -0.270 C  
HETATM    2  N   UNL     1      -9.580   6.016  72.657  1.00  0.00    -0.150 NA 
HETATM    3  C   UNL     1      -8.387   6.818  72.937  1.00  0.00    -0.116 C  
HETATM    4  C   UNL     1      -7.373   7.225  71.840  1.00  0.00    -0.080 C  
HETATM    5  O   UNL     1      -6.876   6.093  71.145  1.00  0.00    -0.062 OA 
HETATM    6  C   UNL     1      -7.275   5.928  69.772  1.00  0.00    -0.070 C  
HETATM    7  C   UNL     1      -9.800   5.426  71.345  1.00  0.00    -0.167 C  
HETATM    8  C   UNL     1      -8.609   6.592  69.416  1.00  0.00    -0.134 A  
HETATM    9  C   UNL     1      -9.783   6.383  70.176  1.00  0.00    -0.185 A  
HETATM   10  C   UNL     1      -8.632   7.552  68.382  1.00  0.00    -0.124 A  
HETATM   11  C   UNL     1     -10.934   7.134  69.883  1.00  0.00    -0.278 A  
HETATM   12  C   UNL     1      -9.779   8.302  68.122  1.00  0.00    -0.178 A  
HETATM   13  C   UNL     1     -10.930   8.094  68.872  1.00  0.00     0.118 A  
ENDROOT
BRANCH   6  14
HETATM   14  C   UNL     1      -7.171   4.442  69.406  1.00  0.00    -0.051 A  
HETATM   15  C   UNL     1      -6.054   2.284  69.586  1.00  0.00    -0.024 A  
HETATM   16  C   UNL     1      -8.111   2.445  68.346  1.00  0.00    -0.068 A  
HETATM   17  C   UNL     1      -8.168   3.809  68.636  1.00  0.00    -0.084 A  
HETATM   18  C   UNL     1      -6.107   3.653  69.870  1.00  0.00    -0.023 A  
HETATM   19  C   UNL     1      -7.058   1.680  68.831  1.00  0.00    -0.036 A  
ENDBRANCH   6  14
TORSDOF 1
ENDMDL
MODEL      137
REMARK 921   NORMALIZED FREE ENERGY PREDICTED BY IDOCK:   -1.54 KCAL/MOL
REMARK 922        TOTAL FREE ENERGY PREDICTED BY IDOCK:   -2.20 KCAL/MOL
REMARK 923 INTER-LIGAND FREE ENERGY PREDICTED BY IDOCK:   -2.50 KCAL/MOL
REMARK 924 INTRA-LIGAND FREE ENERGY PREDICTED BY IDOCK:    0.30 KCAL/MOL
REMARK 927      BINDING AFFINITY PREDICTED BY RF-SCORE:    0.00 PKD
ROOT
HETATM    1  C   UNL     1      -5.778   6.638  73.018  1.00  0.00    -0.042 C  
HETATM    2  N   UNL     1      -6.759   7.636  72.645  1.00  0.00    -0.061 NA 
HETATM    3  C   UNL     1      -7.527   8.176  73.770  1.00  0.00    -0.164 C  
HETATM    4  C   UNL     1      -9.053   8.423  73.703  1.00  0.00     0.077 C  
HETATM    5  O   UNL     1      -9.398   9.262  72.613  1.00  0.00     0.266 OA 
HETATM    6  C   UNL     1     -10.123   8.668  71.521  1.00  0.00    -0.274 C  
HETATM    7  C   UNL     1      -7.373   7.441  71.340  1.00  0.00    -0.079 C  
HETATM    8  C   UNL     1      -9.906   7.160  71.362  1.00  0.00    -0.178 A  
HETATM    9  C   UNL     1      -8.616   6.584  71.313  1.00  0.00    -0.127 A  
HETATM   10  C   UNL     1     -11.029   6.306  71.408  1.00  0.00    -0.327 A  
HETATM   11  C   UNL     1      -8.488   5.183  71.313  1.00  0.00    -0.124 A  
HETATM   12  C   UNL     1     -10.880   4.920  71.429  1.00  0.00     0.066 A  
HETATM   13  C   UNL     1      -9.609   4.358  71.382  1.00  0.00    -0.234 A  
ENDROOT
BRANCH   6  14
HETATM   14  C   UNL     1      -9.870   9.497  70.255  1.00  0.00    -0.313 A  
HETATM   15  C   UNL     1      -8.501  10.045  68.315  1.00  0.00    -0.111 A  
HETATM   16  C   UNL     1     -10.631  11.129  68.596  1.00  0.00    -0.222 A  
HETATM   17  C   UNL     1     -10.829  10.412  69.778  1.00  0.00    -0.342 A  
HETATM   18  C   UNL     1      -8.696   9.332  69.503  1.00  0.00    -0.146 A  
HETATM   19  C   UNL     1      -9.470  10.936  67.859  1.00  0.00    -0.166 A  
ENDBRANCH   6  14
TORSDOF 1
ENDMDL
MODEL      138
REMARK 921   NORMALIZED FREE ENERGY PREDICTED BY IDOCK:   -1.10 KCAL/MOL
REMARK 922        TOTAL FREE ENERGY PREDICTED BY IDOCK:   -1.73 KCAL/MOL
REMARK 923 INTER-LIGAND FREE ENERGY PREDICTED BY IDOCK:   -1.13 KCAL/MOL
REMARK 924 INTRA-LIGAND FREE ENERGY PREDICTED BY IDOCK:   -0.60 KCAL/MOL
REMARK 927      BINDING AFFINITY PREDICTED BY RF-SCORE:    0.00 PKD
ROOT
HETATM    1  C   UNL     1     -11.524   6.028  68.705  1.00  0.00     0.296 C  
HETATM    2  N   UNL     1     -10.237   6.221  69.342  1.00  0.00    -0.181 NA 
HETATM    3  C   UNL     1      -9.617   7.520  69.067  1.00  0.00    -0.153 C  
HETATM    4  C   UNL     1      -8.111   7.681  68.750  1.00  0.00    -0.127 C  
HETATM    5  O   UNL     1      -7.302   7.119  69.771  1.00  0.00    -0.080 OA 
HETATM    6  C   UNL     1      -6.556   5.931  69.449  1.00  0.00    -0.047 C  
HETATM    7  C   UNL     1      -9.431   5.017  69.482  1.00  0.00    -0.143 C  
HETATM    8  C   UNL     1      -7.162   5.089  68.323  1.00  0.00    -0.063 A  
HETATM    9  C   UNL     1      -8.518   4.691  68.322  1.00  0.00    -0.101 A  
HETATM   10  C   UNL     1      -6.377   4.821  67.180  1.00  0.00    -0.040 A  
HETATM   11  C   UNL     1      -9.046   4.045  67.190  1.00  0.00    -0.166 A  
HETATM   12  C   UNL     1      -6.925   4.199  66.059  1.00  0.00    -0.066 A  
HETATM   13  C   UNL     1      -8.259   3.811  66.063  1.00  0.00    -0.101 A  
ENDROOT
BRANCH   6  14
HETATM   14  C   UNL     1      -6.267   5.166  70.748  1.00  0.00    -0.023 A  
HETATM   15  C   UNL     1      -6.339   5.006  73.178  1.00  0.00    -0.051 A  
HETATM   16  C   UNL     1      -5.549   3.127  71.897  1.00  0.00    -0.008 A  
HETATM   17  C   UNL     1      -5.762   3.850  70.723  1.00  0.00    -0.013 A  
HETATM   18  C   UNL     1      -6.545   5.734  72.001  1.00  0.00    -0.058 A  
HETATM   19  C   UNL     1      -5.849   3.702  73.125  1.00  0.00    -0.004 A  
ENDBRANCH   6  14
TORSDOF 1
ENDMDL
MODEL      139
REMARK 921   NORMALIZED FREE ENERGY PREDICTED BY IDOCK:   -0.66 KCAL/MOL
REMARK 922        TOTAL FREE ENERGY PREDICTED BY IDOCK:   -1.27 KCAL/MOL
REMARK 923 INTER-LIGAND FREE ENERGY PREDICTED BY IDOCK:   -1.56 KCAL/MOL
REMARK 924 INTRA-LIGAND FREE ENERGY PREDICTED BY IDOCK:    0.29 KCAL/MOL
REMARK 927      BINDING AFFINITY PREDICTED BY RF-SCORE:    0.00 PKD
ROOT
HETATM    1  C   UNL     1      -5.944  17.526  65.796  1.00  0.00     0.036 C  
HETATM    2  N   UNL     1      -6.938  17.415  66.844  1.00  0.00    -0.174 NA 
HETATM    3  C   UNL     1      -6.632  18.189  68.049  1.00  0.00    -0.194 C  
HETATM    4  C   UNL     1      -6.842  17.635  69.479  1.00  0.00    -0.051 C  
HETATM    5  O   UNL     1      -8.176  17.197  69.676  1.00  0.00     0.380 OA 
HETATM    6  C   UNL     1      -8.397  15.782  69.819  1.00  0.00     0.139 C  
HETATM    7  C   UNL     1      -7.604  16.124  66.928  1.00  0.00    -0.240 C  
HETATM    8  C   UNL     1      -7.334  14.905  69.151  1.00  0.00    -0.158 A  
HETATM    9  C   UNL     1      -6.938  15.089  67.806  1.00  0.00    -0.193 A  
HETATM   10  C   UNL     1      -6.626  13.976  69.944  1.00  0.00    -0.057 A  
HETATM   11  C   UNL     1      -5.856  14.348  67.299  1.00  0.00     0.540 A  
HETATM   12  C   UNL     1      -5.542  13.267  69.429  1.00  0.00    -0.083 A  
HETATM   13  C   UNL     1      -5.156  13.453  68.107  1.00  0.00    -0.103 A  
ENDROOT
BRANCH   6  14
HETATM   14  C   UNL     1      -9.844  15.468  69.416  1.00  0.00    -0.283 A  
HETATM   15  C   UNL     1     -12.216  15.332  69.956  1.00  0.00    -0.385 A  
HETATM   16  C   UNL     1     -11.496  14.900  67.701  1.00  0.00    -0.366 A  
HETATM   17  C   UNL     1     -10.175  15.132  68.088  1.00  0.00    -0.227 A  
HETATM   18  C   UNL     1     -10.891  15.557  70.347  1.00  0.00    -0.356 A  
HETATM   19  C   UNL     1     -12.518  15.012  68.634  1.00  0.00     0.216 A  
ENDBRANCH   6  14
TORSDOF 1
ENDMDL
MODEL      140
REMARK 921   NORMALIZED FREE ENERGY PREDICTED BY IDOCK:   -0.11 KCAL/MOL
REMARK 922        TOTAL FREE ENERGY PREDICTED BY IDOCK:   -0.68 KCAL/MOL
REMARK 923 INTER-LIGAND FREE ENERGY PREDICTED BY IDOCK:   -0.12 KCAL/MOL
REMARK 924 INTRA-LIGAND FREE ENERGY PREDICTED BY IDOCK:   -0.56 KCAL/MOL
REMARK 927      BINDING AFFINITY PREDICTED BY RF-SCORE:    0.00 PKD
ROOT
HETATM    1  C   UNL     1     -12.770  13.979  70.439  1.00  0.00    -0.253 C  
HETATM    2  N   UNL     1     -11.433  14.039  69.884  1.00  0.00    -0.239 NA 
HETATM    3  C   UNL     1     -11.369  14.574  68.522  1.00  0.00    -0.286 C  
HETATM    4  C   UNL     1     -10.476  13.957  67.419  1.00  0.00    -0.263 C  
HETATM    5  O   UNL     1      -9.120  13.885  67.828  1.00  0.00    -0.176 OA 
HETATM    6  C   UNL     1      -8.568  12.577  68.068  1.00  0.00    -0.185 C  
HETATM    7  C   UNL     1     -10.536  12.978  70.319  1.00  0.00     1.988 C  
HETATM    8  C   UNL     1      -9.601  11.514  68.453  1.00  0.00    -0.195 A  
HETATM    9  C   UNL     1     -10.546  11.718  69.485  1.00  0.00     0.138 A  
HETATM   10  C   UNL     1      -9.705  10.352  67.659  1.00  0.00    -0.191 A  
HETATM   11  C   UNL     1     -11.558  10.764  69.689  1.00  0.00    -0.388 A  
HETATM   12  C   UNL     1     -10.729   9.428  67.864  1.00  0.00    -0.269 A  
HETATM   13  C   UNL     1     -11.656   9.634  68.879  1.00  0.00     0.317 A  
ENDROOT
BRANCH   6  14
HETATM   14  C   UNL     1      -7.386  12.714  69.037  1.00  0.00     0.055 A  
HETATM   15  C   UNL     1      -5.689  14.074  70.136  1.00  0.00    -0.128 A  
HETATM   16  C   UNL     1      -5.924  11.759  70.753  1.00  0.00     0.111 A  
HETATM   17  C   UNL     1      -6.961  11.628  69.828  1.00  0.00     0.132 A  
HETATM   18  C   UNL     1      -6.724  13.941  69.203  1.00  0.00    -0.113 A  
HETATM   19  C   UNL     1      -5.295  12.987  70.915  1.00  0.00    -0.174 A  
ENDBRANCH   6  14
TORSDOF 1
ENDMDL
MODEL      141
REMARK 921   NORMALIZED FREE ENERGY PREDICTED BY IDOCK:    0.40 KCAL/MOL
REMARK 922        TOTAL FREE ENERGY PREDICTED BY IDOCK:   -0.14 KCAL/MOL
REMARK 923 INTER-LIGAND FREE ENERGY PREDICTED BY IDOCK:    0.38 KCAL/MOL
REMARK 924 INTRA-LIGAND FREE ENERGY PREDICTED BY IDOCK:   -0.53 KCAL/MOL
REMARK 927      BINDING AFFINITY PREDICTED BY RF-SCORE:    0.00 PKD
ROOT
HETATM    1  C   UNL     1      -5.889   9.689  69.047  1.00  0.00    -0.035 C  
HETATM    2  N   UNL     1      -7.208  10.038  68.561  1.00  0.00    -0.075 NA 
HETATM    3  C   UNL     1      -7.388   9.849  67.119  1.00  0.00    -0.091 C  
HETATM    4  C   UNL     1      -8.128  10.873  66.224  1.00  0.00    -0.165 C  
HETATM    5  O   UNL     1      -9.435  11.136  66.706  1.00  0.00    -0.179 OA 
HETATM    6  C   UNL     1      -9.691  12.441  67.255  1.00  0.00    -0.201 C  
HETATM    7  C   UNL     1      -7.853  11.139  69.261  1.00  0.00    -0.001 C  
HETATM    8  C   UNL     1      -8.452  13.148  67.812  1.00  0.00    -0.185 A  
HETATM    9  C   UNL     1      -7.572  12.523  68.725  1.00  0.00    -0.024 A  
HETATM   10  C   UNL     1      -8.099  14.411  67.288  1.00  0.00    -0.209 A  
HETATM   11  C   UNL     1      -6.377  13.171  69.083  1.00  0.00    -0.104 A  
HETATM   12  C   UNL     1      -6.899  15.027  67.639  1.00  0.00    -0.203 A  
HETATM   13  C   UNL     1      -6.037  14.408  68.537  1.00  0.00    -0.091 A  
ENDROOT
BRANCH   6  14
HETATM   14  C   UNL     1     -10.873  12.342  68.228  1.00  0.00    -0.264 A  
HETATM   15  C   UNL     1     -12.122  13.183  70.143  1.00  0.00    -0.392 A  
HETATM   16  C   UNL     1     -12.996  11.320  68.894  1.00  0.00     1.869 A  
HETATM   17  C   UNL     1     -11.889  11.381  68.047  1.00  0.00    -0.273 A  
HETATM   18  C   UNL     1     -11.008  13.239  69.299  1.00  0.00    -0.140 A  
HETATM   19  C   UNL     1     -13.118  12.230  69.936  1.00  0.00     1.145 A  
ENDBRANCH   6  14
TORSDOF 1
ENDMDL
MODEL      142
REMARK 921   NORMALIZED FREE ENERGY PREDICTED BY IDOCK:    1.69 KCAL/MOL
REMARK 922        TOTAL FREE ENERGY PREDICTED BY IDOCK:    1.22 KCAL/MOL
REMARK 923 INTER-LIGAND FREE ENERGY PREDICTED BY IDOCK:    0.92 KCAL/MOL
REMARK 924 INTRA-LIGAND FREE ENERGY PREDICTED BY IDOCK:    0.30 KCAL/MOL
REMARK 927      BINDING AFFINITY PREDICTED BY RF-SCORE:    0.00 PKD
ROOT
HETATM    1  C   UNL     1      -9.096  14.115  66.953  1.00  0.00    -0.245 C  
HETATM    2  N   UNL     1      -8.848  12.768  66.481  1.00  0.00    -0.107 NA 
HETATM    3  C   UNL     1      -9.481  12.452  65.198  1.00  0.00     0.164 C  
HETATM    4  C   UNL     1     -10.191  11.105  64.921  1.00  0.00    -0.303 C  
HETATM    5  O   UNL     1      -9.331  10.004  65.164  1.00  0.00    -0.204 OA 
HETATM    6  C   UNL     1      -9.632   9.163  66.292  1.00  0.00    -0.255 C  
HETATM    7  C   UNL     1      -8.721  11.762  67.525  1.00  0.00    -0.159 C  
HETATM    8  C   UNL     1     -10.413   9.859  67.411  1.00  0.00    -0.325 A  
HETATM    9  C   UNL     1     -10.004  11.094  67.963  1.00  0.00    -0.190 A  
HETATM   10  C   UNL     1     -11.657   9.320  67.804  1.00  0.00     1.463 A  
HETATM   11  C   UNL     1     -10.843  11.749  68.881  1.00  0.00    -0.265 A  
HETATM   12  C   UNL     1     -12.484   9.996  68.700  1.00  0.00     2.166 A  
HETATM   13  C   UNL     1     -12.078  11.211  69.239  1.00  0.00    -0.377 A  
ENDROOT
BRANCH   6  14
HETATM   14  C   UNL     1      -8.342   8.463  66.741  1.00  0.00    -0.109 A  
HETATM   15  C   UNL     1      -6.748   6.629  66.559  1.00  0.00    -0.056 A  
HETATM   16  C   UNL     1      -6.272   8.458  68.049  1.00  0.00    -0.052 A  
HETATM   17  C   UNL     1      -7.475   9.061  67.678  1.00  0.00    -0.085 A  
HETATM   18  C   UNL     1      -7.958   7.230  66.192  1.00  0.00    -0.112 A  
HETATM   19  C   UNL     1      -5.904   7.246  67.480  1.00  0.00    -0.030 A  
ENDBRANCH   6  14
TORSDOF 1
ENDMDL
MODEL      143
REMARK 921   NORMALIZED FREE ENERGY PREDICTED BY IDOCK:    2.69 KCAL/MOL
REMARK 922        TOTAL FREE ENERGY PREDICTED BY IDOCK:    2.28 KCAL/MOL
REMARK 923 INTER-LIGAND FREE ENERGY PREDICTED BY IDOCK:    2.88 KCAL/MOL
REMARK 924 INTRA-LIGAND FREE ENERGY PREDICTED BY IDOCK:   -0.60 KCAL/MOL
REMARK 927      BINDING AFFINITY PREDICTED BY RF-SCORE:    0.00 PKD
ROOT
HETATM    1  C   UNL     1     -12.158  10.999  65.820  1.00  0.00     2.173 C  
HETATM    2  N   UNL     1     -10.951  11.176  66.602  1.00  0.00    -0.260 NA 
HETATM    3  C   UNL     1     -10.821  10.247  67.727  1.00  0.00    -0.292 C  
HETATM    4  C   UNL     1     -10.325  10.688  69.126  1.00  0.00    -0.221 C  
HETATM    5  O   UNL     1      -9.061  11.325  69.053  1.00  0.00    -0.104 OA 
HETATM    6  C   UNL     1      -9.011  12.737  69.331  1.00  0.00     1.308 C  
HETATM    7  C   UNL     1     -10.474  12.548  66.699  1.00  0.00    -0.233 C  
HETATM    8  C   UNL     1     -10.324  13.481  69.067  1.00  0.00    -0.025 A  
HETATM    9  C   UNL     1     -11.026  13.363  67.845  1.00  0.00    -0.276 A  
HETATM   10  C   UNL     1     -10.923  14.194  70.127  1.00  0.00     0.151 A  
HETATM   11  C   UNL     1     -12.296  13.954  67.722  1.00  0.00    -0.039 A  
HETATM   12  C   UNL     1     -12.193  14.754  69.992  1.00  0.00    -0.383 A  
HETATM   13  C   UNL     1     -12.880  14.635  68.790  1.00  0.00     0.962 A  
ENDROOT
BRANCH   6  14
HETATM   14  C   UNL     1      -7.778  13.331  68.637  1.00  0.00    -0.080 A  
HETATM   15  C   UNL     1      -5.698  13.051  67.400  1.00  0.00    -0.009 A  
HETATM   16  C   UNL     1      -6.537  15.270  67.805  1.00  0.00    -0.182 A  
HETATM   17  C   UNL     1      -7.627  14.724  68.484  1.00  0.00    -0.120 A  
HETATM   18  C   UNL     1      -6.787  12.503  68.088  1.00  0.00    -0.084 A  
HETATM   19  C   UNL     1      -5.577  14.431  67.253  1.00  0.00     0.594 A  
ENDBRANCH   6  14
TORSDOF 1
ENDMDL
MODEL      144
REMARK 921   NORMALIZED FREE ENERGY PREDICTED BY IDOCK:    5.54 KCAL/MOL
REMARK 922        TOTAL FREE ENERGY PREDICTED BY IDOCK:    5.30 KCAL/MOL
REMARK 923 INTER-LIGAND FREE ENERGY PREDICTED BY IDOCK:    5.41 KCAL/MOL
REMARK 924 INTRA-LIGAND FREE ENERGY PREDICTED BY IDOCK:   -0.11 KCAL/MOL
REMARK 927      BINDING AFFINITY PREDICTED BY RF-SCORE:    0.00 PKD
ROOT
HETATM    1  C   UNL     1      -6.282  15.928  66.224  1.00  0.00     2.079 C  
HETATM    2  N   UNL     1      -7.549  15.794  66.915  1.00  0.00    -0.223 NA 
HETATM    3  C   UNL     1      -7.982  17.004  67.619  1.00  0.00    -0.176 C  
HETATM    4  C   UNL     1      -8.602  16.973  69.037  1.00  0.00    -0.126 C  
HETATM    5  O   UNL     1      -9.730  16.115  69.093  1.00  0.00    -0.227 OA 
HETATM    6  C   UNL     1      -9.602  14.899  69.852  1.00  0.00     0.233 C  
HETATM    7  C   UNL     1      -7.819  14.471  67.457  1.00  0.00    -0.193 C  
HETATM    8  C   UNL     1      -8.167  14.380  69.980  1.00  0.00     0.921 A  
HETATM    9  C   UNL     1      -7.321  14.213  68.860  1.00  0.00    -0.122 A  
HETATM   10  C   UNL     1      -7.626  14.196  71.271  1.00  0.00     3.540 A  
HETATM   11  C   UNL     1      -5.972  13.873  69.061  1.00  0.00    -0.086 A  
HETATM   12  C   UNL     1      -6.280  13.881  71.450  1.00  0.00     0.286 A  
HETATM   13  C   UNL     1      -5.452  13.719  70.345  1.00  0.00    -0.127 A  
ENDROOT
BRANCH   6  14
HETATM   14  C   UNL     1     -10.616  13.879  69.318  1.00  0.00    -0.062 A  
HETATM   15  C   UNL     1     -11.651  12.687  67.462  1.00  0.00    -0.418 A  
HETATM   16  C   UNL     1     -12.269  12.117  69.717  1.00  0.00    -0.212 A  
HETATM   17  C   UNL     1     -11.386  13.087  70.194  1.00  0.00     0.149 A  
HETATM   18  C   UNL     1     -10.771  13.665  67.939  1.00  0.00    -0.257 A  
HETATM   19  C   UNL     1     -12.393  11.910  68.349  1.00  0.00     0.429 A  
ENDBRANCH   6  14
TORSDOF 1
ENDMDL
MODEL      145
REMARK 921   NORMALIZED FREE ENERGY PREDICTED BY IDOCK:   10.01 KCAL/MOL
REMARK 922        TOTAL FREE ENERGY PREDICTED BY IDOCK:   10.03 KCAL/MOL
REMARK 923 INTER-LIGAND FREE ENERGY PREDICTED BY IDOCK:    9.86 KCAL/MOL
REMARK 924 INTRA-LIGAND FREE ENERGY PREDICTED BY IDOCK:    0.17 KCAL/MOL
REMARK 927      BINDING AFFINITY PREDICTED BY RF-SCORE:    0.00 PKD
ROOT
HETATM    1  C   UNL     1      -8.967  16.885  65.477  1.00  0.00     0.697 C  
HETATM    2  N   UNL     1      -8.362  15.648  65.927  1.00  0.00     0.377 NA 
HETATM    3  C   UNL     1      -8.229  14.628  64.883  1.00  0.00     7.162 C  
HETATM    4  C   UNL     1      -8.544  13.132  65.126  1.00  0.00     2.618 C  
HETATM    5  O   UNL     1      -7.799  12.614  66.216  1.00  0.00     0.541 OA 
HETATM    6  C   UNL     1      -8.522  12.269  67.411  1.00  0.00    -0.176 C  
HETATM    7  C   UNL     1      -8.657  15.281  67.304  1.00  0.00    -0.190 C  
HETATM    8  C   UNL     1      -9.833  13.038  67.603  1.00  0.00    -0.212 A  
HETATM    9  C   UNL     1      -9.900  14.448  67.517  1.00  0.00    -0.220 A  
HETATM   10  C   UNL     1     -11.035  12.309  67.728  1.00  0.00    -0.274 A  
HETATM   11  C   UNL     1     -11.155  15.081  67.557  1.00  0.00    -0.317 A  
HETATM   12  C   UNL     1     -12.271  12.954  67.744  1.00  0.00    -0.042 A  
HETATM   13  C   UNL     1     -12.332  14.340  67.658  1.00  0.00    -0.061 A  
ENDROOT
BRANCH   6  14
HETATM   14  C   UNL     1      -7.557  12.324  68.602  1.00  0.00    -0.089 A  
HETATM   15  C   UNL     1      -6.132  13.587  70.123  1.00  0.00    -0.123 A  
HETATM   16  C   UNL     1      -6.447  11.229  70.489  1.00  0.00     0.266 A  
HETATM   17  C   UNL     1      -7.279  11.176  69.371  1.00  0.00    -0.091 A  
HETATM   18  C   UNL     1      -6.961  13.532  68.996  1.00  0.00    -0.091 A  
HETATM   19  C   UNL     1      -5.882  12.439  70.872  1.00  0.00     0.086 A  
ENDBRANCH   6  14
TORSDOF 1
ENDMDL
MODEL      146
REMARK 921   NORMALIZED FREE ENERGY PREDICTED BY IDOCK:   25.30 KCAL/MOL
REMARK 922        TOTAL FREE ENERGY PREDICTED BY IDOCK:   26.21 KCAL/MOL
REMARK 923 INTER-LIGAND FREE ENERGY PREDICTED BY IDOCK:   26.70 KCAL/MOL
REMARK 924 INTRA-LIGAND FREE ENERGY PREDICTED BY IDOCK:   -0.49 KCAL/MOL
REMARK 927      BINDING AFFINITY PREDICTED BY RF-SCORE:    0.00 PKD
ROOT
HETATM    1  C   UNL     1      -7.215  11.598  67.108  1.00  0.00    -0.145 C  
HETATM    2  N   UNL     1      -7.990  12.821  67.172  1.00  0.00    -0.147 NA 
HETATM    3  C   UNL     1      -7.250  14.024  66.783  1.00  0.00     1.196 C  
HETATM    4  C   UNL     1      -7.359  15.362  67.554  1.00  0.00    -0.195 C  
HETATM    5  O   UNL     1      -8.705  15.797  67.651  1.00  0.00    -0.167 OA 
HETATM    6  C   UNL     1      -9.320  15.771  68.952  1.00  0.00    -0.228 C  
HETATM    7  C   UNL     1      -8.994  12.861  68.225  1.00  0.00    -0.175 C  
HETATM    8  C   UNL     1      -8.716  14.747  69.918  1.00  0.00     0.461 A  
HETATM    9  C   UNL     1      -8.531  13.391  69.562  1.00  0.00     1.240 A  
HETATM   10  C   UNL     1      -8.197  15.201  71.149  1.00  0.00     3.021 A  
HETATM   11  C   UNL     1      -7.838  12.538  70.439  1.00  0.00     4.004 A  
HETATM   12  C   UNL     1      -7.494  14.344  71.995  1.00  0.00     4.203 A  
HETATM   13  C   UNL     1      -7.314  13.013  71.640  1.00  0.00     7.016 A  
ENDROOT
BRANCH   6  14
HETATM   14  C   UNL     1     -10.841  15.676  68.775  1.00  0.00    -0.262 A  
HETATM   15  C   UNL     1     -12.790  15.119  67.421  1.00  0.00     2.000 A  
HETATM   16  C   UNL     1     -13.101  15.808  69.707  1.00  0.00     0.783 A  
HETATM   17  C   UNL     1     -11.719  15.946  69.844  1.00  0.00    -0.327 A  
HETATM   18  C   UNL     1     -11.404  15.266  67.556  1.00  0.00    -0.300 A  
HETATM   19  C   UNL     1     -13.635  15.383  68.497  1.00  0.00     4.721 A  
ENDBRANCH   6  14
TORSDOF 1
ENDMDL
MODEL      147
REMARK 921   NORMALIZED FREE ENERGY PREDICTED BY IDOCK:   26.04 KCAL/MOL
REMARK 922        TOTAL FREE ENERGY PREDICTED BY IDOCK:   26.99 KCAL/MOL
REMARK 923 INTER-LIGAND FREE ENERGY PREDICTED BY IDOCK:   26.73 KCAL/MOL
REMARK 924 INTRA-LIGAND FREE ENERGY PREDICTED BY IDOCK:    0.26 KCAL/MOL
REMARK 927      BINDING AFFINITY PREDICTED BY RF-SCORE:    0.00 PKD
ROOT
HETATM    1  C   UNL     1     -10.759  11.500  70.615  1.00  0.00     2.056 C  
HETATM    2  N   UNL     1     -10.156  11.947  69.376  1.00  0.00     0.318 NA 
HETATM    3  C   UNL     1     -10.089  10.920  68.333  1.00  0.00    -0.183 C  
HETATM    4  C   UNL     1      -8.845  10.714  67.437  1.00  0.00    -0.132 C  
HETATM    5  O   UNL     1      -8.480  11.911  66.770  1.00  0.00    -0.179 OA 
HETATM    6  C   UNL     1      -7.253  12.548  67.171  1.00  0.00    -0.057 C  
HETATM    7  C   UNL     1      -9.100  12.937  69.525  1.00  0.00     1.634 C  
HETATM    8  C   UNL     1      -6.824  12.244  68.610  1.00  0.00    -0.087 A  
HETATM    9  C   UNL     1      -7.702  12.394  69.708  1.00  0.00     1.348 A  
HETATM   10  C   UNL     1      -5.556  11.662  68.830  1.00  0.00    -0.046 A  
HETATM   11  C   UNL     1      -7.292  11.959  70.981  1.00  0.00     4.850 A  
HETATM   12  C   UNL     1      -5.177  11.218  70.096  1.00  0.00    -0.075 A  
HETATM   13  C   UNL     1      -6.045  11.366  71.172  1.00  0.00     0.618 A  
ENDROOT
BRANCH   6  14
HETATM   14  C   UNL     1      -7.337  14.039  66.820  1.00  0.00     1.012 A  
HETATM   15  C   UNL     1      -7.749  16.352  67.467  1.00  0.00    -0.164 A  
HETATM   16  C   UNL     1      -6.984  15.871  65.235  1.00  0.00     6.802 A  
HETATM   17  C   UNL     1      -6.964  14.511  65.545  1.00  0.00     9.249 A  
HETATM   18  C   UNL     1      -7.737  14.987  67.775  1.00  0.00    -0.168 A  
HETATM   19  C   UNL     1      -7.366  16.793  66.202  1.00  0.00    -0.064 A  
ENDBRANCH   6  14
TORSDOF 1
ENDMDL
MODEL      148
REMARK 921   NORMALIZED FREE ENERGY PREDICTED BY IDOCK:   29.31 KCAL/MOL
REMARK 922        TOTAL FREE ENERGY PREDICTED BY IDOCK:   30.46 KCAL/MOL
REMARK 923 INTER-LIGAND FREE ENERGY PREDICTED BY IDOCK:   30.63 KCAL/MOL
REMARK 924 INTRA-LIGAND FREE ENERGY PREDICTED BY IDOCK:   -0.17 KCAL/MOL
REMARK 927      BINDING AFFINITY PREDICTED BY RF-SCORE:    0.00 PKD
ROOT
HETATM    1  C   UNL     1      -8.265  12.291  68.043  1.00  0.00    -0.163 C  
HETATM    2  N   UNL     1      -9.184  13.260  67.481  1.00  0.00    -0.203 NA 
HETATM    3  C   UNL     1      -9.232  13.265  66.017  1.00  0.00     0.106 C  
HETATM    4  C   UNL     1      -9.273  14.569  65.183  1.00  0.00     1.181 C  
HETATM    5  O   UNL     1     -10.356  15.399  65.570  1.00  0.00    -0.327 OA 
HETATM    6  C   UNL     1     -10.041  16.632  66.242  1.00  0.00    -0.328 C  
HETATM    7  C   UNL     1      -9.325  14.491  68.243  1.00  0.00    -0.203 C  
HETATM    8  C   UNL     1      -8.704  16.622  66.990  1.00  0.00    -0.223 A  
HETATM    9  C   UNL     1      -8.356  15.599  67.901  1.00  0.00    -0.150 A  
HETATM   10  C   UNL     1      -7.732  17.588  66.652  1.00  0.00    -0.289 A  
HETATM   11  C   UNL     1      -7.058  15.570  68.441  1.00  0.00    -0.111 A  
HETATM   12  C   UNL     1      -6.443  17.530  67.182  1.00  0.00    -0.190 A  
HETATM   13  C   UNL     1      -6.106  16.521  68.077  1.00  0.00    -0.132 A  
ENDROOT
BRANCH   6  14
HETATM   14  C   UNL     1     -11.251  17.057  67.083  1.00  0.00     0.321 A  
HETATM   15  C   UNL     1     -12.219  17.763  69.205  1.00  0.00     5.320 A  
HETATM   16  C   UNL     1     -13.610  17.692  67.241  1.00  0.00     9.915 A  
HETATM   17  C   UNL     1     -12.517  17.252  66.494  1.00  0.00     5.220 A  
HETATM   18  C   UNL     1     -11.125  17.314  68.457  1.00  0.00    -0.008 A  
HETATM   19  C   UNL     1     -13.457  17.959  68.596  1.00  0.00    10.895 A  
ENDBRANCH   6  14
TORSDOF 1
ENDMDL
MODEL      149
REMARK 921   NORMALIZED FREE ENERGY PREDICTED BY IDOCK:   40.63 KCAL/MOL
REMARK 922        TOTAL FREE ENERGY PREDICTED BY IDOCK:   42.44 KCAL/MOL
REMARK 923 INTER-LIGAND FREE ENERGY PREDICTED BY IDOCK:   42.96 KCAL/MOL
REMARK 924 INTRA-LIGAND FREE ENERGY PREDICTED BY IDOCK:   -0.52 KCAL/MOL
REMARK 927      BINDING AFFINITY PREDICTED BY RF-SCORE:    0.00 PKD
ROOT
HETATM    1  C   UNL     1     -13.922  17.224  66.068  1.00  0.00    14.920 C  
HETATM    2  N   UNL     1     -13.006  17.756  67.057  1.00  0.00     6.850 NA 
HETATM    3  C   UNL     1     -12.319  18.982  66.643  1.00  0.00     4.696 C  
HETATM    4  C   UNL     1     -10.814  19.230  66.905  1.00  0.00    -0.381 C  
HETATM    5  O   UNL     1     -10.498  19.102  68.282  1.00  0.00    -0.380 OA 
HETATM    6  C   UNL     1      -9.694  17.976  68.677  1.00  0.00    -0.350 C  
HETATM    7  C   UNL     1     -12.337  16.759  67.879  1.00  0.00     2.074 C  
HETATM    8  C   UNL     1      -9.792  16.768  67.740  1.00  0.00    -0.257 A  
HETATM    9  C   UNL     1     -11.032  16.221  67.339  1.00  0.00    -0.175 A  
HETATM   10  C   UNL     1      -8.610  16.274  67.147  1.00  0.00    -0.207 A  
HETATM   11  C   UNL     1     -11.055  15.208  66.365  1.00  0.00    -0.312 A  
HETATM   12  C   UNL     1      -8.656  15.284  66.166  1.00  0.00     0.074 A  
HETATM   13  C   UNL     1      -9.878  14.751  65.774  1.00  0.00    -0.373 A  
ENDROOT
BRANCH   6  14
HETATM   14  C   UNL     1      -9.967  17.673  70.156  1.00  0.00     1.224 A  
HETATM   15  C   UNL     1     -10.691  18.386  72.371  1.00  0.00     3.447 A  
HETATM   16  C   UNL     1     -10.162  16.068  71.995  1.00  0.00     3.164 A  
HETATM   17  C   UNL     1      -9.861  16.362  70.665  1.00  0.00     1.698 A  
HETATM   18  C   UNL     1     -10.382  18.683  71.039  1.00  0.00     2.643 A  
HETATM   19  C   UNL     1     -10.589  17.080  72.846  1.00  0.00     4.606 A  
ENDBRANCH   6  14
TORSDOF 1
ENDMDL
MODEL      150
REMARK 921   NORMALIZED FREE ENERGY PREDICTED BY IDOCK:   47.56 KCAL/MOL
REMARK 922        TOTAL FREE ENERGY PREDICTED BY IDOCK:   49.78 KCAL/MOL
REMARK 923 INTER-LIGAND FREE ENERGY PREDICTED BY IDOCK:   49.92 KCAL/MOL
REMARK 924 INTRA-LIGAND FREE ENERGY PREDICTED BY IDOCK:   -0.15 KCAL/MOL
REMARK 927      BINDING AFFINITY PREDICTED BY RF-SCORE:    0.00 PKD
ROOT
HETATM    1  C   UNL     1      -7.946  15.642  65.459  1.00  0.00     3.073 C  
HETATM    2  N   UNL     1      -9.294  15.334  65.892  1.00  0.00    -0.319 NA 
HETATM    3  C   UNL     1      -9.938  16.403  66.659  1.00  0.00    -0.272 C  
HETATM    4  C   UNL     1     -10.781  16.134  67.929  1.00  0.00    -0.321 C  
HETATM    5  O   UNL     1     -11.826  15.210  67.674  1.00  0.00    -0.294 OA 
HETATM    6  C   UNL     1     -11.726  13.908  68.279  1.00  0.00    -0.361 C  
HETATM    7  C   UNL     1      -9.539  13.933  66.201  1.00  0.00    -0.229 C  
HETATM    8  C   UNL     1     -10.293  13.464  68.591  1.00  0.00    -0.213 A  
HETATM    9  C   UNL     1      -9.262  13.510  67.625  1.00  0.00    -0.214 A  
HETATM   10  C   UNL     1      -9.962  13.132  69.922  1.00  0.00     1.954 A  
HETATM   11  C   UNL     1      -7.941  13.227  68.016  1.00  0.00    -0.152 A  
HETATM   12  C   UNL     1      -8.642  12.877  70.293  1.00  0.00     4.683 A  
HETATM   13  C   UNL     1      -7.631  12.924  69.341  1.00  0.00     0.531 A  
ENDROOT
BRANCH   6  14
HETATM   14  C   UNL     1     -12.547  12.915  67.447  1.00  0.00     0.869 A  
HETATM   15  C   UNL     1     -13.189  11.971  65.294  1.00  0.00     2.346 A  
HETATM   16  C   UNL     1     -14.050  10.987  67.315  1.00  0.00    18.215 A  
HETATM   17  C   UNL     1     -13.345  11.930  68.064  1.00  0.00     6.087 A  
HETATM   18  C   UNL     1     -12.488  12.922  66.044  1.00  0.00    -0.171 A  
HETATM   19  C   UNL     1     -13.963  11.001  65.929  1.00  0.00    14.712 A  
ENDBRANCH   6  14
TORSDOF 1
ENDMDL
