MODEL        1
REMARK 921   NORMALIZED FREE ENERGY PREDICTED BY IDOCK:   -7.06 KCAL/MOL
REMARK 922        TOTAL FREE ENERGY PREDICTED BY IDOCK:   -8.52 KCAL/MOL
REMARK 923 INTER-LIGAND FREE ENERGY PREDICTED BY IDOCK:   -8.30 KCAL/MOL
REMARK 924 INTRA-LIGAND FREE ENERGY PREDICTED BY IDOCK:   -0.23 KCAL/MOL
REMARK 927      BINDING AFFINITY PREDICTED BY RF-SCORE:    0.00 PKD
ROOT
HETATM    1  C   UNL     1      -9.996  19.731  68.408  1.00  0.00    -0.439 C  
HETATM    2  O   UNL     1      -9.357  18.586  67.851  1.00  0.00    -0.283 OA 
ENDROOT
BRANCH   2   3
HETATM    3  C   UNL     1     -10.099  17.440  68.055  1.00  0.00    -0.326 A  
HETATM    4  N   UNL     1     -10.706  17.243  69.254  1.00  0.00    -0.179 NA 
HETATM    5  C   UNL     1     -11.469  16.158  69.420  1.00  0.00    -0.296 A  
HETATM    6  N   UNL     1     -12.155  16.062  70.614  1.00  0.00    -0.477 NA 
HETATM    7  N   UNL     1     -11.726  15.218  68.506  1.00  0.00    -0.346 NA 
HETATM    8  H2  UNL     1     -12.718  16.902  70.753  1.00  0.00     0.000 HD 
HETATM    9  C   UNL     1     -11.144  15.465  67.322  1.00  0.00    -0.302 A  
HETATM   10  H1  UNL     1     -12.737  15.234  70.740  1.00  0.00     0.000 HD 
HETATM   11  C   UNL     1     -10.321  16.537  67.015  1.00  0.00    -0.301 A  
HETATM   12  N   UNL     1      -9.924  16.479  65.697  1.00  0.00    -0.549 NA 
HETATM   13  C   UNL     1     -10.526  15.416  65.209  1.00  0.00    -0.415 A  
HETATM   14  N   UNL     1     -11.289  14.774  66.154  1.00  0.00    -0.342 NA 
BRANCH  14  15
HETATM   15  C1* UNL     1     -12.199  13.690  65.854  1.00  0.00    -0.461 C  
HETATM   16  O4* UNL     1     -11.578  12.461  66.292  1.00  0.00    -0.357 OA 
HETATM   17  C4* UNL     1     -11.134  11.719  65.131  1.00  0.00    -0.282 C  
HETATM   18  H2* UNL     1     -13.055  14.484  62.729  1.00  0.00     0.000 HD 
HETATM   19  C3* UNL     1     -11.704  12.398  63.880  1.00  0.00    -0.447 C  
HETATM   20  C2* UNL     1     -12.660  13.457  64.417  1.00  0.00    -0.190 C  
HETATM   21  O3* UNL     1     -12.419  11.472  63.053  1.00  0.00    -0.982 OA 
HETATM   22  H3* UNL     1     -12.772  11.893  62.278  1.00  0.00     0.000 HD 
HETATM   23  O2* UNL     1     -12.768  14.629  63.623  1.00  0.00    -0.735 OA 
BRANCH  17  24
HETATM   24  C5* UNL     1      -9.598  11.648  65.128  1.00  0.00    -0.183 C  
HETATM   25  O5* UNL     1      -9.068  12.478  66.160  1.00  0.00    -0.404 OA 
HETATM   26  H5* UNL     1      -8.119  12.434  66.158  1.00  0.00     0.000 HD 
ENDBRANCH  17  24
ENDBRANCH  14  15
ENDBRANCH   2   3
TORSDOF 3
ENDMDL
MODEL        2
REMARK 921   NORMALIZED FREE ENERGY PREDICTED BY IDOCK:   -7.02 KCAL/MOL
REMARK 922        TOTAL FREE ENERGY PREDICTED BY IDOCK:   -8.48 KCAL/MOL
REMARK 923 INTER-LIGAND FREE ENERGY PREDICTED BY IDOCK:   -8.53 KCAL/MOL
REMARK 924 INTRA-LIGAND FREE ENERGY PREDICTED BY IDOCK:    0.05 KCAL/MOL
REMARK 927      BINDING AFFINITY PREDICTED BY RF-SCORE:    0.00 PKD
ROOT
HETATM    1  C   UNL     1     -13.223  15.534  72.810  1.00  0.00    -0.508 C  
HETATM    2  O   UNL     1     -13.748  15.197  71.531  1.00  0.00    -0.418 OA 
ENDROOT
BRANCH   2   3
HETATM    3  C   UNL     1     -12.944  14.288  70.873  1.00  0.00    -0.329 A  
HETATM    4  N   UNL     1     -12.910  12.998  71.298  1.00  0.00    -0.333 NA 
HETATM    5  C   UNL     1     -12.172  12.114  70.618  1.00  0.00    -0.300 A  
HETATM    6  N   UNL     1     -12.262  10.797  71.019  1.00  0.00    -0.368 NA 
HETATM    7  N   UNL     1     -11.450  12.357  69.520  1.00  0.00    -0.264 NA 
HETATM    8  H2  UNL     1     -13.239  10.503  71.014  1.00  0.00     0.000 HD 
HETATM    9  C   UNL     1     -11.539  13.630  69.106  1.00  0.00    -0.309 A  
HETATM   10  H1  UNL     1     -11.699  10.123  70.500  1.00  0.00     0.000 HD 
HETATM   11  C   UNL     1     -12.251  14.650  69.717  1.00  0.00    -0.302 A  
HETATM   12  N   UNL     1     -12.133  15.820  68.999  1.00  0.00    -0.284 NA 
HETATM   13  C   UNL     1     -11.397  15.503  67.956  1.00  0.00    -0.330 A  
HETATM   14  N   UNL     1     -11.023  14.181  67.968  1.00  0.00    -0.250 NA 
BRANCH  14  15
HETATM   15  C1* UNL     1     -10.370  13.519  66.860  1.00  0.00    -0.265 C  
HETATM   16  O4* UNL     1      -9.653  14.524  66.109  1.00  0.00    -0.298 OA 
HETATM   17  C4* UNL     1     -10.356  14.774  64.868  1.00  0.00    -0.332 C  
HETATM   18  H2* UNL     1     -12.872  11.612  65.751  1.00  0.00     0.000 HD 
HETATM   19  C3* UNL     1     -11.451  13.712  64.715  1.00  0.00    -0.352 C  
HETATM   20  C2* UNL     1     -11.196  12.727  65.850  1.00  0.00    -0.300 C  
HETATM   21  O3* UNL     1     -11.360  13.035  63.455  1.00  0.00    -0.615 OA 
HETATM   22  H3* UNL     1     -12.039  12.378  63.360  1.00  0.00     0.000 HD 
HETATM   23  O2* UNL     1     -12.358  12.105  66.380  1.00  0.00    -0.489 OA 
BRANCH  17  24
HETATM   24  C5* UNL     1     -10.908  16.209  64.876  1.00  0.00    -0.334 C  
HETATM   25  O5* UNL     1     -11.740  16.419  63.736  1.00  0.00    -1.553 OA 
HETATM   26  H5* UNL     1     -12.082  17.306  63.741  1.00  0.00     0.000 HD 
ENDBRANCH  17  24
ENDBRANCH  14  15
ENDBRANCH   2   3
TORSDOF 3
ENDMDL
MODEL        3
REMARK 921   NORMALIZED FREE ENERGY PREDICTED BY IDOCK:   -6.99 KCAL/MOL
REMARK 922        TOTAL FREE ENERGY PREDICTED BY IDOCK:   -8.45 KCAL/MOL
REMARK 923 INTER-LIGAND FREE ENERGY PREDICTED BY IDOCK:   -8.37 KCAL/MOL
REMARK 924 INTRA-LIGAND FREE ENERGY PREDICTED BY IDOCK:   -0.07 KCAL/MOL
REMARK 927      BINDING AFFINITY PREDICTED BY RF-SCORE:    0.00 PKD
ROOT
HETATM    1  C   UNL     1     -13.074  10.306  71.579  1.00  0.00    -0.433 C  
HETATM    2  O   UNL     1     -12.501  11.537  71.152  1.00  0.00    -0.376 OA 
ENDROOT
BRANCH   2   3
HETATM    3  C   UNL     1     -11.872  11.409  69.930  1.00  0.00    -0.359 A  
HETATM    4  N   UNL     1     -11.507  10.175  69.494  1.00  0.00    -0.205 NA 
HETATM    5  C   UNL     1     -10.951  10.057  68.284  1.00  0.00    -0.227 A  
HETATM    6  N   UNL     1     -10.704   8.774  67.840  1.00  0.00    -0.456 NA 
HETATM    7  N   UNL     1     -10.719  11.045  67.414  1.00  0.00    -0.240 NA 
HETATM    8  H2  UNL     1     -11.565   8.227  67.877  1.00  0.00     0.000 HD 
HETATM    9  C   UNL     1     -11.129  12.242  67.860  1.00  0.00    -0.243 A  
HETATM   10  H1  UNL     1     -10.280   8.684  66.917  1.00  0.00     0.000 HD 
HETATM   11  C   UNL     1     -11.705  12.512  69.092  1.00  0.00    -0.321 A  
HETATM   12  N   UNL     1     -12.020  13.849  69.195  1.00  0.00    -0.348 NA 
HETATM   13  C   UNL     1     -11.678  14.368  68.036  1.00  0.00    -0.340 A  
HETATM   14  N   UNL     1     -11.144  13.430  67.186  1.00  0.00    -0.280 NA 
BRANCH  14  15
HETATM   15  C1* UNL     1     -10.852  13.680  65.791  1.00  0.00    -0.273 C  
HETATM   16  O4* UNL     1      -9.669  14.506  65.732  1.00  0.00    -0.314 OA 
HETATM   17  C4* UNL     1     -10.053  15.851  65.356  1.00  0.00    -0.261 C  
HETATM   18  H2* UNL     1     -13.896  14.478  64.684  1.00  0.00     0.000 HD 
HETATM   19  C3* UNL     1     -11.525  15.828  64.930  1.00  0.00    -0.193 C  
HETATM   20  C2* UNL     1     -11.897  14.350  64.902  1.00  0.00    -0.417 C  
HETATM   21  O3* UNL     1     -11.710  16.400  63.629  1.00  0.00    -1.520 OA 
HETATM   22  H3* UNL     1     -12.623  16.386  63.366  1.00  0.00     0.000 HD 
HETATM   23  O2* UNL     1     -13.246  14.061  65.237  1.00  0.00    -0.782 OA 
BRANCH  17  24
HETATM   24  C5* UNL     1      -9.782  16.806  66.529  1.00  0.00    -0.283 C  
HETATM   25  O5* UNL     1      -9.435  18.100  66.038  1.00  0.00    -0.503 OA 
HETATM   26  H5* UNL     1      -9.268  18.690  66.764  1.00  0.00     0.000 HD 
ENDBRANCH  17  24
ENDBRANCH  14  15
ENDBRANCH   2   3
TORSDOF 3
ENDMDL
MODEL        4
REMARK 921   NORMALIZED FREE ENERGY PREDICTED BY IDOCK:   -6.92 KCAL/MOL
REMARK 922        TOTAL FREE ENERGY PREDICTED BY IDOCK:   -8.36 KCAL/MOL
REMARK 923 INTER-LIGAND FREE ENERGY PREDICTED BY IDOCK:   -8.23 KCAL/MOL
REMARK 924 INTRA-LIGAND FREE ENERGY PREDICTED BY IDOCK:   -0.13 KCAL/MOL
REMARK 927      BINDING AFFINITY PREDICTED BY RF-SCORE:    0.00 PKD
ROOT
HETATM    1  C   UNL     1     -12.410  12.088  63.349  1.00  0.00    -0.523 C  
HETATM    2  O   UNL     1     -12.368  13.475  63.670  1.00  0.00    -0.687 OA 
ENDROOT
BRANCH   2   3
HETATM    3  C   UNL     1     -12.060  13.681  64.999  1.00  0.00    -0.392 A  
HETATM    4  N   UNL     1     -12.266  12.680  65.894  1.00  0.00    -0.597 NA 
HETATM    5  C   UNL     1     -11.910  12.871  67.169  1.00  0.00    -0.362 A  
HETATM    6  N   UNL     1     -12.033  11.786  68.013  1.00  0.00    -0.583 NA 
HETATM    7  N   UNL     1     -11.338  13.965  67.681  1.00  0.00    -0.295 NA 
HETATM    8  H2  UNL     1     -11.520  10.993  67.629  1.00  0.00     0.000 HD 
HETATM    9  C   UNL     1     -11.111  14.916  66.762  1.00  0.00    -0.335 A  
HETATM   10  H1  UNL     1     -11.761  11.932  68.986  1.00  0.00     0.000 HD 
HETATM   11  C   UNL     1     -11.440  14.859  65.417  1.00  0.00    -0.320 A  
HETATM   12  N   UNL     1     -11.036  16.008  64.772  1.00  0.00    -0.609 NA 
HETATM   13  C   UNL     1     -10.441  16.725  65.700  1.00  0.00    -0.269 A  
HETATM   14  N   UNL     1     -10.449  16.099  66.922  1.00  0.00    -0.302 NA 
BRANCH  14  15
HETATM   15  C1* UNL     1      -9.712  16.571  68.074  1.00  0.00    -0.236 C  
HETATM   16  O4* UNL     1     -10.426  17.702  68.619  1.00  0.00    -0.356 OA 
HETATM   17  C4* UNL     1      -9.698  18.914  68.307  1.00  0.00    -0.361 C  
HETATM   18  H2* UNL     1      -6.616  16.583  66.831  1.00  0.00     0.000 HD 
HETATM   19  C3* UNL     1      -8.333  18.518  67.732  1.00  0.00    -0.259 C  
HETATM   20  C2* UNL     1      -8.257  17.007  67.922  1.00  0.00    -0.200 C  
HETATM   21  O3* UNL     1      -7.257  19.151  68.437  1.00  0.00    -0.271 OA 
HETATM   22  H3* UNL     1      -6.412  18.906  68.081  1.00  0.00     0.000 HD 
HETATM   23  O2* UNL     1      -7.522  16.312  66.926  1.00  0.00    -0.197 OA 
BRANCH  17  24
HETATM   24  C5* UNL     1     -10.529  19.774  67.340  1.00  0.00    -0.442 C  
HETATM   25  O5* UNL     1      -9.669  20.600  66.556  1.00  0.00    -0.638 OA 
HETATM   26  H5* UNL     1     -10.183  21.131  65.959  1.00  0.00     0.000 HD 
ENDBRANCH  17  24
ENDBRANCH  14  15
ENDBRANCH   2   3
TORSDOF 3
ENDMDL
MODEL        5
REMARK 921   NORMALIZED FREE ENERGY PREDICTED BY IDOCK:   -6.77 KCAL/MOL
REMARK 922        TOTAL FREE ENERGY PREDICTED BY IDOCK:   -8.18 KCAL/MOL
REMARK 923 INTER-LIGAND FREE ENERGY PREDICTED BY IDOCK:   -7.91 KCAL/MOL
REMARK 924 INTRA-LIGAND FREE ENERGY PREDICTED BY IDOCK:   -0.27 KCAL/MOL
REMARK 927      BINDING AFFINITY PREDICTED BY RF-SCORE:    0.00 PKD
ROOT
HETATM    1  C   UNL     1     -13.011  15.861  73.581  1.00  0.00    -0.568 C  
HETATM    2  O   UNL     1     -13.909  15.303  72.628  1.00  0.00    -0.480 OA 
ENDROOT
BRANCH   2   3
HETATM    3  C   UNL     1     -13.356  14.213  71.986  1.00  0.00    -0.415 A  
HETATM    4  N   UNL     1     -13.555  12.969  72.494  1.00  0.00    -0.594 NA 
HETATM    5  C   UNL     1     -13.064  11.916  71.831  1.00  0.00    -0.369 A  
HETATM    6  N   UNL     1     -13.391  10.669  72.325  1.00  0.00    -0.581 NA 
HETATM    7  N   UNL     1     -12.391  11.944  70.677  1.00  0.00    -0.349 NA 
HETATM    8  H2  UNL     1     -14.405  10.585  72.399  1.00  0.00     0.000 HD 
HETATM    9  C   UNL     1     -12.249  13.184  70.184  1.00  0.00    -0.290 A  
HETATM   10  H1  UNL     1     -13.016   9.866  71.819  1.00  0.00     0.000 HD 
HETATM   11  C   UNL     1     -12.691  14.361  70.768  1.00  0.00    -0.360 A  
HETATM   12  N   UNL     1     -12.390  15.441  69.967  1.00  0.00    -0.358 NA 
HETATM   13  C   UNL     1     -11.814  14.923  68.904  1.00  0.00    -0.301 A  
HETATM   14  N   UNL     1     -11.716  13.555  68.983  1.00  0.00    -0.305 NA 
BRANCH  14  15
HETATM   15  C1* UNL     1     -11.294  12.713  67.884  1.00  0.00    -0.288 C  
HETATM   16  O4* UNL     1      -9.882  12.457  68.045  1.00  0.00    -0.194 OA 
HETATM   17  C4* UNL     1      -9.149  13.223  67.058  1.00  0.00    -0.232 C  
HETATM   18  H2* UNL     1     -12.754  14.292  65.334  1.00  0.00     0.000 HD 
HETATM   19  C3* UNL     1     -10.158  13.819  66.069  1.00  0.00    -0.311 C  
HETATM   20  C2* UNL     1     -11.491  13.182  66.445  1.00  0.00    -0.334 C  
HETATM   21  O3* UNL     1      -9.828  13.492  64.713  1.00  0.00    -0.607 OA 
HETATM   22  H3* UNL     1     -10.453  13.862  64.101  1.00  0.00     0.000 HD 
HETATM   23  O2* UNL     1     -12.632  14.000  66.230  1.00  0.00    -0.451 OA 
BRANCH  17  24
HETATM   24  C5* UNL     1      -8.301  14.290  67.767  1.00  0.00    -0.171 C  
HETATM   25  O5* UNL     1      -8.447  14.172  69.181  1.00  0.00    -0.356 OA 
HETATM   26  H5* UNL     1      -7.922  14.832  69.620  1.00  0.00     0.000 HD 
ENDBRANCH  17  24
ENDBRANCH  14  15
ENDBRANCH   2   3
TORSDOF 3
ENDMDL
MODEL        6
REMARK 921   NORMALIZED FREE ENERGY PREDICTED BY IDOCK:   -6.67 KCAL/MOL
REMARK 922        TOTAL FREE ENERGY PREDICTED BY IDOCK:   -8.06 KCAL/MOL
REMARK 923 INTER-LIGAND FREE ENERGY PREDICTED BY IDOCK:   -7.91 KCAL/MOL
REMARK 924 INTRA-LIGAND FREE ENERGY PREDICTED BY IDOCK:   -0.15 KCAL/MOL
REMARK 927      BINDING AFFINITY PREDICTED BY RF-SCORE:    0.00 PKD
ROOT
HETATM    1  C   UNL     1     -10.559   7.386  68.900  1.00  0.00    -0.176 C  
HETATM    2  O   UNL     1      -9.856   8.616  68.749  1.00  0.00    -0.164 OA 
ENDROOT
BRANCH   2   3
HETATM    3  C   UNL     1     -10.709   9.700  68.810  1.00  0.00    -0.206 A  
HETATM    4  N   UNL     1     -11.354   9.976  69.974  1.00  0.00    -0.266 NA 
HETATM    5  C   UNL     1     -12.131  11.062  70.038  1.00  0.00    -0.364 A  
HETATM    6  N   UNL     1     -12.672  11.362  71.272  1.00  0.00    -0.415 NA 
HETATM    7  N   UNL     1     -12.343  11.948  69.061  1.00  0.00    -0.149 NA 
HETATM    8  H2  UNL     1     -11.926  11.433  71.964  1.00  0.00     0.000 HD 
HETATM    9  C   UNL     1     -11.659  11.668  67.941  1.00  0.00    -0.298 A  
HETATM   10  H1  UNL     1     -13.265  12.190  71.321  1.00  0.00     0.000 HD 
HETATM   11  C   UNL     1     -10.832  10.575  67.731  1.00  0.00    -0.294 A  
HETATM   12  N   UNL     1     -10.278  10.625  66.470  1.00  0.00    -0.226 NA 
HETATM   13  C   UNL     1     -10.730  11.743  65.946  1.00  0.00    -0.282 A  
HETATM   14  N   UNL     1     -11.561  12.419  66.805  1.00  0.00    -0.390 NA 
BRANCH  14  15
HETATM   15  C1* UNL     1     -12.053  13.758  66.564  1.00  0.00    -0.443 C  
HETATM   16  O4* UNL     1     -12.976  13.693  65.454  1.00  0.00    -0.683 OA 
HETATM   17  C4* UNL     1     -12.347  14.273  64.285  1.00  0.00    -0.377 C  
HETATM   18  H2* UNL     1      -9.192  15.469  66.677  1.00  0.00     0.000 HD 
HETATM   19  C3* UNL     1     -11.044  14.949  64.728  1.00  0.00    -0.383 C  
HETATM   20  C2* UNL     1     -11.073  14.885  66.250  1.00  0.00    -0.340 C  
HETATM   21  O3* UNL     1     -10.985  16.315  64.299  1.00  0.00    -1.086 OA 
HETATM   22  H3* UNL     1     -10.177  16.734  64.573  1.00  0.00     0.000 HD 
HETATM   23  O2* UNL     1      -9.802  14.767  66.872  1.00  0.00    -0.233 OA 
BRANCH  17  24
HETATM   24  C5* UNL     1     -12.127  13.178  63.229  1.00  0.00    -0.386 C  
HETATM   25  O5* UNL     1     -13.132  12.172  63.348  1.00  0.00    -0.752 OA 
HETATM   26  H5* UNL     1     -12.996  11.496  62.696  1.00  0.00     0.000 HD 
ENDBRANCH  17  24
ENDBRANCH  14  15
ENDBRANCH   2   3
TORSDOF 3
ENDMDL
MODEL        7
REMARK 921   NORMALIZED FREE ENERGY PREDICTED BY IDOCK:   -6.61 KCAL/MOL
REMARK 922        TOTAL FREE ENERGY PREDICTED BY IDOCK:   -8.00 KCAL/MOL
REMARK 923 INTER-LIGAND FREE ENERGY PREDICTED BY IDOCK:   -7.79 KCAL/MOL
REMARK 924 INTRA-LIGAND FREE ENERGY PREDICTED BY IDOCK:   -0.20 KCAL/MOL
REMARK 927      BINDING AFFINITY PREDICTED BY RF-SCORE:    0.00 PKD
ROOT
HETATM    1  C   UNL     1      -9.714  18.386  68.468  1.00  0.00    -0.361 C  
HETATM    2  O   UNL     1      -8.922  17.231  68.723  1.00  0.00    -0.273 OA 
ENDROOT
BRANCH   2   3
HETATM    3  C   UNL     1      -9.691  16.085  68.768  1.00  0.00    -0.226 A  
HETATM    4  N   UNL     1     -10.295  15.734  69.933  1.00  0.00    -0.310 NA 
HETATM    5  C   UNL     1     -11.084  14.655  69.950  1.00  0.00    -0.201 A  
HETATM    6  N   UNL     1     -11.765  14.406  71.125  1.00  0.00    -0.494 NA 
HETATM    7  N   UNL     1     -11.372  13.862  68.914  1.00  0.00    -0.265 NA 
HETATM    8  H2  UNL     1     -12.305  15.231  71.389  1.00  0.00     0.000 HD 
HETATM    9  C   UNL     1     -10.792  14.262  67.772  1.00  0.00    -0.253 A  
HETATM   10  H1  UNL     1     -12.367  13.583  71.137  1.00  0.00     0.000 HD 
HETATM   11  C   UNL     1      -9.944  15.347  67.612  1.00  0.00    -0.225 A  
HETATM   12  N   UNL     1      -9.558  15.468  66.295  1.00  0.00    -0.283 NA 
HETATM   13  C   UNL     1     -10.190  14.501  65.667  1.00  0.00    -0.357 A  
HETATM   14  N   UNL     1     -10.963  13.750  66.518  1.00  0.00    -0.297 NA 
BRANCH  14  15
HETATM   15  C1* UNL     1     -11.903  12.743  66.075  1.00  0.00    -0.439 C  
HETATM   16  O4* UNL     1     -11.196  11.485  66.001  1.00  0.00    -0.270 OA 
HETATM   17  C4* UNL     1     -10.978  11.149  64.609  1.00  0.00    -0.168 C  
HETATM   18  H2* UNL     1     -13.358  14.361  63.547  1.00  0.00     0.000 HD 
HETATM   19  C3* UNL     1     -11.787  12.126  63.748  1.00  0.00    -0.500 C  
HETATM   20  C2* UNL     1     -12.631  12.912  64.744  1.00  0.00    -0.425 C  
HETATM   21  O3* UNL     1     -12.640  11.438  62.825  1.00  0.00    -0.952 OA 
HETATM   22  H3* UNL     1     -13.141  12.043  62.291  1.00  0.00     0.000 HD 
HETATM   23  O2* UNL     1     -12.904  14.256  64.375  1.00  0.00    -0.619 OA 
BRANCH  17  24
HETATM   24  C5* UNL     1      -9.472  11.187  64.305  1.00  0.00    -0.213 C  
HETATM   25  O5* UNL     1      -9.219  12.032  63.183  1.00  0.00    -0.662 OA 
HETATM   26  H5* UNL     1      -8.288  12.055  62.996  1.00  0.00     0.000 HD 
ENDBRANCH  17  24
ENDBRANCH  14  15
ENDBRANCH   2   3
TORSDOF 3
ENDMDL
MODEL        8
REMARK 921   NORMALIZED FREE ENERGY PREDICTED BY IDOCK:   -6.58 KCAL/MOL
REMARK 922        TOTAL FREE ENERGY PREDICTED BY IDOCK:   -7.96 KCAL/MOL
REMARK 923 INTER-LIGAND FREE ENERGY PREDICTED BY IDOCK:   -7.81 KCAL/MOL
REMARK 924 INTRA-LIGAND FREE ENERGY PREDICTED BY IDOCK:   -0.15 KCAL/MOL
REMARK 927      BINDING AFFINITY PREDICTED BY RF-SCORE:    0.00 PKD
ROOT
HETATM    1  C   UNL     1     -11.512  12.153  68.192  1.00  0.00    -0.317 C  
HETATM    2  O   UNL     1     -12.212  13.389  68.094  1.00  0.00    -0.284 OA 
ENDROOT
BRANCH   2   3
HETATM    3  C   UNL     1     -11.733  14.164  67.056  1.00  0.00    -0.405 A  
HETATM    4  N   UNL     1     -12.182  13.938  65.794  1.00  0.00    -0.432 NA 
HETATM    5  C   UNL     1     -11.756  14.732  64.807  1.00  0.00    -0.422 A  
HETATM    6  N   UNL     1     -12.328  14.536  63.566  1.00  0.00    -1.090 NA 
HETATM    7  N   UNL     1     -10.922  15.770  64.923  1.00  0.00    -0.450 NA 
HETATM    8  H2  UNL     1     -13.343  14.599  63.643  1.00  0.00     0.000 HD 
HETATM    9  C   UNL     1     -10.532  15.989  66.188  1.00  0.00    -0.326 A  
HETATM   10  H1  UNL     1     -12.002  15.142  62.813  1.00  0.00     0.000 HD 
HETATM   11  C   UNL     1     -10.882  15.242  67.301  1.00  0.00    -0.318 A  
HETATM   12  N   UNL     1     -10.313  15.774  68.438  1.00  0.00    -0.229 NA 
HETATM   13  C   UNL     1      -9.667  16.842  68.025  1.00  0.00    -0.243 A  
HETATM   14  N   UNL     1      -9.780  17.023  66.668  1.00  0.00    -0.264 NA 
BRANCH  14  15
HETATM   15  C1* UNL     1      -9.326  18.208  65.973  1.00  0.00    -0.007 C  
HETATM   16  O4* UNL     1      -7.887  18.136  65.876  1.00  0.00    -0.503 OA 
HETATM   17  C4* UNL     1      -7.304  19.086  66.800  1.00  0.00    -0.212 C  
HETATM   18  H2* UNL     1     -11.099  20.543  67.565  1.00  0.00     0.000 HD 
HETATM   19  C3* UNL     1      -8.429  19.972  67.348  1.00  0.00    -0.336 C  
HETATM   20  C2* UNL     1      -9.656  19.591  66.529  1.00  0.00    -0.378 C  
HETATM   21  O3* UNL     1      -8.140  21.365  67.173  1.00  0.00    -0.655 OA 
HETATM   22  H3* UNL     1      -8.837  21.914  67.513  1.00  0.00     0.000 HD 
HETATM   23  O2* UNL     1     -10.894  19.682  67.219  1.00  0.00    -0.474 OA 
BRANCH  17  24
HETATM   24  C5* UNL     1      -6.546  18.328  67.901  1.00  0.00    -0.203 C  
HETATM   25  O5* UNL     1      -6.498  19.113  69.092  1.00  0.00    -0.266 OA 
HETATM   26  H5* UNL     1      -6.029  18.644  69.772  1.00  0.00     0.000 HD 
ENDBRANCH  17  24
ENDBRANCH  14  15
ENDBRANCH   2   3
TORSDOF 3
ENDMDL
MODEL        9
REMARK 921   NORMALIZED FREE ENERGY PREDICTED BY IDOCK:   -6.55 KCAL/MOL
REMARK 922        TOTAL FREE ENERGY PREDICTED BY IDOCK:   -7.93 KCAL/MOL
REMARK 923 INTER-LIGAND FREE ENERGY PREDICTED BY IDOCK:   -7.77 KCAL/MOL
REMARK 924 INTRA-LIGAND FREE ENERGY PREDICTED BY IDOCK:   -0.15 KCAL/MOL
REMARK 927      BINDING AFFINITY PREDICTED BY RF-SCORE:    0.00 PKD
ROOT
HETATM    1  C   UNL     1     -11.110  10.604  67.370  1.00  0.00    -0.272 C  
HETATM    2  O   UNL     1     -12.090  11.633  67.455  1.00  0.00    -0.611 OA 
ENDROOT
BRANCH   2   3
HETATM    3  C   UNL     1     -11.772  12.707  66.649  1.00  0.00    -0.398 A  
HETATM    4  N   UNL     1     -12.183  12.713  65.354  1.00  0.00    -0.530 NA 
HETATM    5  C   UNL     1     -11.920  13.784  64.598  1.00  0.00    -0.416 A  
HETATM    6  N   UNL     1     -12.458  13.790  63.327  1.00  0.00    -1.092 NA 
HETATM    7  N   UNL     1     -11.290  14.897  64.986  1.00  0.00    -0.382 NA 
HETATM    8  H2  UNL     1     -13.466  13.649  63.381  1.00  0.00     0.000 HD 
HETATM    9  C   UNL     1     -10.935  14.874  66.280  1.00  0.00    -0.338 A  
HETATM   10  H1  UNL     1     -12.256  14.607  62.751  1.00  0.00     0.000 HD 
HETATM   11  C   UNL     1     -11.131  13.831  67.171  1.00  0.00    -0.302 A  
HETATM   12  N   UNL     1     -10.659  14.169  68.421  1.00  0.00    -0.252 NA 
HETATM   13  C   UNL     1     -10.224  15.403  68.296  1.00  0.00    -0.229 A  
HETATM   14  N   UNL     1     -10.382  15.881  67.017  1.00  0.00    -0.292 NA 
BRANCH  14  15
HETATM   15  C1* UNL     1     -10.160  17.260  66.639  1.00  0.00    -0.302 C  
HETATM   16  O4* UNL     1      -8.991  17.300  65.792  1.00  0.00    -0.521 OA 
HETATM   17  C4* UNL     1      -7.889  17.871  66.538  1.00  0.00    -0.264 C  
HETATM   18  H2* UNL     1     -10.525  18.751  69.601  1.00  0.00     0.000 HD 
HETATM   19  C3* UNL     1      -8.440  18.434  67.852  1.00  0.00    -0.261 C  
HETATM   20  C2* UNL     1      -9.954  18.322  67.717  1.00  0.00    -0.332 C  
HETATM   21  O3* UNL     1      -8.069  19.806  68.038  1.00  0.00    -0.303 OA 
HETATM   22  H3* UNL     1      -8.411  20.155  68.853  1.00  0.00     0.000 HD 
HETATM   23  O2* UNL     1     -10.653  18.090  68.931  1.00  0.00    -0.206 OA 
BRANCH  17  24
HETATM   24  C5* UNL     1      -6.808  16.798  66.751  1.00  0.00    -0.230 C  
HETATM   25  O5* UNL     1      -7.370  15.497  66.585  1.00  0.00    -0.241 OA 
HETATM   26  H5* UNL     1      -6.702  14.835  66.717  1.00  0.00     0.000 HD 
ENDBRANCH  17  24
ENDBRANCH  14  15
ENDBRANCH   2   3
TORSDOF 3
ENDMDL
MODEL       10
REMARK 921   NORMALIZED FREE ENERGY PREDICTED BY IDOCK:   -6.53 KCAL/MOL
REMARK 922        TOTAL FREE ENERGY PREDICTED BY IDOCK:   -7.91 KCAL/MOL
REMARK 923 INTER-LIGAND FREE ENERGY PREDICTED BY IDOCK:   -7.96 KCAL/MOL
REMARK 924 INTRA-LIGAND FREE ENERGY PREDICTED BY IDOCK:    0.06 KCAL/MOL
REMARK 927      BINDING AFFINITY PREDICTED BY RF-SCORE:    0.00 PKD
ROOT
HETATM    1  C   UNL     1     -11.498  12.074  66.793  1.00  0.00    -0.345 C  
HETATM    2  O   UNL     1     -11.972  13.301  67.338  1.00  0.00    -0.363 OA 
ENDROOT
BRANCH   2   3
HETATM    3  C   UNL     1     -11.250  14.380  66.869  1.00  0.00    -0.334 A  
HETATM    4  N   UNL     1     -11.560  14.914  65.659  1.00  0.00    -0.295 NA 
HETATM    5  C   UNL     1     -10.893  15.994  65.241  1.00  0.00    -0.362 A  
HETATM    6  N   UNL     1     -11.322  16.567  64.061  1.00  0.00    -1.559 NA 
HETATM    7  N   UNL     1      -9.932  16.643  65.905  1.00  0.00    -0.472 NA 
HETATM    8  H2  UNL     1     -12.317  16.783  64.127  1.00  0.00     0.000 HD 
HETATM    9  C   UNL     1      -9.680  16.114  67.112  1.00  0.00    -0.233 A  
HETATM   10  H1  UNL     1     -10.813  17.391  63.742  1.00  0.00     0.000 HD 
HETATM   11  C   UNL     1     -10.282  14.994  67.664  1.00  0.00    -0.236 A  
HETATM   12  N   UNL     1      -9.791  14.757  68.929  1.00  0.00    -0.224 NA 
HETATM   13  C   UNL     1      -8.940  15.735  69.151  1.00  0.00    -0.256 A  
HETATM   14  N   UNL     1      -8.847  16.592  68.082  1.00  0.00    -0.201 NA 
BRANCH  14  15
HETATM   15  C1* UNL     1      -8.131  17.849  68.117  1.00  0.00    -0.267 C  
HETATM   16  O4* UNL     1      -9.068  18.878  68.504  1.00  0.00    -0.330 OA 
HETATM   17  C4* UNL     1      -9.384  19.687  67.345  1.00  0.00    -0.326 C  
HETATM   18  H2* UNL     1      -6.461  17.659  65.235  1.00  0.00     0.000 HD 
HETATM   19  C3* UNL     1      -8.425  19.298  66.214  1.00  0.00    -0.319 C  
HETATM   20  C2* UNL     1      -7.419  18.356  66.865  1.00  0.00    -0.215 C  
HETATM   21  O3* UNL     1      -7.746  20.440  65.678  1.00  0.00    -0.533 OA 
HETATM   22  H3* UNL     1      -7.153  20.199  64.976  1.00  0.00     0.000 HD 
HETATM   23  O2* UNL     1      -6.904  17.343  66.014  1.00  0.00    -0.252 OA 
BRANCH  17  24
HETATM   24  C5* UNL     1     -10.862  19.490  66.974  1.00  0.00    -0.427 C  
HETATM   25  O5* UNL     1     -11.002  19.386  65.558  1.00  0.00    -0.411 OA 
HETATM   26  H5* UNL     1     -11.916  19.265  65.328  1.00  0.00     0.000 HD 
ENDBRANCH  17  24
ENDBRANCH  14  15
ENDBRANCH   2   3
TORSDOF 3
ENDMDL
MODEL       11
REMARK 921   NORMALIZED FREE ENERGY PREDICTED BY IDOCK:   -6.43 KCAL/MOL
REMARK 922        TOTAL FREE ENERGY PREDICTED BY IDOCK:   -7.78 KCAL/MOL
REMARK 923 INTER-LIGAND FREE ENERGY PREDICTED BY IDOCK:   -7.85 KCAL/MOL
REMARK 924 INTRA-LIGAND FREE ENERGY PREDICTED BY IDOCK:    0.06 KCAL/MOL
REMARK 927      BINDING AFFINITY PREDICTED BY RF-SCORE:    0.00 PKD
ROOT
HETATM    1  C   UNL     1     -12.976  10.712  71.150  1.00  0.00    -0.387 C  
HETATM    2  O   UNL     1     -11.725  11.061  70.568  1.00  0.00    -0.322 OA 
ENDROOT
BRANCH   2   3
HETATM    3  C   UNL     1     -11.861  12.062  69.628  1.00  0.00    -0.333 A  
HETATM    4  N   UNL     1     -12.115  13.332  70.040  1.00  0.00    -0.328 NA 
HETATM    5  C   UNL     1     -12.187  14.304  69.124  1.00  0.00    -0.237 A  
HETATM    6  N   UNL     1     -12.331  15.591  69.601  1.00  0.00    -0.565 NA 
HETATM    7  N   UNL     1     -12.018  14.170  67.806  1.00  0.00    -0.372 NA 
HETATM    8  H2  UNL     1     -11.581  15.798  70.261  1.00  0.00     0.000 HD 
HETATM    9  C   UNL     1     -11.729  12.912  67.440  1.00  0.00    -0.372 A  
HETATM   10  H1  UNL     1     -12.386  16.333  68.902  1.00  0.00     0.000 HD 
HETATM   11  C   UNL     1     -11.636  11.810  68.275  1.00  0.00    -0.308 A  
HETATM   12  N   UNL     1     -11.300  10.685  67.554  1.00  0.00    -0.441 NA 
HETATM   13  C   UNL     1     -11.154  11.107  66.317  1.00  0.00    -0.111 A  
HETATM   14  N   UNL     1     -11.391  12.455  66.199  1.00  0.00    -0.333 NA 
BRANCH  14  15
HETATM   15  C1* UNL     1     -11.128  13.216  64.997  1.00  0.00    -0.301 C  
HETATM   16  O4* UNL     1      -9.774  13.712  65.079  1.00  0.00    -0.107 OA 
HETATM   17  C4* UNL     1      -9.809  15.134  65.349  1.00  0.00    -0.274 C  
HETATM   18  H2* UNL     1     -13.912  15.048  64.835  1.00  0.00     0.000 HD 
HETATM   19  C3* UNL     1     -11.257  15.614  65.205  1.00  0.00    -0.282 C  
HETATM   20  C2* UNL     1     -12.009  14.412  64.644  1.00  0.00    -0.464 C  
HETATM   21  O3* UNL     1     -11.362  16.719  64.298  1.00  0.00    -1.313 OA 
HETATM   22  H3* UNL     1     -12.260  17.016  64.209  1.00  0.00     0.000 HD 
HETATM   23  O2* UNL     1     -13.364  14.303  65.055  1.00  0.00    -0.509 OA 
BRANCH  17  24
HETATM   24  C5* UNL     1      -9.224  15.403  66.745  1.00  0.00    -0.249 C  
HETATM   25  O5* UNL     1      -9.993  16.401  67.415  1.00  0.00    -0.242 OA 
HETATM   26  H5* UNL     1      -9.632  16.566  68.278  1.00  0.00     0.000 HD 
ENDBRANCH  17  24
ENDBRANCH  14  15
ENDBRANCH   2   3
TORSDOF 3
ENDMDL
MODEL       12
REMARK 921   NORMALIZED FREE ENERGY PREDICTED BY IDOCK:   -6.41 KCAL/MOL
REMARK 922        TOTAL FREE ENERGY PREDICTED BY IDOCK:   -7.76 KCAL/MOL
REMARK 923 INTER-LIGAND FREE ENERGY PREDICTED BY IDOCK:   -7.71 KCAL/MOL
REMARK 924 INTRA-LIGAND FREE ENERGY PREDICTED BY IDOCK:   -0.05 KCAL/MOL
REMARK 927      BINDING AFFINITY PREDICTED BY RF-SCORE:    0.00 PKD
ROOT
HETATM    1  C   UNL     1      -7.470  17.284  66.194  1.00  0.00    -0.286 C  
HETATM    2  O   UNL     1      -8.572  17.135  67.083  1.00  0.00    -0.196 OA 
ENDROOT
BRANCH   2   3
HETATM    3  C   UNL     1      -9.549  16.317  66.551  1.00  0.00    -0.264 A  
HETATM    4  N   UNL     1     -10.224  16.720  65.443  1.00  0.00    -0.623 NA 
HETATM    5  C   UNL     1     -11.127  15.895  64.902  1.00  0.00    -0.389 A  
HETATM    6  N   UNL     1     -11.701  16.301  63.715  1.00  0.00    -1.488 NA 
HETATM    7  N   UNL     1     -11.442  14.669  65.330  1.00  0.00    -0.346 NA 
HETATM    8  H2  UNL     1     -10.971  16.504  63.033  1.00  0.00     0.000 HD 
HETATM    9  C   UNL     1     -10.727  14.287  66.400  1.00  0.00    -0.297 A  
HETATM   10  H1  UNL     1     -12.390  15.671  63.303  1.00  0.00     0.000 HD 
HETATM   11  C   UNL     1      -9.775  15.041  67.068  1.00  0.00    -0.236 A  
HETATM   12  N   UNL     1      -9.228  14.319  68.106  1.00  0.00    -0.195 NA 
HETATM   13  C   UNL     1      -9.810  13.141  68.041  1.00  0.00    -0.231 A  
HETATM   14  N   UNL     1     -10.718  13.068  67.014  1.00  0.00    -0.257 NA 
BRANCH  14  15
HETATM   15  C1* UNL     1     -11.367  11.843  66.597  1.00  0.00    -0.337 C  
HETATM   16  O4* UNL     1     -11.704  11.098  67.788  1.00  0.00    -0.560 OA 
HETATM   17  C4* UNL     1     -10.805   9.970  67.908  1.00  0.00    -0.271 C  
HETATM   18  H2* UNL     1      -9.301  10.877  64.163  1.00  0.00     0.000 HD 
HETATM   19  C3* UNL     1     -10.002   9.858  66.607  1.00  0.00    -0.217 C  
HETATM   20  C2* UNL     1     -10.641  10.874  65.668  1.00  0.00    -0.164 C  
HETATM   21  O3* UNL     1     -10.094   8.545  66.038  1.00  0.00    -0.473 OA 
HETATM   22  H3* UNL     1      -9.596   8.476  65.232  1.00  0.00     0.000 HD 
HETATM   23  O2* UNL     1      -9.753  11.481  64.741  1.00  0.00    -0.239 OA 
BRANCH  17  24
HETATM   24  C5* UNL     1      -9.916  10.155  69.148  1.00  0.00    -0.210 C  
HETATM   25  O5* UNL     1     -10.718  10.482  70.281  1.00  0.00    -0.429 OA 
HETATM   26  H5* UNL     1     -10.168  10.596  71.048  1.00  0.00     0.000 HD 
ENDBRANCH  17  24
ENDBRANCH  14  15
ENDBRANCH   2   3
TORSDOF 3
ENDMDL
MODEL       13
REMARK 921   NORMALIZED FREE ENERGY PREDICTED BY IDOCK:   -6.41 KCAL/MOL
REMARK 922        TOTAL FREE ENERGY PREDICTED BY IDOCK:   -7.76 KCAL/MOL
REMARK 923 INTER-LIGAND FREE ENERGY PREDICTED BY IDOCK:   -8.10 KCAL/MOL
REMARK 924 INTRA-LIGAND FREE ENERGY PREDICTED BY IDOCK:    0.34 KCAL/MOL
REMARK 927      BINDING AFFINITY PREDICTED BY RF-SCORE:    0.00 PKD
ROOT
HETATM    1  C   UNL     1     -12.622  11.856  63.214  1.00  0.00    -0.344 C  
HETATM    2  O   UNL     1     -13.334  12.268  64.376  1.00  0.00    -0.786 OA 
ENDROOT
BRANCH   2   3
HETATM    3  C   UNL     1     -12.497  12.855  65.304  1.00  0.00    -0.493 A  
HETATM    4  N   UNL     1     -12.033  12.114  66.345  1.00  0.00    -0.621 NA 
HETATM    5  C   UNL     1     -11.178  12.676  67.205  1.00  0.00    -0.298 A  
HETATM    6  N   UNL     1     -10.647  11.851  68.176  1.00  0.00    -0.201 NA 
HETATM    7  N   UNL     1     -10.696  13.921  67.151  1.00  0.00    -0.281 NA 
HETATM    8  H2  UNL     1     -10.209  11.041  67.735  1.00  0.00     0.000 HD 
HETATM    9  C   UNL     1     -11.142  14.609  66.089  1.00  0.00    -0.334 A  
HETATM   10  H1  UNL     1      -9.995  12.279  68.832  1.00  0.00     0.000 HD 
HETATM   11  C   UNL     1     -12.037  14.160  65.131  1.00  0.00    -0.414 A  
HETATM   12  N   UNL     1     -12.248  15.130  64.175  1.00  0.00    -0.580 NA 
HETATM   13  C   UNL     1     -11.467  16.128  64.528  1.00  0.00    -0.230 A  
HETATM   14  N   UNL     1     -10.766  15.855  65.676  1.00  0.00    -0.348 NA 
BRANCH  14  15
HETATM   15  C1* UNL     1      -9.704  16.693  66.190  1.00  0.00    -0.303 C  
HETATM   16  O4* UNL     1      -9.347  16.196  67.499  1.00  0.00    -0.215 OA 
HETATM   17  C4* UNL     1      -9.849  17.110  68.503  1.00  0.00    -0.297 C  
HETATM   18  H2* UNL     1     -10.934  19.711  65.475  1.00  0.00     0.000 HD 
HETATM   19  C3* UNL     1     -10.353  18.372  67.793  1.00  0.00    -0.405 C  
HETATM   20  C2* UNL     1      -9.925  18.196  66.341  1.00  0.00    -0.376 C  
HETATM   21  O3* UNL     1      -9.759  19.559  68.335  1.00  0.00    -0.361 OA 
HETATM   22  H3* UNL     1     -10.072  20.340  67.895  1.00  0.00     0.000 HD 
HETATM   23  O2* UNL     1     -10.797  18.775  65.381  1.00  0.00    -0.563 OA 
BRANCH  17  24
HETATM   24  C5* UNL     1     -10.940  16.410  69.330  1.00  0.00    -0.322 C  
HETATM   25  O5* UNL     1     -10.425  15.209  69.903  1.00  0.00    -0.330 OA 
HETATM   26  H5* UNL     1     -11.099  14.777  70.414  1.00  0.00     0.000 HD 
ENDBRANCH  17  24
ENDBRANCH  14  15
ENDBRANCH   2   3
TORSDOF 3
ENDMDL
MODEL       14
REMARK 921   NORMALIZED FREE ENERGY PREDICTED BY IDOCK:   -6.37 KCAL/MOL
REMARK 922        TOTAL FREE ENERGY PREDICTED BY IDOCK:   -7.72 KCAL/MOL
REMARK 923 INTER-LIGAND FREE ENERGY PREDICTED BY IDOCK:   -7.63 KCAL/MOL
REMARK 924 INTRA-LIGAND FREE ENERGY PREDICTED BY IDOCK:   -0.08 KCAL/MOL
REMARK 927      BINDING AFFINITY PREDICTED BY RF-SCORE:    0.00 PKD
ROOT
HETATM    1  C   UNL     1     -10.321   9.545  70.902  1.00  0.00    -0.302 C  
HETATM    2  O   UNL     1     -11.420   9.596  69.998  1.00  0.00    -0.225 OA 
ENDROOT
BRANCH   2   3
HETATM    3  C   UNL     1     -11.003   9.816  68.701  1.00  0.00    -0.147 A  
HETATM    4  N   UNL     1     -10.500   8.782  67.978  1.00  0.00    -0.222 NA 
HETATM    5  C   UNL     1     -10.153   8.994  66.704  1.00  0.00    -0.285 A  
HETATM    6  N   UNL     1      -9.757   7.888  65.980  1.00  0.00    -0.452 NA 
HETATM    7  N   UNL     1     -10.262  10.142  66.030  1.00  0.00    -0.243 NA 
HETATM    8  H2  UNL     1     -10.483   7.172  66.023  1.00  0.00     0.000 HD 
HETATM    9  C   UNL     1     -10.800  11.130  66.761  1.00  0.00    -0.268 A  
HETATM   10  H1  UNL     1      -9.493   8.050  65.008  1.00  0.00     0.000 HD 
HETATM   11  C   UNL     1     -11.190  11.056  68.089  1.00  0.00    -0.302 A  
HETATM   12  N   UNL     1     -11.722  12.257  68.504  1.00  0.00    -0.317 NA 
HETATM   13  C   UNL     1     -11.689  13.028  67.439  1.00  0.00    -0.374 A  
HETATM   14  N   UNL     1     -11.150  12.384  66.351  1.00  0.00    -0.286 NA 
BRANCH  14  15
HETATM   15  C1* UNL     1     -11.159  12.925  65.009  1.00  0.00    -0.292 C  
HETATM   16  O4* UNL     1      -9.915  13.633  64.814  1.00  0.00    -0.285 OA 
HETATM   17  C4* UNL     1     -10.175  15.057  64.832  1.00  0.00    -0.225 C  
HETATM   18  H2* UNL     1     -14.227  14.231  64.917  1.00  0.00     0.000 HD 
HETATM   19  C3* UNL     1     -11.694  15.267  64.808  1.00  0.00    -0.276 C  
HETATM   20  C2* UNL     1     -12.273  13.876  64.578  1.00  0.00    -0.417 C  
HETATM   21  O3* UNL     1     -12.092  16.141  63.744  1.00  0.00    -1.355 OA 
HETATM   22  H3* UNL     1     -13.032  16.271  63.730  1.00  0.00     0.000 HD 
HETATM   23  O2* UNL     1     -13.534  13.640  65.186  1.00  0.00    -0.484 OA 
BRANCH  17  24
HETATM   24  C5* UNL     1      -9.502  15.683  66.063  1.00  0.00    -0.355 C  
HETATM   25  O5* UNL     1      -8.908  16.933  65.715  1.00  0.00    -0.522 OA 
HETATM   26  H5* UNL     1      -8.492  17.320  66.476  1.00  0.00     0.000 HD 
ENDBRANCH  17  24
ENDBRANCH  14  15
ENDBRANCH   2   3
TORSDOF 3
ENDMDL
MODEL       15
REMARK 921   NORMALIZED FREE ENERGY PREDICTED BY IDOCK:   -6.34 KCAL/MOL
REMARK 922        TOTAL FREE ENERGY PREDICTED BY IDOCK:   -7.68 KCAL/MOL
REMARK 923 INTER-LIGAND FREE ENERGY PREDICTED BY IDOCK:   -7.58 KCAL/MOL
REMARK 924 INTRA-LIGAND FREE ENERGY PREDICTED BY IDOCK:   -0.10 KCAL/MOL
REMARK 927      BINDING AFFINITY PREDICTED BY RF-SCORE:    0.00 PKD
ROOT
HETATM    1  C   UNL     1      -5.858  18.824  69.209  1.00  0.00    -0.226 C  
HETATM    2  O   UNL     1      -6.339  18.172  68.038  1.00  0.00    -0.177 OA 
ENDROOT
BRANCH   2   3
HETATM    3  C   UNL     1      -7.709  18.008  68.073  1.00  0.00    -0.250 A  
HETATM    4  N   UNL     1      -8.483  18.984  68.615  1.00  0.00    -0.362 NA 
HETATM    5  C   UNL     1      -9.813  18.840  68.590  1.00  0.00    -0.392 A  
HETATM    6  N   UNL     1     -10.558  19.908  69.048  1.00  0.00    -0.448 NA 
HETATM    7  N   UNL     1     -10.494  17.820  68.061  1.00  0.00    -0.390 NA 
HETATM    8  H2  UNL     1     -10.294  20.752  68.539  1.00  0.00     0.000 HD 
HETATM    9  C   UNL     1      -9.699  16.896  67.498  1.00  0.00    -0.249 A  
HETATM   10  H1  UNL     1     -11.571  19.798  69.029  1.00  0.00     0.000 HD 
HETATM   11  C   UNL     1      -8.314  16.909  67.463  1.00  0.00    -0.189 A  
HETATM   12  N   UNL     1      -7.838  15.810  66.782  1.00  0.00    -0.235 NA 
HETATM   13  C   UNL     1      -8.914  15.168  66.381  1.00  0.00    -0.279 A  
HETATM   14  N   UNL     1     -10.069  15.795  66.780  1.00  0.00    -0.264 NA 
BRANCH  14  15
HETATM   15  C1* UNL     1     -11.389  15.414  66.327  1.00  0.00    -0.081 C  
HETATM   16  O4* UNL     1     -11.565  14.010  66.619  1.00  0.00    -0.347 OA 
HETATM   17  C4* UNL     1     -11.493  13.260  65.383  1.00  0.00    -0.304 C  
HETATM   18  H2* UNL     1     -11.416  16.839  63.311  1.00  0.00     0.000 HD 
HETATM   19  C3* UNL     1     -11.500  14.256  64.217  1.00  0.00    -0.242 C  
HETATM   20  C2* UNL     1     -11.779  15.607  64.864  1.00  0.00    -0.055 C  
HETATM   21  O3* UNL     1     -12.528  13.950  63.266  1.00  0.00    -1.113 OA 
HETATM   22  H3* UNL     1     -12.532  14.567  62.544  1.00  0.00     0.000 HD 
HETATM   23  O2* UNL     1     -11.173  16.719  64.222  1.00  0.00    -1.163 OA 
BRANCH  17  24
HETATM   24  C5* UNL     1     -10.242  12.367  65.401  1.00  0.00    -0.278 C  
HETATM   25  O5* UNL     1      -9.618  12.372  64.118  1.00  0.00    -0.538 OA 
HETATM   26  H5* UNL     1      -8.845  11.820  64.129  1.00  0.00     0.000 HD 
ENDBRANCH  17  24
ENDBRANCH  14  15
ENDBRANCH   2   3
TORSDOF 3
ENDMDL
MODEL       16
REMARK 921   NORMALIZED FREE ENERGY PREDICTED BY IDOCK:   -6.25 KCAL/MOL
REMARK 922        TOTAL FREE ENERGY PREDICTED BY IDOCK:   -7.57 KCAL/MOL
REMARK 923 INTER-LIGAND FREE ENERGY PREDICTED BY IDOCK:   -7.52 KCAL/MOL
REMARK 924 INTRA-LIGAND FREE ENERGY PREDICTED BY IDOCK:   -0.05 KCAL/MOL
REMARK 927      BINDING AFFINITY PREDICTED BY RF-SCORE:    0.00 PKD
ROOT
HETATM    1  C   UNL     1     -13.111  11.193  71.886  1.00  0.00    -0.408 C  
HETATM    2  O   UNL     1     -12.175  11.654  70.917  1.00  0.00    -0.364 OA 
ENDROOT
BRANCH   2   3
HETATM    3  C   UNL     1     -12.224  13.026  70.774  1.00  0.00    -0.272 A  
HETATM    4  N   UNL     1     -12.737  13.783  71.778  1.00  0.00    -0.310 NA 
HETATM    5  C   UNL     1     -12.726  15.114  71.653  1.00  0.00    -0.356 A  
HETATM    6  N   UNL     1     -13.151  15.841  72.746  1.00  0.00    -0.468 NA 
HETATM    7  N   UNL     1     -12.237  15.813  70.624  1.00  0.00    -0.401 NA 
HETATM    8  H2  UNL     1     -12.611  15.570  73.569  1.00  0.00     0.000 HD 
HETATM    9  C   UNL     1     -11.702  15.036  69.670  1.00  0.00    -0.321 A  
HETATM   10  H1  UNL     1     -13.143  16.857  72.650  1.00  0.00     0.000 HD 
HETATM   11  C   UNL     1     -11.658  13.651  69.662  1.00  0.00    -0.278 A  
HETATM   12  N   UNL     1     -11.012  13.195  68.534  1.00  0.00    -0.253 NA 
HETATM   13  C   UNL     1     -10.641  14.282  67.894  1.00  0.00    -0.240 A  
HETATM   14  N   UNL     1     -11.025  15.426  68.550  1.00  0.00    -0.265 NA 
BRANCH  14  15
HETATM   15  C1* UNL     1     -10.595  16.754  68.172  1.00  0.00    -0.350 C  
HETATM   16  O4* UNL     1     -11.323  17.129  66.982  1.00  0.00     0.286 OA 
HETATM   17  C4* UNL     1     -10.425  17.079  65.847  1.00  0.00    -0.274 C  
HETATM   18  H2* UNL     1      -7.290  16.412  68.460  1.00  0.00     0.000 HD 
HETATM   19  C3* UNL     1      -8.998  16.886  66.372  1.00  0.00    -0.283 C  
HETATM   20  C2* UNL     1      -9.121  17.026  67.885  1.00  0.00    -0.232 C  
HETATM   21  O3* UNL     1      -8.106  17.885  65.863  1.00  0.00    -0.524 OA 
HETATM   22  H3* UNL     1      -7.221  17.765  66.188  1.00  0.00     0.000 HD 
HETATM   23  O2* UNL     1      -8.207  16.243  68.639  1.00  0.00    -0.190 OA 
BRANCH  17  24
HETATM   24  C5* UNL     1     -10.870  15.959  64.893  1.00  0.00    -0.400 C  
HETATM   25  O5* UNL     1     -11.513  16.517  63.748  1.00  0.00    -1.615 OA 
HETATM   26  H5* UNL     1     -11.788  15.824  63.159  1.00  0.00     0.000 HD 
ENDBRANCH  17  24
ENDBRANCH  14  15
ENDBRANCH   2   3
TORSDOF 3
ENDMDL
MODEL       17
REMARK 921   NORMALIZED FREE ENERGY PREDICTED BY IDOCK:   -6.24 KCAL/MOL
REMARK 922        TOTAL FREE ENERGY PREDICTED BY IDOCK:   -7.55 KCAL/MOL
REMARK 923 INTER-LIGAND FREE ENERGY PREDICTED BY IDOCK:   -7.78 KCAL/MOL
REMARK 924 INTRA-LIGAND FREE ENERGY PREDICTED BY IDOCK:    0.23 KCAL/MOL
REMARK 927      BINDING AFFINITY PREDICTED BY RF-SCORE:    0.00 PKD
ROOT
HETATM    1  C   UNL     1     -12.421  14.845  71.712  1.00  0.00    -0.339 C  
HETATM    2  O   UNL     1     -12.830  14.032  70.617  1.00  0.00    -0.316 OA 
ENDROOT
BRANCH   2   3
HETATM    3  C   UNL     1     -12.123  14.331  69.469  1.00  0.00    -0.330 A  
HETATM    4  N   UNL     1     -11.691  15.602  69.265  1.00  0.00    -0.358 NA 
HETATM    5  C   UNL     1     -10.958  15.867  68.178  1.00  0.00    -0.335 A  
HETATM    6  N   UNL     1     -10.446  17.145  68.075  1.00  0.00    -0.354 NA 
HETATM    7  N   UNL     1     -10.574  14.993  67.244  1.00  0.00    -0.274 NA 
HETATM    8  H2  UNL     1      -9.909  17.367  68.914  1.00  0.00     0.000 HD 
HETATM    9  C   UNL     1     -10.984  13.740  67.499  1.00  0.00    -0.272 A  
HETATM   10  H1  UNL     1      -9.887  17.347  67.246  1.00  0.00     0.000 HD 
HETATM   11  C   UNL     1     -11.756  13.327  68.573  1.00  0.00    -0.352 A  
HETATM   12  N   UNL     1     -11.963  11.966  68.523  1.00  0.00    -0.422 NA 
HETATM   13  C   UNL     1     -11.298  11.561  67.463  1.00  0.00    -0.299 A  
HETATM   14  N   UNL     1     -10.675  12.600  66.815  1.00  0.00    -0.237 NA 
BRANCH  14  15
HETATM   15  C1* UNL     1      -9.730  12.424  65.733  1.00  0.00    -0.200 C  
HETATM   16  O4* UNL     1     -10.179  13.232  64.623  1.00  0.00    -0.364 OA 
HETATM   17  C4* UNL     1     -10.722  12.364  63.599  1.00  0.00    -0.455 C  
HETATM   18  H2* UNL     1      -9.396   9.105  65.773  1.00  0.00     0.000 HD 
HETATM   19  C3* UNL     1     -10.393  10.915  63.975  1.00  0.00    -0.349 C  
HETATM   20  C2* UNL     1      -9.461  11.028  65.176  1.00  0.00    -0.228 C  
HETATM   21  O3* UNL     1      -9.729  10.227  62.907  1.00  0.00    -0.460 OA 
HETATM   22  H3* UNL     1      -9.526   9.329  63.140  1.00  0.00     0.000 HD 
HETATM   23  O2* UNL     1      -9.564   9.973  66.120  1.00  0.00    -0.183 OA 
BRANCH  17  24
HETATM   24  C5* UNL     1     -12.231  12.621  63.459  1.00  0.00    -0.547 C  
HETATM   25  O5* UNL     1     -12.482  14.022  63.356  1.00  0.00    -1.108 OA 
HETATM   26  H5* UNL     1     -13.414  14.180  63.270  1.00  0.00     0.000 HD 
ENDBRANCH  17  24
ENDBRANCH  14  15
ENDBRANCH   2   3
TORSDOF 3
ENDMDL
MODEL       18
REMARK 921   NORMALIZED FREE ENERGY PREDICTED BY IDOCK:   -6.18 KCAL/MOL
REMARK 922        TOTAL FREE ENERGY PREDICTED BY IDOCK:   -7.49 KCAL/MOL
REMARK 923 INTER-LIGAND FREE ENERGY PREDICTED BY IDOCK:   -7.79 KCAL/MOL
REMARK 924 INTRA-LIGAND FREE ENERGY PREDICTED BY IDOCK:    0.30 KCAL/MOL
REMARK 927      BINDING AFFINITY PREDICTED BY RF-SCORE:    0.00 PKD
ROOT
HETATM    1  C   UNL     1      -9.942  11.318  63.205  1.00  0.00    -0.393 C  
HETATM    2  O   UNL     1     -11.050  11.248  64.096  1.00  0.00    -0.354 OA 
ENDROOT
BRANCH   2   3
HETATM    3  C   UNL     1     -11.277  12.458  64.722  1.00  0.00    -0.310 A  
HETATM    4  N   UNL     1     -11.427  13.579  63.969  1.00  0.00    -0.359 NA 
HETATM    5  C   UNL     1     -11.704  14.735  64.582  1.00  0.00    -0.422 A  
HETATM    6  N   UNL     1     -11.961  15.819  63.768  1.00  0.00    -1.165 NA 
HETATM    7  N   UNL     1     -11.874  14.919  65.895  1.00  0.00    -0.191 NA 
HETATM    8  H2  UNL     1     -12.711  15.588  63.116  1.00  0.00     0.000 HD 
HETATM    9  C   UNL     1     -11.760  13.785  66.602  1.00  0.00    -0.394 A  
HETATM   10  H1  UNL     1     -12.173  16.701  64.236  1.00  0.00     0.000 HD 
HETATM   11  C   UNL     1     -11.463  12.527  66.103  1.00  0.00    -0.377 A  
HETATM   12  N   UNL     1     -11.450  11.594  67.117  1.00  0.00    -0.478 NA 
HETATM   13  C   UNL     1     -11.772  12.269  68.200  1.00  0.00    -0.349 A  
HETATM   14  N   UNL     1     -11.983  13.600  67.937  1.00  0.00    -0.363 NA 
BRANCH  14  15
HETATM   15  C1* UNL     1     -12.522  14.536  68.899  1.00  0.00     0.102 C  
HETATM   16  O4* UNL     1     -11.868  15.807  68.690  1.00  0.00    -0.385 OA 
HETATM   17  C4* UNL     1     -10.931  16.037  69.770  1.00  0.00    -0.334 C  
HETATM   18  H2* UNL     1     -12.413  12.672  71.663  1.00  0.00     0.000 HD 
HETATM   19  C3* UNL     1     -11.164  14.968  70.843  1.00  0.00    -0.229 C  
HETATM   20  C2* UNL     1     -12.423  14.236  70.393  1.00  0.00    -0.362 C  
HETATM   21  O3* UNL     1     -11.377  15.550  72.135  1.00  0.00    -0.417 OA 
HETATM   22  H3* UNL     1     -11.521  14.887  72.800  1.00  0.00     0.000 HD 
HETATM   23  O2* UNL     1     -12.474  12.858  70.734  1.00  0.00    -0.349 OA 
BRANCH  17  24
HETATM   24  C5* UNL     1      -9.498  16.026  69.213  1.00  0.00    -0.245 C  
HETATM   25  O5* UNL     1      -8.843  14.809  69.570  1.00  0.00    -0.412 OA 
HETATM   26  H5* UNL     1      -7.958  14.802  69.225  1.00  0.00     0.000 HD 
ENDBRANCH  17  24
ENDBRANCH  14  15
ENDBRANCH   2   3
TORSDOF 3
ENDMDL
MODEL       19
REMARK 921   NORMALIZED FREE ENERGY PREDICTED BY IDOCK:   -6.17 KCAL/MOL
REMARK 922        TOTAL FREE ENERGY PREDICTED BY IDOCK:   -7.48 KCAL/MOL
REMARK 923 INTER-LIGAND FREE ENERGY PREDICTED BY IDOCK:   -7.40 KCAL/MOL
REMARK 924 INTRA-LIGAND FREE ENERGY PREDICTED BY IDOCK:   -0.08 KCAL/MOL
REMARK 927      BINDING AFFINITY PREDICTED BY RF-SCORE:    0.00 PKD
ROOT
HETATM    1  C   UNL     1     -13.086   8.657  72.280  1.00  0.00    -0.372 C  
HETATM    2  O   UNL     1     -12.672   9.070  70.982  1.00  0.00    -0.229 OA 
ENDROOT
BRANCH   2   3
HETATM    3  C   UNL     1     -12.716  10.443  70.846  1.00  0.00    -0.385 A  
HETATM    4  N   UNL     1     -13.178  11.200  71.874  1.00  0.00    -0.454 NA 
HETATM    5  C   UNL     1     -13.162  12.531  71.753  1.00  0.00    -0.344 A  
HETATM    6  N   UNL     1     -13.533  13.257  72.867  1.00  0.00    -0.607 NA 
HETATM    7  N   UNL     1     -12.713  13.230  70.707  1.00  0.00    -0.255 NA 
HETATM    8  H2  UNL     1     -12.961  12.978  73.664  1.00  0.00     0.000 HD 
HETATM    9  C   UNL     1     -12.226  12.453  69.728  1.00  0.00    -0.131 A  
HETATM   10  H1  UNL     1     -13.521  14.273  72.774  1.00  0.00     0.000 HD 
HETATM   11  C   UNL     1     -12.193  11.067  69.713  1.00  0.00    -0.318 A  
HETATM   12  N   UNL     1     -11.600  10.610  68.556  1.00  0.00    -0.351 NA 
HETATM   13  C   UNL     1     -11.248  11.697  67.904  1.00  0.00    -0.269 A  
HETATM   14  N   UNL     1     -11.594  12.841  68.581  1.00  0.00    -0.292 NA 
BRANCH  14  15
HETATM   15  C1* UNL     1     -11.170  14.168  68.190  1.00  0.00    -0.276 C  
HETATM   16  O4* UNL     1     -12.120  14.664  67.221  1.00  0.00    -0.358 OA 
HETATM   17  C4* UNL     1     -11.507  14.646  65.909  1.00  0.00    -0.338 C  
HETATM   18  H2* UNL     1      -7.916  13.627  67.692  1.00  0.00     0.000 HD 
HETATM   19  C3* UNL     1     -10.015  14.339  66.082  1.00  0.00    -0.314 C  
HETATM   20  C2* UNL     1      -9.783  14.379  67.588  1.00  0.00    -0.219 C  
HETATM   21  O3* UNL     1      -9.193  15.322  65.438  1.00  0.00    -0.305 OA 
HETATM   22  H3* UNL     1      -8.269  15.131  65.545  1.00  0.00     0.000 HD 
HETATM   23  O2* UNL     1      -8.779  13.496  68.067  1.00  0.00    -0.164 OA 
BRANCH  17  24
HETATM   24  C5* UNL     1     -12.231  13.621  65.022  1.00  0.00    -0.421 C  
HETATM   25  O5* UNL     1     -12.340  14.118  63.688  1.00  0.00    -0.998 OA 
HETATM   26  H5* UNL     1     -12.788  13.484  63.140  1.00  0.00     0.000 HD 
ENDBRANCH  17  24
ENDBRANCH  14  15
ENDBRANCH   2   3
TORSDOF 3
ENDMDL
MODEL       20
REMARK 921   NORMALIZED FREE ENERGY PREDICTED BY IDOCK:   -6.08 KCAL/MOL
REMARK 922        TOTAL FREE ENERGY PREDICTED BY IDOCK:   -7.37 KCAL/MOL
REMARK 923 INTER-LIGAND FREE ENERGY PREDICTED BY IDOCK:   -7.23 KCAL/MOL
REMARK 924 INTRA-LIGAND FREE ENERGY PREDICTED BY IDOCK:   -0.14 KCAL/MOL
REMARK 927      BINDING AFFINITY PREDICTED BY RF-SCORE:    0.00 PKD
ROOT
HETATM    1  C   UNL     1     -10.483   6.728  69.109  1.00  0.00    -0.216 C  
HETATM    2  O   UNL     1     -10.811   8.107  68.973  1.00  0.00    -0.133 OA 
ENDROOT
BRANCH   2   3
HETATM    3  C   UNL     1     -10.342   8.628  67.784  1.00  0.00    -0.242 A  
HETATM    4  N   UNL     1      -9.592   7.847  66.964  1.00  0.00    -0.177 NA 
HETATM    5  C   UNL     1      -9.193   8.343  65.789  1.00  0.00    -0.111 A  
HETATM    6  N   UNL     1      -8.533   7.474  64.943  1.00  0.00    -0.348 NA 
HETATM    7  N   UNL     1      -9.468   9.557  65.302  1.00  0.00    -0.269 NA 
HETATM    8  H2  UNL     1      -9.108   6.645  64.788  1.00  0.00     0.000 HD 
HETATM    9  C   UNL     1     -10.244  10.285  66.119  1.00  0.00    -0.217 A  
HETATM   10  H1  UNL     1      -8.229   7.853  64.047  1.00  0.00     0.000 HD 
HETATM   11  C   UNL     1     -10.717   9.905  67.365  1.00  0.00    -0.260 A  
HETATM   12  N   UNL     1     -11.502  10.898  67.907  1.00  0.00    -0.487 NA 
HETATM   13  C   UNL     1     -11.535  11.842  66.992  1.00  0.00    -0.298 A  
HETATM   14  N   UNL     1     -10.796  11.511  65.881  1.00  0.00    -0.275 NA 
BRANCH  14  15
HETATM   15  C1* UNL     1     -10.802  12.276  64.653  1.00  0.00    -0.308 C  
HETATM   16  O4* UNL     1      -9.812  13.319  64.781  1.00  0.00    -0.160 OA 
HETATM   17  C4* UNL     1     -10.486  14.588  64.964  1.00  0.00    -0.429 C  
HETATM   18  H2* UNL     1     -14.085  12.688  64.228  1.00  0.00     0.000 HD 
HETATM   19  C3* UNL     1     -11.983  14.376  64.711  1.00  0.00    -0.447 C  
HETATM   20  C2* UNL     1     -12.088  12.950  64.181  1.00  0.00    -0.432 C  
HETATM   21  O3* UNL     1     -12.491  15.295  63.735  1.00  0.00    -1.004 OA 
HETATM   22  H3* UNL     1     -13.418  15.164  63.579  1.00  0.00     0.000 HD 
HETATM   23  O2* UNL     1     -13.286  12.268  64.522  1.00  0.00    -0.799 OA 
BRANCH  17  24
HETATM   24  C5* UNL     1     -10.186  15.126  66.372  1.00  0.00    -0.281 C  
HETATM   25  O5* UNL     1     -11.387  15.190  67.139  1.00  0.00    -0.338 OA 
HETATM   26  H5* UNL     1     -11.202  15.522  68.009  1.00  0.00     0.000 HD 
ENDBRANCH  17  24
ENDBRANCH  14  15
ENDBRANCH   2   3
TORSDOF 3
ENDMDL
MODEL       21
REMARK 921   NORMALIZED FREE ENERGY PREDICTED BY IDOCK:   -6.07 KCAL/MOL
REMARK 922        TOTAL FREE ENERGY PREDICTED BY IDOCK:   -7.36 KCAL/MOL
REMARK 923 INTER-LIGAND FREE ENERGY PREDICTED BY IDOCK:   -7.98 KCAL/MOL
REMARK 924 INTRA-LIGAND FREE ENERGY PREDICTED BY IDOCK:    0.62 KCAL/MOL
REMARK 927      BINDING AFFINITY PREDICTED BY RF-SCORE:    0.00 PKD
ROOT
HETATM    1  C   UNL     1      -8.740   8.178  67.307  1.00  0.00    -0.124 C  
HETATM    2  O   UNL     1      -9.913   8.357  66.519  1.00  0.00    -0.258 OA 
ENDROOT
BRANCH   2   3
HETATM    3  C   UNL     1      -9.986   9.633  65.998  1.00  0.00    -0.274 A  
HETATM    4  N   UNL     1      -9.494   9.875  64.755  1.00  0.00    -0.289 NA 
HETATM    5  C   UNL     1      -9.623  11.101  64.238  1.00  0.00    -0.252 A  
HETATM    6  N   UNL     1      -9.212  11.266  62.931  1.00  0.00    -0.433 NA 
HETATM    7  N   UNL     1     -10.216  12.151  64.815  1.00  0.00    -0.277 NA 
HETATM    8  H2  UNL     1      -9.688  10.590  62.334  1.00  0.00     0.000 HD 
HETATM    9  C   UNL     1     -10.726  11.865  66.023  1.00  0.00    -0.285 A  
HETATM   10  H1  UNL     1      -9.311  12.202  62.536  1.00  0.00     0.000 HD 
HETATM   11  C   UNL     1     -10.654  10.649  66.683  1.00  0.00    -0.214 A  
HETATM   12  N   UNL     1     -11.309  10.717  67.893  1.00  0.00    -0.413 NA 
HETATM   13  C   UNL     1     -11.800  11.936  67.944  1.00  0.00    -0.238 A  
HETATM   14  N   UNL     1     -11.484  12.668  66.826  1.00  0.00    -0.330 NA 
BRANCH  14  15
HETATM   15  C1* UNL     1     -12.042  13.970  66.531  1.00  0.00    -0.459 C  
HETATM   16  O4* UNL     1     -13.043  13.798  65.504  1.00  0.00    -0.671 OA 
HETATM   17  C4* UNL     1     -12.526  14.311  64.253  1.00  0.00    -0.272 C  
HETATM   18  H2* UNL     1      -9.244  15.774  66.302  1.00  0.00     0.000 HD 
HETATM   19  C3* UNL     1     -11.219  15.058  64.544  1.00  0.00    -0.265 C  
HETATM   20  C2* UNL     1     -11.130  15.102  66.065  1.00  0.00    -0.312 C  
HETATM   21  O3* UNL     1     -11.242  16.391  64.019  1.00  0.00    -1.333 OA 
HETATM   22  H3* UNL     1     -10.432  16.853  64.199  1.00  0.00     0.000 HD 
HETATM   23  O2* UNL     1      -9.812  15.069  66.592  1.00  0.00    -0.238 OA 
BRANCH  17  24
HETATM   24  C5* UNL     1     -12.347  13.151  63.261  1.00  0.00    -0.283 C  
HETATM   25  O5* UNL     1     -13.154  12.042  63.653  1.00  0.00    -0.756 OA 
HETATM   26  H5* UNL     1     -13.043  11.325  63.040  1.00  0.00     0.000 HD 
ENDBRANCH  17  24
ENDBRANCH  14  15
ENDBRANCH   2   3
TORSDOF 3
ENDMDL
MODEL       22
REMARK 921   NORMALIZED FREE ENERGY PREDICTED BY IDOCK:   -6.06 KCAL/MOL
REMARK 922        TOTAL FREE ENERGY PREDICTED BY IDOCK:   -7.34 KCAL/MOL
REMARK 923 INTER-LIGAND FREE ENERGY PREDICTED BY IDOCK:   -7.31 KCAL/MOL
REMARK 924 INTRA-LIGAND FREE ENERGY PREDICTED BY IDOCK:   -0.03 KCAL/MOL
REMARK 927      BINDING AFFINITY PREDICTED BY RF-SCORE:    0.00 PKD
ROOT
HETATM    1  C   UNL     1      -8.966  10.212  64.674  1.00  0.00    -0.209 C  
HETATM    2  O   UNL     1     -10.364  10.234  64.947  1.00  0.00    -0.283 OA 
ENDROOT
BRANCH   2   3
HETATM    3  C   UNL     1     -10.824  11.521  65.140  1.00  0.00    -0.265 A  
HETATM    4  N   UNL     1     -11.318  12.218  64.083  1.00  0.00    -0.348 NA 
HETATM    5  C   UNL     1     -11.815  13.441  64.292  1.00  0.00    -0.423 A  
HETATM    6  N   UNL     1     -12.409  14.060  63.211  1.00  0.00    -1.145 NA 
HETATM    7  N   UNL     1     -11.900  14.076  65.465  1.00  0.00    -0.351 NA 
HETATM    8  H2  UNL     1     -13.136  13.456  62.827  1.00  0.00     0.000 HD 
HETATM    9  C   UNL     1     -11.441  13.344  66.491  1.00  0.00    -0.341 A  
HETATM   10  H1  UNL     1     -12.788  14.993  63.371  1.00  0.00     0.000 HD 
HETATM   11  C   UNL     1     -10.890  12.075  66.419  1.00  0.00    -0.278 A  
HETATM   12  N   UNL     1     -10.550  11.623  67.675  1.00  0.00    -0.196 NA 
HETATM   13  C   UNL     1     -10.925  12.582  68.492  1.00  0.00    -0.249 A  
HETATM   14  N   UNL     1     -11.484  13.643  67.823  1.00  0.00    -0.299 NA 
BRANCH  14  15
HETATM   15  C1* UNL     1     -12.146  14.751  68.478  1.00  0.00    -0.175 C  
HETATM   16  O4* UNL     1     -11.374  15.943  68.212  1.00  0.00    -0.350 OA 
HETATM   17  C4* UNL     1     -10.670  16.327  69.417  1.00  0.00    -0.318 C  
HETATM   18  H2* UNL     1     -12.750  13.396  71.466  1.00  0.00     0.000 HD 
HETATM   19  C3* UNL     1     -11.198  15.470  70.574  1.00  0.00    -0.342 C  
HETATM   20  C2* UNL     1     -12.383  14.713  69.985  1.00  0.00    -0.315 C  
HETATM   21  O3* UNL     1     -11.635  16.277  71.675  1.00  0.00    -0.466 OA 
HETATM   22  H3* UNL     1     -11.961  15.746  72.392  1.00  0.00     0.000 HD 
HETATM   23  O2* UNL     1     -12.602  13.419  70.528  1.00  0.00    -0.286 OA 
BRANCH  17  24
HETATM   24  C5* UNL     1      -9.157  16.170  69.196  1.00  0.00    -0.243 C  
HETATM   25  O5* UNL     1      -8.719  14.903  69.686  1.00  0.00    -0.429 OA 
HETATM   26  H5* UNL     1      -7.784  14.807  69.549  1.00  0.00     0.000 HD 
ENDBRANCH  17  24
ENDBRANCH  14  15
ENDBRANCH   2   3
TORSDOF 3
ENDMDL
MODEL       23
REMARK 921   NORMALIZED FREE ENERGY PREDICTED BY IDOCK:   -6.04 KCAL/MOL
REMARK 922        TOTAL FREE ENERGY PREDICTED BY IDOCK:   -7.33 KCAL/MOL
REMARK 923 INTER-LIGAND FREE ENERGY PREDICTED BY IDOCK:   -7.33 KCAL/MOL
REMARK 924 INTRA-LIGAND FREE ENERGY PREDICTED BY IDOCK:   -0.00 KCAL/MOL
REMARK 927      BINDING AFFINITY PREDICTED BY RF-SCORE:    0.00 PKD
ROOT
HETATM    1  C   UNL     1     -13.345  15.150  71.112  1.00  0.00    -0.467 C  
HETATM    2  O   UNL     1     -12.252  14.284  70.823  1.00  0.00    -0.309 OA 
ENDROOT
BRANCH   2   3
HETATM    3  C   UNL     1     -11.822  14.425  69.519  1.00  0.00    -0.329 A  
HETATM    4  N   UNL     1     -12.160  13.483  68.600  1.00  0.00    -0.329 NA 
HETATM    5  C   UNL     1     -11.786  13.660  67.328  1.00  0.00    -0.391 A  
HETATM    6  N   UNL     1     -12.251  12.737  66.414  1.00  0.00    -0.518 NA 
HETATM    7  N   UNL     1     -11.109  14.701  66.834  1.00  0.00    -0.325 NA 
HETATM    8  H2  UNL     1     -13.269  12.683  66.468  1.00  0.00     0.000 HD 
HETATM    9  C   UNL     1     -10.829  15.630  67.761  1.00  0.00    -0.307 A  
HETATM   10  H1  UNL     1     -11.967  12.872  65.444  1.00  0.00     0.000 HD 
HETATM   11  C   UNL     1     -11.140  15.572  69.110  1.00  0.00    -0.272 A  
HETATM   12  N   UNL     1     -10.718  16.714  69.753  1.00  0.00    -0.310 NA 
HETATM   13  C   UNL     1     -10.198  17.463  68.806  1.00  0.00    -0.361 A  
HETATM   14  N   UNL     1     -10.253  16.855  67.576  1.00  0.00    -0.287 NA 
BRANCH  14  15
HETATM   15  C1* UNL     1      -9.923  17.518  66.333  1.00  0.00    -0.325 C  
HETATM   16  O4* UNL     1      -8.631  17.033  65.906  1.00  0.00    -0.521 OA 
HETATM   17  C4* UNL     1      -7.644  18.071  66.120  1.00  0.00    -0.250 C  
HETATM   18  H2* UNL     1     -10.709  20.665  67.114  1.00  0.00     0.000 HD 
HETATM   19  C3* UNL     1      -8.381  19.364  66.487  1.00  0.00    -0.328 C  
HETATM   20  C2* UNL     1      -9.856  19.042  66.277  1.00  0.00    -0.374 C  
HETATM   21  O3* UNL     1      -7.996  20.453  65.639  1.00  0.00    -0.535 OA 
HETATM   22  H3* UNL     1      -8.452  21.254  65.867  1.00  0.00     0.000 HD 
HETATM   23  O2* UNL     1     -10.751  19.716  67.150  1.00  0.00    -0.478 OA 
BRANCH  17  24
HETATM   24  C5* UNL     1      -6.653  17.617  67.203  1.00  0.00    -0.161 C  
HETATM   25  O5* UNL     1      -6.782  16.214  67.428  1.00  0.00    -0.152 OA 
HETATM   26  H5* UNL     1      -6.169  15.933  68.097  1.00  0.00     0.000 HD 
ENDBRANCH  17  24
ENDBRANCH  14  15
ENDBRANCH   2   3
TORSDOF 3
ENDMDL
MODEL       24
REMARK 921   NORMALIZED FREE ENERGY PREDICTED BY IDOCK:   -6.03 KCAL/MOL
REMARK 922        TOTAL FREE ENERGY PREDICTED BY IDOCK:   -7.31 KCAL/MOL
REMARK 923 INTER-LIGAND FREE ENERGY PREDICTED BY IDOCK:   -7.16 KCAL/MOL
REMARK 924 INTRA-LIGAND FREE ENERGY PREDICTED BY IDOCK:   -0.15 KCAL/MOL
REMARK 927      BINDING AFFINITY PREDICTED BY RF-SCORE:    0.00 PKD
ROOT
HETATM    1  C   UNL     1      -9.521  10.299  64.661  1.00  0.00    -0.293 C  
HETATM    2  O   UNL     1      -9.378  11.248  65.712  1.00  0.00    -0.213 OA 
ENDROOT
BRANCH   2   3
HETATM    3  C   UNL     1      -9.934  12.467  65.378  1.00  0.00    -0.236 A  
HETATM    4  N   UNL     1     -10.886  12.521  64.410  1.00  0.00    -0.319 NA 
HETATM    5  C   UNL     1     -11.459  13.697  64.135  1.00  0.00    -0.329 A  
HETATM    6  N   UNL     1     -12.500  13.680  63.229  1.00  0.00    -1.048 NA 
HETATM    7  N   UNL     1     -11.206  14.865  64.733  1.00  0.00    -0.394 NA 
HETATM    8  H2  UNL     1     -13.211  13.016  63.536  1.00  0.00     0.000 HD 
HETATM    9  C   UNL     1     -10.291  14.767  65.709  1.00  0.00    -0.340 A  
HETATM   10  H1  UNL     1     -12.937  14.578  63.019  1.00  0.00     0.000 HD 
HETATM   11  C   UNL     1      -9.610  13.622  66.090  1.00  0.00    -0.209 A  
HETATM   12  N   UNL     1      -8.765  13.890  67.144  1.00  0.00    -0.221 NA 
HETATM   13  C   UNL     1      -8.960  15.162  67.419  1.00  0.00    -0.183 A  
HETATM   14  N   UNL     1      -9.888  15.735  66.583  1.00  0.00    -0.242 NA 
BRANCH  14  15
HETATM   15  C1* UNL     1     -10.429  17.063  66.772  1.00  0.00    -0.257 C  
HETATM   16  O4* UNL     1      -9.595  17.986  66.037  1.00  0.00    -0.499 OA 
HETATM   17  C4* UNL     1      -8.792  18.744  66.974  1.00  0.00    -0.294 C  
HETATM   18  H2* UNL     1     -10.939  17.033  70.068  1.00  0.00     0.000 HD 
HETATM   19  C3* UNL     1      -9.306  18.453  68.389  1.00  0.00    -0.329 C  
HETATM   20  C2* UNL     1     -10.575  17.635  68.180  1.00  0.00    -0.356 C  
HETATM   21  O3* UNL     1      -9.616  19.659  69.099  1.00  0.00    -0.377 OA 
HETATM   22  H3* UNL     1      -9.934  19.478  69.976  1.00  0.00     0.000 HD 
HETATM   23  O2* UNL     1     -10.848  16.677  69.192  1.00  0.00    -0.320 OA 
BRANCH  17  24
HETATM   24  C5* UNL     1      -7.311  18.381  66.787  1.00  0.00    -0.212 C  
HETATM   25  O5* UNL     1      -7.092  17.880  65.469  1.00  0.00    -0.487 OA 
HETATM   26  H5* UNL     1      -6.176  17.656  65.354  1.00  0.00     0.000 HD 
ENDBRANCH  17  24
ENDBRANCH  14  15
ENDBRANCH   2   3
TORSDOF 3
ENDMDL
MODEL       25
REMARK 921   NORMALIZED FREE ENERGY PREDICTED BY IDOCK:   -6.01 KCAL/MOL
REMARK 922        TOTAL FREE ENERGY PREDICTED BY IDOCK:   -7.29 KCAL/MOL
REMARK 923 INTER-LIGAND FREE ENERGY PREDICTED BY IDOCK:   -7.27 KCAL/MOL
REMARK 924 INTRA-LIGAND FREE ENERGY PREDICTED BY IDOCK:   -0.02 KCAL/MOL
REMARK 927      BINDING AFFINITY PREDICTED BY RF-SCORE:    0.00 PKD
ROOT
HETATM    1  C   UNL     1     -10.012  20.525  67.293  1.00  0.00    -0.387 C  
HETATM    2  O   UNL     1      -9.880  19.652  66.175  1.00  0.00    -0.404 OA 
ENDROOT
BRANCH   2   3
HETATM    3  C   UNL     1      -9.266  18.467  66.524  1.00  0.00    -0.296 A  
HETATM    4  N   UNL     1      -8.280  18.477  67.459  1.00  0.00    -0.251 NA 
HETATM    5  C   UNL     1      -7.732  17.316  67.831  1.00  0.00    -0.193 A  
HETATM    6  N   UNL     1      -6.819  17.367  68.865  1.00  0.00    -0.231 NA 
HETATM    7  N   UNL     1      -8.064  16.100  67.387  1.00  0.00    -0.150 NA 
HETATM    8  H2  UNL     1      -7.242  17.821  69.674  1.00  0.00     0.000 HD 
HETATM    9  C   UNL     1      -9.067  16.124  66.496  1.00  0.00    -0.277 A  
HETATM   10  H1  UNL     1      -6.401  16.481  69.149  1.00  0.00     0.000 HD 
HETATM   11  C   UNL     1      -9.715  17.249  66.012  1.00  0.00    -0.168 A  
HETATM   12  N   UNL     1     -10.710  16.892  65.129  1.00  0.00    -0.666 NA 
HETATM   13  C   UNL     1     -10.689  15.577  65.111  1.00  0.00    -0.440 A  
HETATM   14  N   UNL     1      -9.718  15.063  65.935  1.00  0.00    -0.326 NA 
BRANCH  14  15
HETATM   15  C1* UNL     1      -9.589  13.656  66.249  1.00  0.00    -0.239 C  
HETATM   16  O4* UNL     1      -9.939  12.908  65.064  1.00  0.00    -0.237 OA 
HETATM   17  C4* UNL     1     -11.239  12.300  65.258  1.00  0.00    -0.328 C  
HETATM   18  H2* UNL     1     -11.151  13.563  69.196  1.00  0.00     0.000 HD 
HETATM   19  C3* UNL     1     -11.638  12.480  66.727  1.00  0.00    -0.382 C  
HETATM   20  C2* UNL     1     -10.395  13.055  67.398  1.00  0.00    -0.234 C  
HETATM   21  O3* UNL     1     -11.985  11.231  67.339  1.00  0.00    -0.581 OA 
HETATM   22  H3* UNL     1     -12.233  11.342  68.249  1.00  0.00     0.000 HD 
HETATM   23  O2* UNL     1     -10.649  13.937  68.481  1.00  0.00    -0.241 OA 
BRANCH  17  24
HETATM   24  C5* UNL     1     -12.247  12.928  64.282  1.00  0.00    -0.410 C  
HETATM   25  O5* UNL     1     -11.722  12.906  62.955  1.00  0.00    -0.831 OA 
HETATM   26  H5* UNL     1     -12.345  13.294  62.352  1.00  0.00     0.000 HD 
ENDBRANCH  17  24
ENDBRANCH  14  15
ENDBRANCH   2   3
TORSDOF 3
ENDMDL
MODEL       26
REMARK 921   NORMALIZED FREE ENERGY PREDICTED BY IDOCK:   -5.99 KCAL/MOL
REMARK 922        TOTAL FREE ENERGY PREDICTED BY IDOCK:   -7.27 KCAL/MOL
REMARK 923 INTER-LIGAND FREE ENERGY PREDICTED BY IDOCK:   -7.13 KCAL/MOL
REMARK 924 INTRA-LIGAND FREE ENERGY PREDICTED BY IDOCK:   -0.14 KCAL/MOL
REMARK 927      BINDING AFFINITY PREDICTED BY RF-SCORE:    0.00 PKD
ROOT
HETATM    1  C   UNL     1     -10.367  18.024  66.239  1.00  0.00    -0.382 C  
HETATM    2  O   UNL     1      -9.611  16.923  65.747  1.00  0.00    -0.515 OA 
ENDROOT
BRANCH   2   3
HETATM    3  C   UNL     1     -10.372  15.774  65.675  1.00  0.00    -0.388 A  
HETATM    4  N   UNL     1     -11.124  15.541  64.568  1.00  0.00    -0.342 NA 
HETATM    5  C   UNL     1     -11.812  14.397  64.485  1.00  0.00    -0.449 A  
HETATM    6  N   UNL     1     -12.467  14.156  63.294  1.00  0.00    -1.098 NA 
HETATM    7  N   UNL     1     -11.834  13.414  65.389  1.00  0.00    -0.336 NA 
HETATM    8  H2  UNL     1     -11.804  14.214  62.521  1.00  0.00     0.000 HD 
HETATM    9  C   UNL     1     -11.049  13.659  66.449  1.00  0.00    -0.303 A  
HETATM   10  H1  UNL     1     -12.991  13.283  63.231  1.00  0.00     0.000 HD 
HETATM   11  C   UNL     1     -10.296  14.801  66.672  1.00  0.00    -0.273 A  
HETATM   12  N   UNL     1      -9.596  14.695  67.854  1.00  0.00    -0.209 NA 
HETATM   13  C   UNL     1      -9.890  13.498  68.314  1.00  0.00    -0.233 A  
HETATM   14  N   UNL     1     -10.758  12.825  67.490  1.00  0.00    -0.227 NA 
BRANCH  14  15
HETATM   15  C1* UNL     1     -11.107  11.430  67.654  1.00  0.00    -0.268 C  
HETATM   16  O4* UNL     1     -12.343  11.372  68.398  1.00  0.00    -0.505 OA 
HETATM   17  C4* UNL     1     -12.061  10.922  69.746  1.00  0.00    -0.338 C  
HETATM   18  H2* UNL     1      -8.156  10.189  68.594  1.00  0.00     0.000 HD 
HETATM   19  C3* UNL     1     -10.603  10.451  69.797  1.00  0.00    -0.258 C  
HETATM   20  C2* UNL     1     -10.135  10.478  68.347  1.00  0.00    -0.164 C  
HETATM   21  O3* UNL     1     -10.494   9.120  70.318  1.00  0.00    -0.194 OA 
HETATM   22  H3* UNL     1      -9.591   8.828  70.350  1.00  0.00     0.000 HD 
HETATM   23  O2* UNL     1      -8.760  10.782  68.163  1.00  0.00    -0.122 OA 
BRANCH  17  24
HETATM   24  C5* UNL     1     -12.359  12.059  70.736  1.00  0.00    -0.308 C  
HETATM   25  O5* UNL     1     -12.498  13.295  70.036  1.00  0.00    -0.220 OA 
HETATM   26  H5* UNL     1     -12.683  13.997  70.648  1.00  0.00     0.000 HD 
ENDBRANCH  17  24
ENDBRANCH  14  15
ENDBRANCH   2   3
TORSDOF 3
ENDMDL
MODEL       27
REMARK 921   NORMALIZED FREE ENERGY PREDICTED BY IDOCK:   -5.97 KCAL/MOL
REMARK 922        TOTAL FREE ENERGY PREDICTED BY IDOCK:   -7.24 KCAL/MOL
REMARK 923 INTER-LIGAND FREE ENERGY PREDICTED BY IDOCK:   -7.55 KCAL/MOL
REMARK 924 INTRA-LIGAND FREE ENERGY PREDICTED BY IDOCK:    0.30 KCAL/MOL
REMARK 927      BINDING AFFINITY PREDICTED BY RF-SCORE:    0.00 PKD
ROOT
HETATM    1  C   UNL     1     -12.715  11.899  63.534  1.00  0.00    -0.405 C  
HETATM    2  O   UNL     1     -13.151  12.517  64.740  1.00  0.00    -0.853 OA 
ENDROOT
BRANCH   2   3
HETATM    3  C   UNL     1     -12.252  13.467  65.180  1.00  0.00    -0.434 A  
HETATM    4  N   UNL     1     -12.062  14.595  64.448  1.00  0.00    -0.483 NA 
HETATM    5  C   UNL     1     -11.232  15.535  64.914  1.00  0.00    -0.389 A  
HETATM    6  N   UNL     1     -11.163  16.709  64.193  1.00  0.00    -1.430 NA 
HETATM    7  N   UNL     1     -10.555  15.499  66.065  1.00  0.00    -0.314 NA 
HETATM    8  H2  UNL     1     -12.098  17.102  64.085  1.00  0.00     0.000 HD 
HETATM    9  C   UNL     1     -10.797  14.390  66.781  1.00  0.00    -0.301 A  
HETATM   10  H1  UNL     1     -10.530  17.426  64.548  1.00  0.00     0.000 HD 
HETATM   11  C   UNL     1     -11.618  13.335  66.416  1.00  0.00    -0.347 A  
HETATM   12  N   UNL     1     -11.645  12.379  67.408  1.00  0.00    -0.350 NA 
HETATM   13  C   UNL     1     -10.888  12.865  68.367  1.00  0.00    -0.254 A  
HETATM   14  N   UNL     1     -10.361  14.091  68.039  1.00  0.00    -0.235 NA 
BRANCH  14  15
HETATM   15  C1* UNL     1      -9.645  14.935  68.971  1.00  0.00    -0.204 C  
HETATM   16  O4* UNL     1     -10.550  15.971  69.410  1.00  0.00    -0.232 OA 
HETATM   17  C4* UNL     1     -10.170  17.223  68.788  1.00  0.00    -0.353 C  
HETATM   18  H2* UNL     1      -6.786  15.363  67.305  1.00  0.00     0.000 HD 
HETATM   19  C3* UNL     1      -8.816  17.023  68.098  1.00  0.00    -0.227 C  
HETATM   20  C2* UNL     1      -8.361  15.635  68.533  1.00  0.00    -0.166 C  
HETATM   21  O3* UNL     1      -7.858  18.003  68.516  1.00  0.00    -0.288 OA 
HETATM   22  H3* UNL     1      -7.019  17.879  68.088  1.00  0.00     0.000 HD 
HETATM   23  O2* UNL     1      -7.585  14.927  67.577  1.00  0.00    -0.163 OA 
BRANCH  17  24
HETATM   24  C5* UNL     1     -11.278  17.668  67.819  1.00  0.00     0.248 C  
HETATM   25  O5* UNL     1     -10.732  18.510  66.805  1.00  0.00    -0.372 OA 
HETATM   26  H5* UNL     1     -11.417  18.785  66.206  1.00  0.00     0.000 HD 
ENDBRANCH  17  24
ENDBRANCH  14  15
ENDBRANCH   2   3
TORSDOF 3
ENDMDL
MODEL       28
REMARK 921   NORMALIZED FREE ENERGY PREDICTED BY IDOCK:   -5.97 KCAL/MOL
REMARK 922        TOTAL FREE ENERGY PREDICTED BY IDOCK:   -7.24 KCAL/MOL
REMARK 923 INTER-LIGAND FREE ENERGY PREDICTED BY IDOCK:   -7.19 KCAL/MOL
REMARK 924 INTRA-LIGAND FREE ENERGY PREDICTED BY IDOCK:   -0.05 KCAL/MOL
REMARK 927      BINDING AFFINITY PREDICTED BY RF-SCORE:    0.00 PKD
ROOT
HETATM    1  C   UNL     1     -11.460   6.918  70.889  1.00  0.00    -0.323 C  
HETATM    2  O   UNL     1     -10.560   8.007  70.718  1.00  0.00    -0.209 OA 
ENDROOT
BRANCH   2   3
HETATM    3  C   UNL     1     -11.230   9.188  70.469  1.00  0.00    -0.264 A  
HETATM    4  N   UNL     1     -11.915   9.790  71.476  1.00  0.00    -0.395 NA 
HETATM    5  C   UNL     1     -12.511  10.963  71.238  1.00  0.00    -0.388 A  
HETATM    6  N   UNL     1     -13.095  11.589  72.321  1.00  0.00    -0.417 NA 
HETATM    7  N   UNL     1     -12.499  11.645  70.089  1.00  0.00    -0.182 NA 
HETATM    8  H2  UNL     1     -12.407  11.699  73.065  1.00  0.00     0.000 HD 
HETATM    9  C   UNL     1     -11.780  11.041  69.130  1.00  0.00    -0.333 A  
HETATM   10  H1  UNL     1     -13.550  12.484  72.140  1.00  0.00     0.000 HD 
HETATM   11  C   UNL     1     -11.124   9.825  69.232  1.00  0.00    -0.149 A  
HETATM   12  N   UNL     1     -10.468   9.530  68.057  1.00  0.00    -0.219 NA 
HETATM   13  C   UNL     1     -10.691  10.564  67.276  1.00  0.00    -0.277 A  
HETATM   14  N   UNL     1     -11.471  11.515  67.888  1.00  0.00    -0.384 NA 
BRANCH  14  15
HETATM   15  C1* UNL     1     -11.722  12.829  67.335  1.00  0.00    -0.366 C  
HETATM   16  O4* UNL     1     -12.505  12.657  66.133  1.00  0.00    -0.520 OA 
HETATM   17  C4* UNL     1     -11.661  12.904  64.982  1.00  0.00    -0.344 C  
HETATM   18  H2* UNL     1      -8.667  14.153  67.548  1.00  0.00     0.000 HD 
HETATM   19  C3* UNL     1     -10.333  13.486  65.478  1.00  0.00    -0.300 C  
HETATM   20  C2* UNL     1     -10.551  13.736  66.966  1.00  0.00    -0.278 C  
HETATM   21  O3* UNL     1     -10.015  14.719  64.819  1.00  0.00    -0.429 OA 
HETATM   22  H3* UNL     1      -9.192  15.079  65.126  1.00  0.00     0.000 HD 
HETATM   23  O2* UNL     1      -9.396  13.588  67.778  1.00  0.00    -0.197 OA 
BRANCH  17  24
HETATM   24  C5* UNL     1     -11.486  11.599  64.189  1.00  0.00    -0.280 C  
HETATM   25  O5* UNL     1     -12.384  11.574  63.081  1.00  0.00    -0.938 OA 
HETATM   26  H5* UNL     1     -12.276  10.768  62.591  1.00  0.00     0.000 HD 
ENDBRANCH  17  24
ENDBRANCH  14  15
ENDBRANCH   2   3
TORSDOF 3
ENDMDL
MODEL       29
REMARK 921   NORMALIZED FREE ENERGY PREDICTED BY IDOCK:   -5.93 KCAL/MOL
REMARK 922        TOTAL FREE ENERGY PREDICTED BY IDOCK:   -7.19 KCAL/MOL
REMARK 923 INTER-LIGAND FREE ENERGY PREDICTED BY IDOCK:   -7.49 KCAL/MOL
REMARK 924 INTRA-LIGAND FREE ENERGY PREDICTED BY IDOCK:    0.29 KCAL/MOL
REMARK 927      BINDING AFFINITY PREDICTED BY RF-SCORE:    0.00 PKD
ROOT
HETATM    1  C   UNL     1      -8.830   9.914  69.890  1.00  0.00    -0.195 C  
HETATM    2  O   UNL     1     -10.141   9.536  69.486  1.00  0.00    -0.185 OA 
ENDROOT
BRANCH   2   3
HETATM    3  C   UNL     1     -10.719  10.491  68.674  1.00  0.00    -0.215 A  
HETATM    4  N   UNL     1     -11.345  11.556  69.239  1.00  0.00    -0.264 NA 
HETATM    5  C   UNL     1     -11.850  12.504  68.444  1.00  0.00    -0.304 A  
HETATM    6  N   UNL     1     -12.373  13.620  69.067  1.00  0.00    -0.311 NA 
HETATM    7  N   UNL     1     -11.795  12.537  67.109  1.00  0.00    -0.490 NA 
HETATM    8  H2  UNL     1     -11.671  14.028  69.684  1.00  0.00     0.000 HD 
HETATM    9  C   UNL     1     -11.135  11.492  66.587  1.00  0.00    -0.295 A  
HETATM   10  H1  UNL     1     -12.758  14.343  68.459  1.00  0.00     0.000 HD 
HETATM   11  C   UNL     1     -10.576  10.435  67.287  1.00  0.00    -0.267 A  
HETATM   12  N   UNL     1      -9.956   9.557  66.424  1.00  0.00    -0.256 NA 
HETATM   13  C   UNL     1     -10.105  10.093  65.233  1.00  0.00    -0.274 A  
HETATM   14  N   UNL     1     -10.802  11.276  65.280  1.00  0.00    -0.236 NA 
BRANCH  14  15
HETATM   15  C1* UNL     1     -10.954  12.167  64.151  1.00  0.00    -0.361 C  
HETATM   16  O4* UNL     1      -9.917  13.169  64.240  1.00  0.00    -0.256 OA 
HETATM   17  C4* UNL     1     -10.509  14.425  64.648  1.00  0.00    -0.257 C  
HETATM   18  H2* UNL     1     -14.246  12.697  64.254  1.00  0.00     0.000 HD 
HETATM   19  C3* UNL     1     -12.034  14.276  64.595  1.00  0.00    -0.455 C  
HETATM   20  C2* UNL     1     -12.268  12.918  63.944  1.00  0.00    -0.449 C  
HETATM   21  O3* UNL     1     -12.641  15.305  63.804  1.00  0.00    -0.966 OA 
HETATM   22  H3* UNL     1     -13.586  15.213  63.772  1.00  0.00     0.000 HD 
HETATM   23  O2* UNL     1     -13.429  12.230  64.383  1.00  0.00    -0.686 OA 
BRANCH  17  24
HETATM   24  C5* UNL     1      -9.992  14.803  66.045  1.00  0.00    -0.313 C  
HETATM   25  O5* UNL     1      -8.947  13.913  66.438  1.00  0.00    -0.452 OA 
HETATM   26  H5* UNL     1      -8.627  14.147  67.301  1.00  0.00     0.000 HD 
ENDBRANCH  17  24
ENDBRANCH  14  15
ENDBRANCH   2   3
TORSDOF 3
ENDMDL
MODEL       30
REMARK 921   NORMALIZED FREE ENERGY PREDICTED BY IDOCK:   -5.91 KCAL/MOL
REMARK 922        TOTAL FREE ENERGY PREDICTED BY IDOCK:   -7.17 KCAL/MOL
REMARK 923 INTER-LIGAND FREE ENERGY PREDICTED BY IDOCK:   -7.01 KCAL/MOL
REMARK 924 INTRA-LIGAND FREE ENERGY PREDICTED BY IDOCK:   -0.16 KCAL/MOL
REMARK 927      BINDING AFFINITY PREDICTED BY RF-SCORE:    0.00 PKD
ROOT
HETATM    1  C   UNL     1      -9.642  13.778  67.196  1.00  0.00    -0.244 C  
HETATM    2  O   UNL     1     -10.903  13.136  67.043  1.00  0.00    -0.260 OA 
ENDROOT
BRANCH   2   3
HETATM    3  C   UNL     1     -10.798  11.767  67.179  1.00  0.00    -0.258 A  
HETATM    4  N   UNL     1     -10.265  11.036  66.166  1.00  0.00    -0.240 NA 
HETATM    5  C   UNL     1     -10.114   9.717  66.332  1.00  0.00    -0.243 A  
HETATM    6  N   UNL     1      -9.463   9.038  65.321  1.00  0.00    -0.460 NA 
HETATM    7  N   UNL     1     -10.423   9.012  67.423  1.00  0.00    -0.267 NA 
HETATM    8  H2  UNL     1      -8.554   9.469  65.150  1.00  0.00     0.000 HD 
HETATM    9  C   UNL     1     -10.908   9.771  68.418  1.00  0.00    -0.201 A  
HETATM   10  H1  UNL     1      -9.348   8.033  65.448  1.00  0.00     0.000 HD 
HETATM   11  C   UNL     1     -11.130  11.138  68.380  1.00  0.00    -0.247 A  
HETATM   12  N   UNL     1     -11.613  11.583  69.591  1.00  0.00    -0.309 NA 
HETATM   13  C   UNL     1     -11.646  10.513  70.355  1.00  0.00    -0.342 A  
HETATM   14  N   UNL     1     -11.215   9.390  69.693  1.00  0.00    -0.139 NA 
BRANCH  14  15
HETATM   15  C1* UNL     1     -10.974   8.117  70.337  1.00  0.00    -0.247 C  
HETATM   16  O4* UNL     1     -12.249   7.458  70.496  1.00  0.00    -0.145 OA 
HETATM   17  C4* UNL     1     -12.632   7.504  71.892  1.00  0.00    -0.294 C  
HETATM   18  H2* UNL     1      -8.906   9.069  72.776  1.00  0.00     0.000 HD 
HETATM   19  C3* UNL     1     -11.433   8.015  72.701  1.00  0.00    -0.402 C  
HETATM   20  C2* UNL     1     -10.286   8.070  71.699  1.00  0.00    -0.202 C  
HETATM   21  O3* UNL     1     -11.100   7.126  73.774  1.00  0.00    -0.537 OA 
HETATM   22  H3* UNL     1     -10.357   7.444  74.275  1.00  0.00     0.000 HD 
HETATM   23  O2* UNL     1      -9.335   9.099  71.928  1.00  0.00    -0.349 OA 
BRANCH  17  24
HETATM   24  C5* UNL     1     -13.882   8.384  72.050  1.00  0.00    -0.388 C  
HETATM   25  O5* UNL     1     -13.954   8.898  73.379  1.00  0.00    -1.236 OA 
HETATM   26  H5* UNL     1     -14.727   9.442  73.477  1.00  0.00     0.000 HD 
ENDBRANCH  17  24
ENDBRANCH  14  15
ENDBRANCH   2   3
TORSDOF 3
ENDMDL
MODEL       31
REMARK 921   NORMALIZED FREE ENERGY PREDICTED BY IDOCK:   -5.90 KCAL/MOL
REMARK 922        TOTAL FREE ENERGY PREDICTED BY IDOCK:   -7.16 KCAL/MOL
REMARK 923 INTER-LIGAND FREE ENERGY PREDICTED BY IDOCK:   -7.11 KCAL/MOL
REMARK 924 INTRA-LIGAND FREE ENERGY PREDICTED BY IDOCK:   -0.05 KCAL/MOL
REMARK 927      BINDING AFFINITY PREDICTED BY RF-SCORE:    0.00 PKD
ROOT
HETATM    1  C   UNL     1     -10.999  13.382  64.588  1.00  0.00    -0.377 C  
HETATM    2  O   UNL     1     -11.841  12.466  65.279  1.00  0.00    -0.379 OA 
ENDROOT
BRANCH   2   3
HETATM    3  C   UNL     1     -11.696  12.573  66.647  1.00  0.00    -0.387 A  
HETATM    4  N   UNL     1     -12.072  13.722  67.269  1.00  0.00    -0.385 NA 
HETATM    5  C   UNL     1     -11.981  13.793  68.601  1.00  0.00    -0.366 A  
HETATM    6  N   UNL     1     -12.482  14.935  69.193  1.00  0.00    -0.587 NA 
HETATM    7  N   UNL     1     -11.565  12.826  69.424  1.00  0.00    -0.297 NA 
HETATM    8  H2  UNL     1     -13.452  15.072  68.908  1.00  0.00     0.000 HD 
HETATM    9  C   UNL     1     -11.242  11.694  68.780  1.00  0.00    -0.245 A  
HETATM   10  H1  UNL     1     -12.413  14.989  70.209  1.00  0.00     0.000 HD 
HETATM   11  C   UNL     1     -11.274  11.485  67.411  1.00  0.00    -0.304 A  
HETATM   12  N   UNL     1     -10.898  10.194  67.110  1.00  0.00    -0.229 NA 
HETATM   13  C   UNL     1     -10.681   9.625  68.276  1.00  0.00    -0.217 A  
HETATM   14  N   UNL     1     -10.890  10.491  69.322  1.00  0.00    -0.226 NA 
BRANCH  14  15
HETATM   15  C1* UNL     1     -10.904  10.088  70.711  1.00  0.00    -0.260 C  
HETATM   16  O4* UNL     1      -9.980   8.987  70.858  1.00  0.00    -0.215 OA 
HETATM   17  C4* UNL     1     -10.732   7.762  71.035  1.00  0.00    -0.228 C  
HETATM   18  H2* UNL     1     -14.191  10.017  71.275  1.00  0.00     0.000 HD 
HETATM   19  C3* UNL     1     -12.206   8.130  71.241  1.00  0.00    -0.279 C  
HETATM   20  C2* UNL     1     -12.212   9.650  71.365  1.00  0.00    -0.385 C  
HETATM   21  O3* UNL     1     -12.737   7.543  72.435  1.00  0.00    -0.510 OA 
HETATM   22  H3* UNL     1     -13.650   7.771  72.562  1.00  0.00     0.000 HD 
HETATM   23  O2* UNL     1     -13.377  10.290  70.868  1.00  0.00    -0.370 OA 
BRANCH  17  24
HETATM   24  C5* UNL     1     -10.506   6.846  69.822  1.00  0.00    -0.217 C  
HETATM   25  O5* UNL     1     -11.757   6.506  69.225  1.00  0.00    -0.644 OA 
HETATM   26  H5* UNL     1     -11.617   5.940  68.475  1.00  0.00     0.000 HD 
ENDBRANCH  17  24
ENDBRANCH  14  15
ENDBRANCH   2   3
TORSDOF 3
ENDMDL
MODEL       32
REMARK 921   NORMALIZED FREE ENERGY PREDICTED BY IDOCK:   -5.89 KCAL/MOL
REMARK 922        TOTAL FREE ENERGY PREDICTED BY IDOCK:   -7.15 KCAL/MOL
REMARK 923 INTER-LIGAND FREE ENERGY PREDICTED BY IDOCK:   -7.24 KCAL/MOL
REMARK 924 INTRA-LIGAND FREE ENERGY PREDICTED BY IDOCK:    0.09 KCAL/MOL
REMARK 927      BINDING AFFINITY PREDICTED BY RF-SCORE:    0.00 PKD
ROOT
HETATM    1  C   UNL     1     -13.198   9.940  71.838  1.00  0.00    -0.458 C  
HETATM    2  O   UNL     1     -12.797  11.153  71.210  1.00  0.00    -0.394 OA 
ENDROOT
BRANCH   2   3
HETATM    3  C   UNL     1     -11.690  10.968  70.405  1.00  0.00    -0.343 A  
HETATM    4  N   UNL     1     -10.821   9.963  70.687  1.00  0.00    -0.320 NA 
HETATM    5  C   UNL     1      -9.785   9.757  69.868  1.00  0.00    -0.238 A  
HETATM    6  N   UNL     1      -8.998   8.654  70.132  1.00  0.00    -0.148 NA 
HETATM    7  N   UNL     1      -9.502  10.440  68.755  1.00  0.00    -0.166 NA 
HETATM    8  H2  UNL     1      -9.581   7.818  70.165  1.00  0.00     0.000 HD 
HETATM    9  C   UNL     1     -10.403  11.397  68.485  1.00  0.00    -0.205 A  
HETATM   10  H1  UNL     1      -8.208   8.498  69.507  1.00  0.00     0.000 HD 
HETATM   11  C   UNL     1     -11.511  11.728  69.249  1.00  0.00    -0.306 A  
HETATM   12  N   UNL     1     -12.223  12.746  68.652  1.00  0.00    -0.085 NA 
HETATM   13  C   UNL     1     -11.580  12.997  67.533  1.00  0.00    -0.356 A  
HETATM   14  N   UNL     1     -10.475  12.195  67.379  1.00  0.00    -0.211 NA 
BRANCH  14  15
HETATM   15  C1* UNL     1      -9.692  12.127  66.164  1.00  0.00    -0.240 C  
HETATM   16  O4* UNL     1      -9.866  13.376  65.460  1.00  0.00    -0.237 OA 
HETATM   17  C4* UNL     1     -10.715  13.152  64.308  1.00  0.00    -0.409 C  
HETATM   18  H2* UNL     1     -10.547   9.092  65.076  1.00  0.00     0.000 HD 
HETATM   19  C3* UNL     1     -10.905  11.640  64.139  1.00  0.00    -0.372 C  
HETATM   20  C2* UNL     1      -9.951  11.015  65.151  1.00  0.00    -0.278 C  
HETATM   21  O3* UNL     1     -10.563  11.207  62.817  1.00  0.00    -0.754 OA 
HETATM   22  H3* UNL     1     -10.682  10.271  62.712  1.00  0.00     0.000 HD 
HETATM   23  O2* UNL     1     -10.386   9.783  65.707  1.00  0.00    -0.209 OA 
BRANCH  17  24
HETATM   24  C5* UNL     1     -12.040  13.907  64.497  1.00  0.00    -0.443 C  
HETATM   25  O5* UNL     1     -12.576  14.283  63.229  1.00  0.00    -1.069 OA 
HETATM   26  H5* UNL     1     -13.395  14.749  63.346  1.00  0.00     0.000 HD 
ENDBRANCH  17  24
ENDBRANCH  14  15
ENDBRANCH   2   3
TORSDOF 3
ENDMDL
MODEL       33
REMARK 921   NORMALIZED FREE ENERGY PREDICTED BY IDOCK:   -5.87 KCAL/MOL
REMARK 922        TOTAL FREE ENERGY PREDICTED BY IDOCK:   -7.12 KCAL/MOL
REMARK 923 INTER-LIGAND FREE ENERGY PREDICTED BY IDOCK:   -6.89 KCAL/MOL
REMARK 924 INTRA-LIGAND FREE ENERGY PREDICTED BY IDOCK:   -0.23 KCAL/MOL
REMARK 927      BINDING AFFINITY PREDICTED BY RF-SCORE:    0.00 PKD
ROOT
HETATM    1  C   UNL     1     -10.155  19.182  68.117  1.00  0.00    -0.402 C  
HETATM    2  O   UNL     1      -9.211  18.356  67.443  1.00  0.00    -0.268 OA 
ENDROOT
BRANCH   2   3
HETATM    3  C   UNL     1      -9.812  17.250  66.878  1.00  0.00    -0.287 A  
HETATM    4  N   UNL     1     -10.449  17.375  65.684  1.00  0.00    -0.601 NA 
HETATM    5  C   UNL     1     -10.978  16.285  65.118  1.00  0.00    -0.274 A  
HETATM    6  N   UNL     1     -11.511  16.442  63.855  1.00  0.00    -1.618 NA 
HETATM    7  N   UNL     1     -10.938  15.039  65.600  1.00  0.00    -0.342 NA 
HETATM    8  H2  UNL     1     -10.808  16.843  63.234  1.00  0.00     0.000 HD 
HETATM    9  C   UNL     1     -10.267  14.946  66.758  1.00  0.00    -0.259 A  
HETATM   10  H1  UNL     1     -11.914  15.610  63.424  1.00  0.00     0.000 HD 
HETATM   11  C   UNL     1      -9.683  15.989  67.460  1.00  0.00    -0.228 A  
HETATM   12  N   UNL     1      -9.060  15.518  68.595  1.00  0.00    -0.191 NA 
HETATM   13  C   UNL     1      -9.231  14.214  68.558  1.00  0.00    -0.187 A  
HETATM   14  N   UNL     1      -9.946  13.817  67.455  1.00  0.00    -0.234 NA 
BRANCH  14  15
HETATM   15  C1* UNL     1     -10.125  12.435  67.066  1.00  0.00    -0.214 C  
HETATM   16  O4* UNL     1     -11.449  12.030  67.478  1.00  0.00    -0.298 OA 
HETATM   17  C4* UNL     1     -11.338  11.151  68.623  1.00  0.00    -0.277 C  
HETATM   18  H2* UNL     1      -7.233  11.145  68.117  1.00  0.00     0.000 HD 
HETATM   19  C3* UNL     1      -9.859  10.793  68.811  1.00  0.00    -0.194 C  
HETATM   20  C2* UNL     1      -9.163  11.367  67.582  1.00  0.00    -0.158 C  
HETATM   21  O3* UNL     1      -9.660   9.375  68.864  1.00  0.00    -0.151 OA 
HETATM   22  H3* UNL     1      -8.744   9.153  68.981  1.00  0.00     0.000 HD 
HETATM   23  O2* UNL     1      -7.831  11.810  67.796  1.00  0.00    -0.120 OA 
BRANCH  17  24
HETATM   24  C5* UNL     1     -11.950  11.839  69.854  1.00  0.00    -0.332 C  
HETATM   25  O5* UNL     1     -12.253  13.200  69.555  1.00  0.00    -0.258 OA 
HETATM   26  H5* UNL     1     -12.631  13.625  70.316  1.00  0.00     0.000 HD 
ENDBRANCH  17  24
ENDBRANCH  14  15
ENDBRANCH   2   3
TORSDOF 3
ENDMDL
MODEL       34
REMARK 921   NORMALIZED FREE ENERGY PREDICTED BY IDOCK:   -5.78 KCAL/MOL
REMARK 922        TOTAL FREE ENERGY PREDICTED BY IDOCK:   -7.02 KCAL/MOL
REMARK 923 INTER-LIGAND FREE ENERGY PREDICTED BY IDOCK:   -7.24 KCAL/MOL
REMARK 924 INTRA-LIGAND FREE ENERGY PREDICTED BY IDOCK:    0.22 KCAL/MOL
REMARK 927      BINDING AFFINITY PREDICTED BY RF-SCORE:    0.00 PKD
ROOT
HETATM    1  C   UNL     1     -10.387  18.923  67.976  1.00  0.00    -0.389 C  
HETATM    2  O   UNL     1     -10.140  17.936  66.979  1.00  0.00    -0.311 OA 
ENDROOT
BRANCH   2   3
HETATM    3  C   UNL     1     -10.614  16.697  67.360  1.00  0.00    -0.295 A  
HETATM    4  N   UNL     1     -11.281  16.572  68.538  1.00  0.00    -0.345 NA 
HETATM    5  C   UNL     1     -11.785  15.379  68.869  1.00  0.00    -0.359 A  
HETATM    6  N   UNL     1     -12.551  15.330  70.017  1.00  0.00    -0.597 NA 
HETATM    7  N   UNL     1     -11.723  14.258  68.144  1.00  0.00    -0.333 NA 
HETATM    8  H2  UNL     1     -13.304  16.016  69.956  1.00  0.00     0.000 HD 
HETATM    9  C   UNL     1     -11.095  14.428  66.971  1.00  0.00    -0.313 A  
HETATM   10  H1  UNL     1     -12.936  14.420  70.269  1.00  0.00     0.000 HD 
HETATM   11  C   UNL     1     -10.514  15.598  66.507  1.00  0.00    -0.302 A  
HETATM   12  N   UNL     1      -9.980  15.407  65.251  1.00  0.00    -0.312 NA 
HETATM   13  C   UNL     1     -10.267  14.160  64.948  1.00  0.00    -0.341 A  
HETATM   14  N   UNL     1     -10.955  13.528  65.954  1.00  0.00    -0.278 NA 
BRANCH  14  15
HETATM   15  C1* UNL     1     -11.555  12.218  65.821  1.00  0.00    -0.388 C  
HETATM   16  O4* UNL     1     -11.881  11.747  67.147  1.00  0.00    -0.599 OA 
HETATM   17  C4* UNL     1     -10.944  10.708  67.522  1.00  0.00    -0.310 C  
HETATM   18  H2* UNL     1      -9.423  10.807  63.677  1.00  0.00     0.000 HD 
HETATM   19  C3* UNL     1     -10.120  10.337  66.284  1.00  0.00    -0.236 C  
HETATM   20  C2* UNL     1     -10.782  11.092  65.137  1.00  0.00    -0.210 C  
HETATM   21  O3* UNL     1     -10.159   8.928  66.024  1.00  0.00    -0.421 OA 
HETATM   22  H3* UNL     1      -9.648   8.698  65.257  1.00  0.00     0.000 HD 
HETATM   23  O2* UNL     1      -9.904  11.508  64.102  1.00  0.00    -0.245 OA 
BRANCH  17  24
HETATM   24  C5* UNL     1     -10.079  11.200  68.693  1.00  0.00    -0.200 C  
HETATM   25  O5* UNL     1     -10.910  11.696  69.742  1.00  0.00    -0.457 OA 
HETATM   26  H5* UNL     1     -10.375  12.000  70.465  1.00  0.00     0.000 HD 
ENDBRANCH  17  24
ENDBRANCH  14  15
ENDBRANCH   2   3
TORSDOF 3
ENDMDL
MODEL       35
REMARK 921   NORMALIZED FREE ENERGY PREDICTED BY IDOCK:   -5.74 KCAL/MOL
REMARK 922        TOTAL FREE ENERGY PREDICTED BY IDOCK:   -6.98 KCAL/MOL
REMARK 923 INTER-LIGAND FREE ENERGY PREDICTED BY IDOCK:   -7.07 KCAL/MOL
REMARK 924 INTRA-LIGAND FREE ENERGY PREDICTED BY IDOCK:    0.10 KCAL/MOL
REMARK 927      BINDING AFFINITY PREDICTED BY RF-SCORE:    0.00 PKD
ROOT
HETATM    1  C   UNL     1     -13.761  14.813  72.148  1.00  0.00    -0.439 C  
HETATM    2  O   UNL     1     -12.401  14.481  71.893  1.00  0.00    -0.336 OA 
ENDROOT
BRANCH   2   3
HETATM    3  C   UNL     1     -12.129  14.447  70.540  1.00  0.00    -0.334 A  
HETATM    4  N   UNL     1     -11.748  15.588  69.908  1.00  0.00    -0.327 NA 
HETATM    5  C   UNL     1     -11.432  15.530  68.610  1.00  0.00    -0.359 A  
HETATM    6  N   UNL     1     -10.941  16.689  68.043  1.00  0.00    -0.343 NA 
HETATM    7  N   UNL     1     -11.431  14.440  67.838  1.00  0.00    -0.304 NA 
HETATM    8  H2  UNL     1     -10.137  17.018  68.577  1.00  0.00     0.000 HD 
HETATM    9  C   UNL     1     -11.772  13.326  68.504  1.00  0.00    -0.352 A  
HETATM   10  H1  UNL     1     -10.699  16.645  67.053  1.00  0.00     0.000 HD 
HETATM   11  C   UNL     1     -12.135  13.241  69.839  1.00  0.00    -0.308 A  
HETATM   12  N   UNL     1     -12.398  11.934  70.186  1.00  0.00    -0.215 NA 
HETATM   13  C   UNL     1     -12.160  11.240  69.094  1.00  0.00    -0.279 A  
HETATM   14  N   UNL     1     -11.764  12.039  68.049  1.00  0.00    -0.432 NA 
BRANCH  14  15
HETATM   15  C1* UNL     1     -11.264  11.530  66.790  1.00  0.00    -0.285 C  
HETATM   16  O4* UNL     1      -9.822  11.507  66.867  1.00  0.00    -0.194 OA 
HETATM   17  C4* UNL     1      -9.289  12.578  66.051  1.00  0.00    -0.086 C  
HETATM   18  H2* UNL     1     -13.115  13.306  64.657  1.00  0.00     0.000 HD 
HETATM   19  C3* UNL     1     -10.440  13.171  65.229  1.00  0.00    -0.307 C  
HETATM   20  C2* UNL     1     -11.619  12.240  65.486  1.00  0.00    -0.371 C  
HETATM   21  O3* UNL     1     -10.134  13.193  63.829  1.00  0.00    -0.731 OA 
HETATM   22  H3* UNL     1     -10.847  13.562  63.320  1.00  0.00     0.000 HD 
HETATM   23  O2* UNL     1     -12.894  12.865  65.469  1.00  0.00    -0.531 OA 
BRANCH  17  24
HETATM   24  C5* UNL     1      -8.600  13.613  66.954  1.00  0.00    -0.104 C  
HETATM   25  O5* UNL     1      -8.735  14.919  66.394  1.00  0.00    -0.439 OA 
HETATM   26  H5* UNL     1      -8.310  15.558  66.952  1.00  0.00     0.000 HD 
ENDBRANCH  17  24
ENDBRANCH  14  15
ENDBRANCH   2   3
TORSDOF 3
ENDMDL
MODEL       36
REMARK 921   NORMALIZED FREE ENERGY PREDICTED BY IDOCK:   -5.69 KCAL/MOL
REMARK 922        TOTAL FREE ENERGY PREDICTED BY IDOCK:   -6.92 KCAL/MOL
REMARK 923 INTER-LIGAND FREE ENERGY PREDICTED BY IDOCK:   -6.78 KCAL/MOL
REMARK 924 INTRA-LIGAND FREE ENERGY PREDICTED BY IDOCK:   -0.14 KCAL/MOL
REMARK 927      BINDING AFFINITY PREDICTED BY RF-SCORE:    0.00 PKD
ROOT
HETATM    1  C   UNL     1     -11.253  11.629  68.223  1.00  0.00    -0.260 C  
HETATM    2  O   UNL     1     -10.742  12.723  67.469  1.00  0.00    -0.225 OA 
ENDROOT
BRANCH   2   3
HETATM    3  C   UNL     1     -11.077  13.935  68.039  1.00  0.00    -0.259 A  
HETATM    4  N   UNL     1     -11.982  13.967  69.052  1.00  0.00    -0.350 NA 
HETATM    5  C   UNL     1     -12.255  15.139  69.635  1.00  0.00    -0.257 A  
HETATM    6  N   UNL     1     -13.091  15.102  70.733  1.00  0.00    -0.570 NA 
HETATM    7  N   UNL     1     -11.711  16.323  69.338  1.00  0.00    -0.199 NA 
HETATM    8  H2  UNL     1     -12.717  14.453  71.426  1.00  0.00     0.000 HD 
HETATM    9  C   UNL     1     -10.794  16.247  68.361  1.00  0.00    -0.334 A  
HETATM   10  H1  UNL     1     -13.299  15.996  71.178  1.00  0.00     0.000 HD 
HETATM   11  C   UNL     1     -10.423  15.108  67.663  1.00  0.00    -0.253 A  
HETATM   12  N   UNL     1      -9.435  15.403  66.749  1.00  0.00    -0.228 NA 
HETATM   13  C   UNL     1      -9.188  16.683  66.919  1.00  0.00    -0.227 A  
HETATM   14  N   UNL     1      -9.978  17.238  67.896  1.00  0.00    -0.284 NA 
BRANCH  14  15
HETATM   15  C1* UNL     1      -9.795  18.575  68.417  1.00  0.00    -0.372 C  
HETATM   16  O4* UNL     1     -10.692  19.452  67.700  1.00  0.00    -0.453 OA 
HETATM   17  C4* UNL     1      -9.921  20.264  66.781  1.00  0.00    -0.450 C  
HETATM   18  H2* UNL     1      -6.464  18.742  68.466  1.00  0.00     0.000 HD 
HETATM   19  C3* UNL     1      -8.434  20.058  67.092  1.00  0.00    -0.334 C  
HETATM   20  C2* UNL     1      -8.417  19.230  68.371  1.00  0.00    -0.351 C  
HETATM   21  O3* UNL     1      -7.761  21.305  67.311  1.00  0.00    -0.691 OA 
HETATM   22  H3* UNL     1      -6.840  21.177  67.502  1.00  0.00     0.000 HD 
HETATM   23  O2* UNL     1      -7.321  18.335  68.494  1.00  0.00    -0.267 OA 
BRANCH  17  24
HETATM   24  C5* UNL     1     -10.290  19.890  65.337  1.00  0.00    -0.007 C  
HETATM   25  O5* UNL     1     -11.047  18.680  65.322  1.00  0.00    -0.409 OA 
HETATM   26  H5* UNL     1     -11.275  18.449  64.429  1.00  0.00     0.000 HD 
ENDBRANCH  17  24
ENDBRANCH  14  15
ENDBRANCH   2   3
TORSDOF 3
ENDMDL
MODEL       37
REMARK 921   NORMALIZED FREE ENERGY PREDICTED BY IDOCK:   -5.66 KCAL/MOL
REMARK 922        TOTAL FREE ENERGY PREDICTED BY IDOCK:   -6.88 KCAL/MOL
REMARK 923 INTER-LIGAND FREE ENERGY PREDICTED BY IDOCK:   -6.90 KCAL/MOL
REMARK 924 INTRA-LIGAND FREE ENERGY PREDICTED BY IDOCK:    0.02 KCAL/MOL
REMARK 927      BINDING AFFINITY PREDICTED BY RF-SCORE:    0.00 PKD
ROOT
HETATM    1  C   UNL     1      -7.814   7.661  68.189  1.00  0.00    -0.121 C  
HETATM    2  O   UNL     1      -9.178   7.269  68.298  1.00  0.00    -0.134 OA 
ENDROOT
BRANCH   2   3
HETATM    3  C   UNL     1     -10.006   8.354  68.504  1.00  0.00    -0.187 A  
HETATM    4  N   UNL     1     -10.493   8.594  69.749  1.00  0.00    -0.217 NA 
HETATM    5  C   UNL     1     -11.246   9.680  69.949  1.00  0.00    -0.207 A  
HETATM    6  N   UNL     1     -11.621   9.941  71.251  1.00  0.00    -0.380 NA 
HETATM    7  N   UNL     1     -11.574  10.601  69.037  1.00  0.00    -0.276 NA 
HETATM    8  H2  UNL     1     -10.791   9.985  71.844  1.00  0.00     0.000 HD 
HETATM    9  C   UNL     1     -11.042  10.355  67.830  1.00  0.00    -0.299 A  
HETATM   10  H1  UNL     1     -12.195  10.770  71.403  1.00  0.00     0.000 HD 
HETATM   11  C   UNL     1     -10.259   9.266  67.479  1.00  0.00    -0.242 A  
HETATM   12  N   UNL     1      -9.871   9.356  66.160  1.00  0.00    -0.271 NA 
HETATM   13  C   UNL     1     -10.376  10.493  65.735  1.00  0.00    -0.200 A  
HETATM   14  N   UNL     1     -11.085  11.143  66.716  1.00  0.00    -0.258 NA 
BRANCH  14  15
HETATM   15  C1* UNL     1     -11.592  12.492  66.585  1.00  0.00    -0.380 C  
HETATM   16  O4* UNL     1     -12.464  12.523  65.433  1.00  0.00    -0.630 OA 
HETATM   17  C4* UNL     1     -11.797  13.223  64.356  1.00  0.00    -0.399 C  
HETATM   18  H2* UNL     1      -8.771  14.227  66.992  1.00  0.00     0.000 HD 
HETATM   19  C3* UNL     1     -10.528  13.872  64.920  1.00  0.00    -0.426 C  
HETATM   20  C2* UNL     1     -10.620  13.659  66.426  1.00  0.00    -0.284 C  
HETATM   21  O3* UNL     1     -10.476  15.275  64.630  1.00  0.00    -0.520 OA 
HETATM   22  H3* UNL     1      -9.689  15.677  64.979  1.00  0.00     0.000 HD 
HETATM   23  O2* UNL     1      -9.375  13.500  67.090  1.00  0.00    -0.222 OA 
BRANCH  17  24
HETATM   24  C5* UNL     1     -11.510  12.241  63.209  1.00  0.00    -0.340 C  
HETATM   25  O5* UNL     1     -12.714  11.587  62.811  1.00  0.00    -0.907 OA 
HETATM   26  H5* UNL     1     -12.536  10.980  62.103  1.00  0.00     0.000 HD 
ENDBRANCH  17  24
ENDBRANCH  14  15
ENDBRANCH   2   3
TORSDOF 3
ENDMDL
MODEL       38
REMARK 921   NORMALIZED FREE ENERGY PREDICTED BY IDOCK:   -5.66 KCAL/MOL
REMARK 922        TOTAL FREE ENERGY PREDICTED BY IDOCK:   -6.88 KCAL/MOL
REMARK 923 INTER-LIGAND FREE ENERGY PREDICTED BY IDOCK:   -7.18 KCAL/MOL
REMARK 924 INTRA-LIGAND FREE ENERGY PREDICTED BY IDOCK:    0.30 KCAL/MOL
REMARK 927      BINDING AFFINITY PREDICTED BY RF-SCORE:    0.00 PKD
ROOT
HETATM    1  C   UNL     1      -6.150  17.007  66.568  1.00  0.00    -0.156 C  
HETATM    2  O   UNL     1      -7.406  16.987  67.239  1.00  0.00    -0.146 OA 
ENDROOT
BRANCH   2   3
HETATM    3  C   UNL     1      -7.992  15.738  67.185  1.00  0.00    -0.216 A  
HETATM    4  N   UNL     1      -7.580  14.771  68.046  1.00  0.00    -0.114 NA 
HETATM    5  C   UNL     1      -8.195  13.584  68.024  1.00  0.00    -0.163 A  
HETATM    6  N   UNL     1      -7.819  12.676  68.993  1.00  0.00    -0.326 NA 
HETATM    7  N   UNL     1      -9.215  13.230  67.237  1.00  0.00    -0.213 NA 
HETATM    8  H2  UNL     1      -7.922  13.098  69.916  1.00  0.00     0.000 HD 
HETATM    9  C   UNL     1      -9.622  14.221  66.430  1.00  0.00    -0.298 A  
HETATM   10  H1  UNL     1      -8.289  11.771  68.976  1.00  0.00     0.000 HD 
HETATM   11  C   UNL     1      -9.071  15.490  66.337  1.00  0.00    -0.316 A  
HETATM   12  N   UNL     1      -9.762  16.250  65.419  1.00  0.00    -0.444 NA 
HETATM   13  C   UNL     1     -10.732  15.470  64.995  1.00  0.00    -0.441 A  
HETATM   14  N   UNL     1     -10.698  14.232  65.589  1.00  0.00    -0.303 NA 
BRANCH  14  15
HETATM   15  C1* UNL     1     -11.745  13.243  65.450  1.00  0.00    -0.343 C  
HETATM   16  O4* UNL     1     -11.152  11.944  65.667  1.00  0.00    -0.304 OA 
HETATM   17  C4* UNL     1     -11.048  11.255  64.397  1.00  0.00    -0.203 C  
HETATM   18  H2* UNL     1     -13.209  14.320  62.653  1.00  0.00     0.000 HD 
HETATM   19  C3* UNL     1     -11.823  12.063  63.350  1.00  0.00    -0.447 C  
HETATM   20  C2* UNL     1     -12.536  13.148  64.148  1.00  0.00    -0.274 C  
HETATM   21  O3* UNL     1     -12.785  11.253  62.662  1.00  0.00    -0.801 OA 
HETATM   22  H3* UNL     1     -13.265  11.754  62.013  1.00  0.00     0.000 HD 
HETATM   23  O2* UNL     1     -12.716  14.379  63.463  1.00  0.00    -0.742 OA 
BRANCH  17  24
HETATM   24  C5* UNL     1      -9.565  11.071  64.037  1.00  0.00    -0.272 C  
HETATM   25  O5* UNL     1      -9.159  12.074  63.106  1.00  0.00    -0.654 OA 
HETATM   26  H5* UNL     1      -8.242  11.960  62.884  1.00  0.00     0.000 HD 
ENDBRANCH  17  24
ENDBRANCH  14  15
ENDBRANCH   2   3
TORSDOF 3
ENDMDL
MODEL       39
REMARK 921   NORMALIZED FREE ENERGY PREDICTED BY IDOCK:   -5.66 KCAL/MOL
REMARK 922        TOTAL FREE ENERGY PREDICTED BY IDOCK:   -6.88 KCAL/MOL
REMARK 923 INTER-LIGAND FREE ENERGY PREDICTED BY IDOCK:   -6.86 KCAL/MOL
REMARK 924 INTRA-LIGAND FREE ENERGY PREDICTED BY IDOCK:   -0.02 KCAL/MOL
REMARK 927      BINDING AFFINITY PREDICTED BY RF-SCORE:    0.00 PKD
ROOT
HETATM    1  C   UNL     1      -9.898   7.339  73.545  1.00  0.00    -0.301 C  
HETATM    2  O   UNL     1      -9.585   8.101  72.384  1.00  0.00    -0.210 OA 
ENDROOT
BRANCH   2   3
HETATM    3  C   UNL     1     -10.710   8.692  71.845  1.00  0.00    -0.344 A  
HETATM    4  N   UNL     1     -11.901   8.568  72.486  1.00  0.00    -0.368 NA 
HETATM    5  C   UNL     1     -12.972   9.193  71.986  1.00  0.00    -0.424 A  
HETATM    6  N   UNL     1     -14.129   9.130  72.735  1.00  0.00    -1.013 NA 
HETATM    7  N   UNL     1     -13.005   9.967  70.897  1.00  0.00    -0.314 NA 
HETATM    8  H2  UNL     1     -13.945   9.470  73.679  1.00  0.00     0.000 HD 
HETATM    9  C   UNL     1     -11.805  10.101  70.313  1.00  0.00    -0.261 A  
HETATM   10  H1  UNL     1     -14.946   9.607  72.353  1.00  0.00     0.000 HD 
HETATM   11  C   UNL     1     -10.620   9.503  70.713  1.00  0.00    -0.317 A  
HETATM   12  N   UNL     1      -9.584   9.886  69.890  1.00  0.00    -0.233 NA 
HETATM   13  C   UNL     1     -10.124  10.728  69.036  1.00  0.00    -0.211 A  
HETATM   14  N   UNL     1     -11.468  10.901  69.260  1.00  0.00    -0.275 NA 
BRANCH  14  15
HETATM   15  C1* UNL     1     -12.272  11.902  68.593  1.00  0.00     0.104 C  
HETATM   16  O4* UNL     1     -11.935  11.872  67.188  1.00  0.00    -0.611 OA 
HETATM   17  C4* UNL     1     -11.145  13.043  66.869  1.00  0.00    -0.277 C  
HETATM   18  H2* UNL     1     -11.874  14.472  70.682  1.00  0.00     0.000 HD 
HETATM   19  C3* UNL     1     -11.174  13.985  68.079  1.00  0.00    -0.279 C  
HETATM   20  C2* UNL     1     -12.190  13.362  69.030  1.00  0.00    -0.148 C  
HETATM   21  O3* UNL     1     -11.596  15.305  67.713  1.00  0.00    -0.335 OA 
HETATM   22  H3* UNL     1     -11.613  15.888  68.463  1.00  0.00     0.000 HD 
HETATM   23  O2* UNL     1     -11.925  13.563  70.410  1.00  0.00    -0.329 OA 
BRANCH  17  24
HETATM   24  C5* UNL     1      -9.723  12.609  66.480  1.00  0.00    -0.256 C  
HETATM   25  O5* UNL     1      -8.888  13.755  66.320  1.00  0.00    -0.458 OA 
HETATM   26  H5* UNL     1      -8.009  13.486  66.080  1.00  0.00     0.000 HD 
ENDBRANCH  17  24
ENDBRANCH  14  15
ENDBRANCH   2   3
TORSDOF 3
ENDMDL
MODEL       40
REMARK 921   NORMALIZED FREE ENERGY PREDICTED BY IDOCK:   -5.66 KCAL/MOL
REMARK 922        TOTAL FREE ENERGY PREDICTED BY IDOCK:   -6.87 KCAL/MOL
REMARK 923 INTER-LIGAND FREE ENERGY PREDICTED BY IDOCK:   -6.85 KCAL/MOL
REMARK 924 INTRA-LIGAND FREE ENERGY PREDICTED BY IDOCK:   -0.02 KCAL/MOL
REMARK 927      BINDING AFFINITY PREDICTED BY RF-SCORE:    0.00 PKD
ROOT
HETATM    1  C   UNL     1      -6.909  15.166  67.606  1.00  0.00    -0.180 C  
HETATM    2  O   UNL     1      -7.800  16.228  67.281  1.00  0.00    -0.147 OA 
ENDROOT
BRANCH   2   3
HETATM    3  C   UNL     1      -9.111  15.798  67.239  1.00  0.00    -0.207 A  
HETATM    4  N   UNL     1      -9.591  15.235  66.099  1.00  0.00    -0.298 NA 
HETATM    5  C   UNL     1     -10.844  14.770  66.088  1.00  0.00    -0.321 A  
HETATM    6  N   UNL     1     -11.246  14.105  64.947  1.00  0.00    -0.355 NA 
HETATM    7  N   UNL     1     -11.706  14.779  67.109  1.00  0.00    -0.365 NA 
HETATM    8  H2  UNL     1     -10.596  13.344  64.747  1.00  0.00     0.000 HD 
HETATM    9  C   UNL     1     -11.186  15.304  68.229  1.00  0.00    -0.314 A  
HETATM   10  H1  UNL     1     -12.202  13.750  64.939  1.00  0.00     0.000 HD 
HETATM   11  C   UNL     1      -9.914  15.834  68.379  1.00  0.00    -0.217 A  
HETATM   12  N   UNL     1      -9.718  16.260  69.674  1.00  0.00    -0.130 NA 
HETATM   13  C   UNL     1     -10.834  15.958  70.302  1.00  0.00    -0.340 A  
HETATM   14  N   UNL     1     -11.751  15.363  69.470  1.00  0.00    -0.325 NA 
BRANCH  14  15
HETATM   15  C1* UNL     1     -12.986  14.764  69.929  1.00  0.00     0.157 C  
HETATM   16  O4* UNL     1     -13.587  15.672  70.878  1.00  0.00    -0.568 OA 
HETATM   17  C4* UNL     1     -13.434  15.128  72.212  1.00  0.00    -0.437 C  
HETATM   18  H2* UNL     1     -11.946  11.653  70.535  1.00  0.00     0.000 HD 
HETATM   19  C3* UNL     1     -12.913  13.692  72.087  1.00  0.00    -0.324 C  
HETATM   20  C2* UNL     1     -12.965  13.390  70.594  1.00  0.00     0.013 C  
HETATM   21  O3* UNL     1     -13.739  12.764  72.800  1.00  0.00    -0.696 OA 
HETATM   22  H3* UNL     1     -13.415  11.874  72.723  1.00  0.00     0.000 HD 
HETATM   23  O2* UNL     1     -11.958  12.508  70.121  1.00  0.00    -0.347 OA 
BRANCH  17  24
HETATM   24  C5* UNL     1     -12.502  16.037  73.029  1.00  0.00    -0.511 C  
HETATM   25  O5* UNL     1     -13.085  16.320  74.301  1.00  0.00    -0.944 OA 
HETATM   26  H5* UNL     1     -12.508  16.881  74.806  1.00  0.00     0.000 HD 
ENDBRANCH  17  24
ENDBRANCH  14  15
ENDBRANCH   2   3
TORSDOF 3
ENDMDL
MODEL       41
REMARK 921   NORMALIZED FREE ENERGY PREDICTED BY IDOCK:   -5.58 KCAL/MOL
REMARK 922        TOTAL FREE ENERGY PREDICTED BY IDOCK:   -6.79 KCAL/MOL
REMARK 923 INTER-LIGAND FREE ENERGY PREDICTED BY IDOCK:   -6.98 KCAL/MOL
REMARK 924 INTRA-LIGAND FREE ENERGY PREDICTED BY IDOCK:    0.19 KCAL/MOL
REMARK 927      BINDING AFFINITY PREDICTED BY RF-SCORE:    0.00 PKD
ROOT
HETATM    1  C   UNL     1     -12.130  13.472  67.093  1.00  0.00    -0.340 C  
HETATM    2  O   UNL     1     -11.958  12.063  66.982  1.00  0.00    -0.609 OA 
ENDROOT
BRANCH   2   3
HETATM    3  C   UNL     1     -11.757  11.475  68.215  1.00  0.00    -0.301 A  
HETATM    4  N   UNL     1     -12.246  12.079  69.329  1.00  0.00    -0.159 NA 
HETATM    5  C   UNL     1     -12.095  11.472  70.510  1.00  0.00    -0.378 A  
HETATM    6  N   UNL     1     -12.708  12.068  71.594  1.00  0.00    -0.274 NA 
HETATM    7  N   UNL     1     -11.512  10.290  70.730  1.00  0.00    -0.340 NA 
HETATM    8  H2  UNL     1     -13.701  12.195  71.398  1.00  0.00     0.000 HD 
HETATM    9  C   UNL     1     -11.078   9.703  69.604  1.00  0.00    -0.193 A  
HETATM   10  H1  UNL     1     -12.593  11.605  72.495  1.00  0.00     0.000 HD 
HETATM   11  C   UNL     1     -11.155  10.221  68.320  1.00  0.00    -0.254 A  
HETATM   12  N   UNL     1     -10.630   9.331  67.408  1.00  0.00    -0.278 NA 
HETATM   13  C   UNL     1     -10.280   8.283  68.122  1.00  0.00    -0.210 A  
HETATM   14  N   UNL     1     -10.544   8.455  69.458  1.00  0.00    -0.227 NA 
BRANCH  14  15
HETATM   15  C1* UNL     1     -10.431   7.402  70.444  1.00  0.00    -0.221 C  
HETATM   16  O4* UNL     1     -11.751   6.853  70.654  1.00  0.00    -0.338 OA 
HETATM   17  C4* UNL     1     -12.244   7.294  71.942  1.00  0.00    -0.313 C  
HETATM   18  H2* UNL     1      -8.522   8.921  72.719  1.00  0.00     0.000 HD 
HETATM   19  C3* UNL     1     -11.090   7.969  72.691  1.00  0.00    -0.387 C  
HETATM   20  C2* UNL     1      -9.862   7.709  71.827  1.00  0.00    -0.165 C  
HETATM   21  O3* UNL     1     -10.898   7.400  73.993  1.00  0.00    -0.558 OA 
HETATM   22  H3* UNL     1     -10.183   7.819  74.457  1.00  0.00     0.000 HD 
HETATM   23  O2* UNL     1      -8.876   8.730  71.858  1.00  0.00    -0.271 OA 
BRANCH  17  24
HETATM   24  C5* UNL     1     -13.451   8.224  71.735  1.00  0.00    -0.352 C  
HETATM   25  O5* UNL     1     -13.565   9.130  72.831  1.00  0.00    -0.809 OA 
HETATM   26  H5* UNL     1     -14.311   9.704  72.703  1.00  0.00     0.000 HD 
ENDBRANCH  17  24
ENDBRANCH  14  15
ENDBRANCH   2   3
TORSDOF 3
ENDMDL
MODEL       42
REMARK 921   NORMALIZED FREE ENERGY PREDICTED BY IDOCK:   -5.58 KCAL/MOL
REMARK 922        TOTAL FREE ENERGY PREDICTED BY IDOCK:   -6.79 KCAL/MOL
REMARK 923 INTER-LIGAND FREE ENERGY PREDICTED BY IDOCK:   -7.31 KCAL/MOL
REMARK 924 INTRA-LIGAND FREE ENERGY PREDICTED BY IDOCK:    0.52 KCAL/MOL
REMARK 927      BINDING AFFINITY PREDICTED BY RF-SCORE:    0.00 PKD
ROOT
HETATM    1  C   UNL     1      -7.396  17.432  65.912  1.00  0.00    -0.101 C  
HETATM    2  O   UNL     1      -8.406  17.036  66.835  1.00  0.00    -0.192 OA 
ENDROOT
BRANCH   2   3
HETATM    3  C   UNL     1      -9.331  16.196  66.248  1.00  0.00    -0.317 A  
HETATM    4  N   UNL     1     -10.193  16.696  65.324  1.00  0.00    -0.605 NA 
HETATM    5  C   UNL     1     -11.046  15.862  64.720  1.00  0.00    -0.384 A  
HETATM    6  N   UNL     1     -11.819  16.396  63.709  1.00  0.00    -1.377 NA 
HETATM    7  N   UNL     1     -11.142  14.544  64.914  1.00  0.00    -0.377 NA 
HETATM    8  H2  UNL     1     -11.217  16.835  63.013  1.00  0.00     0.000 HD 
HETATM    9  C   UNL     1     -10.249  14.078  65.801  1.00  0.00    -0.328 A  
HETATM   10  H1  UNL     1     -12.470  15.760  63.249  1.00  0.00     0.000 HD 
HETATM   11  C   UNL     1      -9.321  14.826  66.508  1.00  0.00    -0.290 A  
HETATM   12  N   UNL     1      -8.554  14.010  67.311  1.00  0.00    -0.208 NA 
HETATM   13  C   UNL     1      -8.984  12.792  67.063  1.00  0.00    -0.221 A  
HETATM   14  N   UNL     1     -10.004  12.779  66.143  1.00  0.00    -0.263 NA 
BRANCH  14  15
HETATM   15  C1* UNL     1     -10.540  11.573  65.550  1.00  0.00    -0.281 C  
HETATM   16  O4* UNL     1      -9.884  10.448  66.176  1.00  0.00    -0.201 OA 
HETATM   17  C4* UNL     1      -8.944   9.870  65.238  1.00  0.00    -0.191 C  
HETATM   18  H2* UNL     1     -10.426  12.399  62.320  1.00  0.00     0.000 HD 
HETATM   19  C3* UNL     1      -9.176  10.516  63.868  1.00  0.00    -0.256 C  
HETATM   20  C2* UNL     1     -10.437  11.354  64.043  1.00  0.00    -0.378 C  
HETATM   21  O3* UNL     1      -9.385   9.532  62.846  1.00  0.00    -0.510 OA 
HETATM   22  H3* UNL     1      -9.528   9.932  61.997  1.00  0.00     0.000 HD 
HETATM   23  O2* UNL     1     -10.489  12.536  63.258  1.00  0.00    -0.346 OA 
BRANCH  17  24
HETATM   24  C5* UNL     1      -7.513  10.071  65.762  1.00  0.00    -0.121 C  
HETATM   25  O5* UNL     1      -6.731  10.771  64.794  1.00  0.00    -0.359 OA 
HETATM   26  H5* UNL     1      -5.847  10.895  65.118  1.00  0.00     0.000 HD 
ENDBRANCH  17  24
ENDBRANCH  14  15
ENDBRANCH   2   3
TORSDOF 3
ENDMDL
MODEL       43
REMARK 921   NORMALIZED FREE ENERGY PREDICTED BY IDOCK:   -5.56 KCAL/MOL
REMARK 922        TOTAL FREE ENERGY PREDICTED BY IDOCK:   -6.76 KCAL/MOL
REMARK 923 INTER-LIGAND FREE ENERGY PREDICTED BY IDOCK:   -7.27 KCAL/MOL
REMARK 924 INTRA-LIGAND FREE ENERGY PREDICTED BY IDOCK:    0.52 KCAL/MOL
REMARK 927      BINDING AFFINITY PREDICTED BY RF-SCORE:    0.00 PKD
ROOT
HETATM    1  C   UNL     1     -14.319  14.483  71.549  1.00  0.00    -0.417 C  
HETATM    2  O   UNL     1     -12.904  14.495  71.698  1.00  0.00    -0.308 OA 
ENDROOT
BRANCH   2   3
HETATM    3  C   UNL     1     -12.269  13.983  70.584  1.00  0.00    -0.372 A  
HETATM    4  N   UNL     1     -12.451  12.678  70.255  1.00  0.00    -0.155 NA 
HETATM    5  C   UNL     1     -11.878  12.208  69.142  1.00  0.00    -0.305 A  
HETATM    6  N   UNL     1     -12.186  10.910  68.789  1.00  0.00    -0.793 NA 
HETATM    7  N   UNL     1     -11.134  12.902  68.275  1.00  0.00    -0.249 NA 
HETATM    8  H2  UNL     1     -13.199  10.804  68.725  1.00  0.00     0.000 HD 
HETATM    9  C   UNL     1     -11.009  14.196  68.610  1.00  0.00    -0.258 A  
HETATM   10  H1  UNL     1     -11.749  10.552  67.940  1.00  0.00     0.000 HD 
HETATM   11  C   UNL     1     -11.534  14.811  69.735  1.00  0.00    -0.291 A  
HETATM   12  N   UNL     1     -11.225  16.154  69.740  1.00  0.00    -0.341 NA 
HETATM   13  C   UNL     1     -10.562  16.352  68.621  1.00  0.00    -0.305 A  
HETATM   14  N   UNL     1     -10.416  15.195  67.894  1.00  0.00    -0.242 NA 
BRANCH  14  15
HETATM   15  C1* UNL     1      -9.892  15.152  66.546  1.00  0.00    -0.262 C  
HETATM   16  O4* UNL     1     -10.989  15.406  65.641  1.00  0.00    -0.333 OA 
HETATM   17  C4* UNL     1     -11.353  14.168  64.983  1.00  0.00    -0.350 C  
HETATM   18  H2* UNL     1      -8.053  12.374  66.715  1.00  0.00     0.000 HD 
HETATM   19  C3* UNL     1     -10.287  13.118  65.315  1.00  0.00    -0.305 C  
HETATM   20  C2* UNL     1      -9.193  13.893  66.041  1.00  0.00     0.077 C  
HETATM   21  O3* UNL     1      -9.751  12.515  64.130  1.00  0.00    -0.570 OA 
HETATM   22  H3* UNL     1      -9.090  11.864  64.336  1.00  0.00     0.000 HD 
HETATM   23  O2* UNL     1      -8.489  13.157  67.030  1.00  0.00    -0.194 OA 
BRANCH  17  24
HETATM   24  C5* UNL     1     -12.764  13.751  65.427  1.00  0.00    -0.472 C  
HETATM   25  O5* UNL     1     -13.187  12.599  64.699  1.00  0.00    -0.828 OA 
HETATM   26  H5* UNL     1     -14.059  12.341  64.974  1.00  0.00     0.000 HD 
ENDBRANCH  17  24
ENDBRANCH  14  15
ENDBRANCH   2   3
TORSDOF 3
ENDMDL
MODEL       44
REMARK 921   NORMALIZED FREE ENERGY PREDICTED BY IDOCK:   -5.56 KCAL/MOL
REMARK 922        TOTAL FREE ENERGY PREDICTED BY IDOCK:   -6.76 KCAL/MOL
REMARK 923 INTER-LIGAND FREE ENERGY PREDICTED BY IDOCK:   -6.78 KCAL/MOL
REMARK 924 INTRA-LIGAND FREE ENERGY PREDICTED BY IDOCK:    0.03 KCAL/MOL
REMARK 927      BINDING AFFINITY PREDICTED BY RF-SCORE:    0.00 PKD
ROOT
HETATM    1  C   UNL     1      -9.853  10.455  64.276  1.00  0.00    -0.322 C  
HETATM    2  O   UNL     1     -10.152   9.603  65.377  1.00  0.00    -0.272 OA 
ENDROOT
BRANCH   2   3
HETATM    3  C   UNL     1     -10.272  10.314  66.554  1.00  0.00    -0.226 A  
HETATM    4  N   UNL     1     -10.424  11.663  66.505  1.00  0.00    -0.230 NA 
HETATM    5  C   UNL     1     -10.598  12.334  67.649  1.00  0.00    -0.215 A  
HETATM    6  N   UNL     1     -10.863  13.684  67.538  1.00  0.00    -0.262 NA 
HETATM    7  N   UNL     1     -10.657  11.812  68.877  1.00  0.00    -0.205 NA 
HETATM    8  H2  UNL     1     -11.671  13.826  66.931  1.00  0.00     0.000 HD 
HETATM    9  C   UNL     1     -10.544  10.475  68.884  1.00  0.00    -0.216 A  
HETATM   10  H1  UNL     1     -10.995  14.196  68.410  1.00  0.00     0.000 HD 
HETATM   11  C   UNL     1     -10.348   9.657  67.783  1.00  0.00    -0.236 A  
HETATM   12  N   UNL     1     -10.303   8.334  68.165  1.00  0.00    -0.210 NA 
HETATM   13  C   UNL     1     -10.507   8.351  69.464  1.00  0.00    -0.224 A  
HETATM   14  N   UNL     1     -10.673   9.627  69.946  1.00  0.00    -0.235 NA 
BRANCH  14  15
HETATM   15  C1* UNL     1     -11.092   9.929  71.298  1.00  0.00    -0.232 C  
HETATM   16  O4* UNL     1     -10.557   8.903  72.163  1.00  0.00    -0.340 OA 
HETATM   17  C4* UNL     1     -11.634   8.030  72.579  1.00  0.00    -0.403 C  
HETATM   18  H2* UNL     1     -14.315  10.615  70.780  1.00  0.00     0.000 HD 
HETATM   19  C3* UNL     1     -12.960   8.663  72.143  1.00  0.00    -0.387 C  
HETATM   20  C2* UNL     1     -12.578  10.046  71.627  1.00  0.00    -0.427 C  
HETATM   21  O3* UNL     1     -13.873   8.790  73.241  1.00  0.00    -1.115 OA 
HETATM   22  H3* UNL     1     -14.695   9.182  72.971  1.00  0.00     0.000 HD 
HETATM   23  O2* UNL     1     -13.390  10.542  70.574  1.00  0.00    -0.206 OA 
BRANCH  17  24
HETATM   24  C5* UNL     1     -11.414   6.630  71.984  1.00  0.00    -0.291 C  
HETATM   25  O5* UNL     1     -12.121   5.655  72.750  1.00  0.00    -0.532 OA 
HETATM   26  H5* UNL     1     -11.984   4.790  72.383  1.00  0.00     0.000 HD 
ENDBRANCH  17  24
ENDBRANCH  14  15
ENDBRANCH   2   3
TORSDOF 3
ENDMDL
MODEL       45
REMARK 921   NORMALIZED FREE ENERGY PREDICTED BY IDOCK:   -5.51 KCAL/MOL
REMARK 922        TOTAL FREE ENERGY PREDICTED BY IDOCK:   -6.71 KCAL/MOL
REMARK 923 INTER-LIGAND FREE ENERGY PREDICTED BY IDOCK:   -6.49 KCAL/MOL
REMARK 924 INTRA-LIGAND FREE ENERGY PREDICTED BY IDOCK:   -0.21 KCAL/MOL
REMARK 927      BINDING AFFINITY PREDICTED BY RF-SCORE:    0.00 PKD
ROOT
HETATM    1  C   UNL     1      -6.050  20.688  68.620  1.00  0.00    -0.336 C  
HETATM    2  O   UNL     1      -6.235  19.287  68.447  1.00  0.00    -0.222 OA 
ENDROOT
BRANCH   2   3
HETATM    3  C   UNL     1      -7.512  18.991  68.014  1.00  0.00    -0.260 A  
HETATM    4  N   UNL     1      -8.137  19.839  67.156  1.00  0.00    -0.280 NA 
HETATM    5  C   UNL     1      -9.350  19.513  66.698  1.00  0.00    -0.358 A  
HETATM    6  N   UNL     1      -9.894  20.348  65.742  1.00  0.00    -0.591 NA 
HETATM    7  N   UNL     1     -10.038  18.403  66.982  1.00  0.00    -0.344 NA 
HETATM    8  H2  UNL     1      -9.245  20.441  64.960  1.00  0.00     0.000 HD 
HETATM    9  C   UNL     1      -9.373  17.570  67.798  1.00  0.00    -0.257 A  
HETATM   10  H1  UNL     1     -10.819  20.099  65.392  1.00  0.00     0.000 HD 
HETATM   11  C   UNL     1      -8.123  17.785  68.357  1.00  0.00    -0.297 A  
HETATM   12  N   UNL     1      -7.745  16.705  69.124  1.00  0.00    -0.224 NA 
HETATM   13  C   UNL     1      -8.729  15.841  68.999  1.00  0.00    -0.237 A  
HETATM   14  N   UNL     1      -9.735  16.315  68.193  1.00  0.00    -0.225 NA 
BRANCH  14  15
HETATM   15  C1* UNL     1     -10.847  15.510  67.736  1.00  0.00    -0.309 C  
HETATM   16  O4* UNL     1     -11.945  15.720  68.651  1.00  0.00    -0.344 OA 
HETATM   17  C4* UNL     1     -12.103  14.539  69.475  1.00  0.00    -0.306 C  
HETATM   18  H2* UNL     1      -9.283  12.627  67.130  1.00  0.00     0.000 HD 
HETATM   19  C3* UNL     1     -11.210  13.432  68.902  1.00  0.00    -0.276 C  
HETATM   20  C2* UNL     1     -10.686  13.999  67.588  1.00  0.00    -0.257 C  
HETATM   21  O3* UNL     1     -11.950  12.230  68.652  1.00  0.00    -0.309 OA 
HETATM   22  H3* UNL     1     -11.396  11.545  68.298  1.00  0.00     0.000 HD 
HETATM   23  O2* UNL     1      -9.384  13.567  67.222  1.00  0.00    -0.216 OA 
BRANCH  17  24
HETATM   24  C5* UNL     1     -11.768  14.886  70.934  1.00  0.00    -0.323 C  
HETATM   25  O5* UNL     1     -11.591  16.295  71.074  1.00  0.00    -0.520 OA 
HETATM   26  H5* UNL     1     -11.384  16.510  71.976  1.00  0.00     0.000 HD 
ENDBRANCH  17  24
ENDBRANCH  14  15
ENDBRANCH   2   3
TORSDOF 3
ENDMDL
MODEL       46
REMARK 921   NORMALIZED FREE ENERGY PREDICTED BY IDOCK:   -5.49 KCAL/MOL
REMARK 922        TOTAL FREE ENERGY PREDICTED BY IDOCK:   -6.68 KCAL/MOL
REMARK 923 INTER-LIGAND FREE ENERGY PREDICTED BY IDOCK:   -6.95 KCAL/MOL
REMARK 924 INTRA-LIGAND FREE ENERGY PREDICTED BY IDOCK:    0.27 KCAL/MOL
REMARK 927      BINDING AFFINITY PREDICTED BY RF-SCORE:    0.00 PKD
ROOT
HETATM    1  C   UNL     1     -10.614  19.268  66.089  1.00  0.00    -0.459 C  
HETATM    2  O   UNL     1     -10.714  18.116  65.258  1.00  0.00    -0.605 OA 
ENDROOT
BRANCH   2   3
HETATM    3  C   UNL     1     -10.312  16.974  65.919  1.00  0.00    -0.298 A  
HETATM    4  N   UNL     1      -9.542  17.085  67.033  1.00  0.00    -0.247 NA 
HETATM    5  C   UNL     1      -9.206  15.975  67.699  1.00  0.00    -0.205 A  
HETATM    6  N   UNL     1      -8.523  16.150  68.885  1.00  0.00    -0.229 NA 
HETATM    7  N   UNL     1      -9.566  14.725  67.395  1.00  0.00    -0.208 NA 
HETATM    8  H2  UNL     1      -9.052  16.770  69.498  1.00  0.00     0.000 HD 
HETATM    9  C   UNL     1     -10.358  14.656  66.314  1.00  0.00    -0.294 A  
HETATM   10  H1  UNL     1      -8.267  15.303  69.393  1.00  0.00     0.000 HD 
HETATM   11  C   UNL     1     -10.772  15.717  65.525  1.00  0.00    -0.383 A  
HETATM   12  N   UNL     1     -11.598  15.275  64.514  1.00  0.00    -0.368 NA 
HETATM   13  C   UNL     1     -11.712  13.980  64.714  1.00  0.00    -0.394 A  
HETATM   14  N   UNL     1     -10.988  13.558  65.803  1.00  0.00    -0.277 NA 
BRANCH  14  15
HETATM   15  C1* UNL     1     -11.075  12.226  66.360  1.00  0.00    -0.303 C  
HETATM   16  O4* UNL     1     -12.155  12.220  67.319  1.00  0.00    -0.548 OA 
HETATM   17  C4* UNL     1     -11.598  12.181  68.655  1.00  0.00    -0.321 C  
HETATM   18  H2* UNL     1      -7.852  11.638  66.990  1.00  0.00     0.000 HD 
HETATM   19  C3* UNL     1     -10.093  11.917  68.540  1.00  0.00    -0.206 C  
HETATM   20  C2* UNL     1      -9.865  11.614  67.063  1.00  0.00    -0.193 C  
HETATM   21  O3* UNL     1      -9.689  10.794  69.334  1.00  0.00    -0.377 OA 
HETATM   22  H3* UNL     1      -8.756  10.631  69.263  1.00  0.00     0.000 HD 
HETATM   23  O2* UNL     1      -8.604  12.019  66.552  1.00  0.00    -0.177 OA 
BRANCH  17  24
HETATM   24  C5* UNL     1     -11.923  13.496  69.382  1.00  0.00    -0.330 C  
HETATM   25  O5* UNL     1     -12.577  14.399  68.491  1.00  0.00    -0.533 OA 
HETATM   26  H5* UNL     1     -12.777  15.212  68.940  1.00  0.00     0.000 HD 
ENDBRANCH  17  24
ENDBRANCH  14  15
ENDBRANCH   2   3
TORSDOF 3
ENDMDL
MODEL       47
REMARK 921   NORMALIZED FREE ENERGY PREDICTED BY IDOCK:   -5.48 KCAL/MOL
REMARK 922        TOTAL FREE ENERGY PREDICTED BY IDOCK:   -6.67 KCAL/MOL
REMARK 923 INTER-LIGAND FREE ENERGY PREDICTED BY IDOCK:   -6.54 KCAL/MOL
REMARK 924 INTRA-LIGAND FREE ENERGY PREDICTED BY IDOCK:   -0.13 KCAL/MOL
REMARK 927      BINDING AFFINITY PREDICTED BY RF-SCORE:    0.00 PKD
ROOT
HETATM    1  C   UNL     1     -12.268  15.047  64.246  1.00  0.00    -0.293 C  
HETATM    2  O   UNL     1     -12.959  13.954  64.841  1.00  0.00    -0.711 OA 
ENDROOT
BRANCH   2   3
HETATM    3  C   UNL     1     -12.180  12.815  64.873  1.00  0.00    -0.463 A  
HETATM    4  N   UNL     1     -11.657  12.333  63.716  1.00  0.00    -0.428 NA 
HETATM    5  C   UNL     1     -10.857  11.263  63.766  1.00  0.00    -0.350 A  
HETATM    6  N   UNL     1     -10.260  10.882  62.582  1.00  0.00    -0.754 NA 
HETATM    7  N   UNL     1     -10.485  10.598  64.864  1.00  0.00    -0.280 NA 
HETATM    8  H2  UNL     1      -9.751  11.672  62.185  1.00  0.00     0.000 HD 
HETATM    9  C   UNL     1     -10.986  11.126  65.991  1.00  0.00    -0.123 A  
HETATM   10  H1  UNL     1      -9.649  10.066  62.621  1.00  0.00     0.000 HD 
HETATM   11  C   UNL     1     -11.835  12.218  66.086  1.00  0.00    -0.329 A  
HETATM   12  N   UNL     1     -12.126  12.490  67.404  1.00  0.00    -0.455 NA 
HETATM   13  C   UNL     1     -11.437  11.607  68.093  1.00  0.00    -0.313 A  
HETATM   14  N   UNL     1     -10.718  10.764  67.280  1.00  0.00    -0.257 NA 
BRANCH  14  15
HETATM   15  C1* UNL     1      -9.735   9.820  67.767  1.00  0.00    -0.141 C  
HETATM   16  O4* UNL     1     -10.446   8.740  68.412  1.00  0.00    -0.207 OA 
HETATM   17  C4* UNL     1     -10.280   8.858  69.845  1.00  0.00    -0.200 C  
HETATM   18  H2* UNL     1      -7.565  11.910  69.199  1.00  0.00     0.000 HD 
HETATM   19  C3* UNL     1      -9.222   9.933  70.119  1.00  0.00    -0.135 C  
HETATM   20  C2* UNL     1      -8.657  10.279  68.746  1.00  0.00    -0.139 C  
HETATM   21  O3* UNL     1      -8.175   9.443  70.966  1.00  0.00    -0.294 OA 
HETATM   22  H3* UNL     1      -7.520  10.109  71.136  1.00  0.00     0.000 HD 
HETATM   23  O2* UNL     1      -8.236  11.625  68.589  1.00  0.00    -0.151 OA 
BRANCH  17  24
HETATM   24  C5* UNL     1     -11.639   9.175  70.491  1.00  0.00    -0.197 C  
HETATM   25  O5* UNL     1     -11.445   9.753  71.781  1.00  0.00    -0.322 OA 
HETATM   26  H5* UNL     1     -12.285   9.949  72.180  1.00  0.00     0.000 HD 
ENDBRANCH  17  24
ENDBRANCH  14  15
ENDBRANCH   2   3
TORSDOF 3
ENDMDL
MODEL       48
REMARK 921   NORMALIZED FREE ENERGY PREDICTED BY IDOCK:   -5.48 KCAL/MOL
REMARK 922        TOTAL FREE ENERGY PREDICTED BY IDOCK:   -6.67 KCAL/MOL
REMARK 923 INTER-LIGAND FREE ENERGY PREDICTED BY IDOCK:   -6.67 KCAL/MOL
REMARK 924 INTRA-LIGAND FREE ENERGY PREDICTED BY IDOCK:    0.00 KCAL/MOL
REMARK 927      BINDING AFFINITY PREDICTED BY RF-SCORE:    0.00 PKD
ROOT
HETATM    1  C   UNL     1     -13.815   8.874  71.928  1.00  0.00    -0.440 C  
HETATM    2  O   UNL     1     -13.033  10.058  72.039  1.00  0.00    -0.419 OA 
ENDROOT
BRANCH   2   3
HETATM    3  C   UNL     1     -12.098  10.148  71.028  1.00  0.00    -0.377 A  
HETATM    4  N   UNL     1     -11.474   9.021  70.595  1.00  0.00    -0.263 NA 
HETATM    5  C   UNL     1     -10.614   9.112  69.576  1.00  0.00    -0.223 A  
HETATM    6  N   UNL     1     -10.095   7.925  69.098  1.00  0.00    -0.192 NA 
HETATM    7  N   UNL     1     -10.296  10.218  68.898  1.00  0.00    -0.192 NA 
HETATM    8  H2  UNL     1     -10.857   7.294  68.849  1.00  0.00     0.000 HD 
HETATM    9  C   UNL     1     -10.960  11.303  69.325  1.00  0.00    -0.243 A  
HETATM   10  H1  UNL     1      -9.439   7.994  68.321  1.00  0.00     0.000 HD 
HETATM   11  C   UNL     1     -11.865  11.357  70.373  1.00  0.00    -0.335 A  
HETATM   12  N   UNL     1     -12.368  12.633  70.511  1.00  0.00    -0.314 NA 
HETATM   13  C   UNL     1     -11.809  13.324  69.542  1.00  0.00    -0.327 A  
HETATM   14  N   UNL     1     -10.956  12.557  68.786  1.00  0.00    -0.248 NA 
BRANCH  14  15
HETATM   15  C1* UNL     1     -10.348  13.007  67.552  1.00  0.00    -0.224 C  
HETATM   16  O4* UNL     1      -9.783  14.315  67.792  1.00  0.00    -0.215 OA 
HETATM   17  C4* UNL     1     -10.609  15.311  67.142  1.00  0.00    -0.302 C  
HETATM   18  H2* UNL     1     -12.773  12.254  65.388  1.00  0.00     0.000 HD 
HETATM   19  C3* UNL     1     -11.622  14.585  66.250  1.00  0.00    -0.360 C  
HETATM   20  C2* UNL     1     -11.192  13.124  66.285  1.00  0.00    -0.301 C  
HETATM   21  O3* UNL     1     -11.586  15.071  64.902  1.00  0.00    -0.386 OA 
HETATM   22  H3* UNL     1     -12.214  14.621  64.350  1.00  0.00     0.000 HD 
HETATM   23  O2* UNL     1     -12.249  12.181  66.177  1.00  0.00    -0.611 OA 
BRANCH  17  24
HETATM   24  C5* UNL     1     -11.273  16.198  68.208  1.00  0.00    -0.343 C  
HETATM   25  O5* UNL     1     -10.497  17.376  68.419  1.00  0.00    -0.357 OA 
HETATM   26  H5* UNL     1     -10.907  17.923  69.078  1.00  0.00     0.000 HD 
ENDBRANCH  17  24
ENDBRANCH  14  15
ENDBRANCH   2   3
TORSDOF 3
ENDMDL
MODEL       49
REMARK 921   NORMALIZED FREE ENERGY PREDICTED BY IDOCK:   -5.46 KCAL/MOL
REMARK 922        TOTAL FREE ENERGY PREDICTED BY IDOCK:   -6.64 KCAL/MOL
REMARK 923 INTER-LIGAND FREE ENERGY PREDICTED BY IDOCK:   -6.62 KCAL/MOL
REMARK 924 INTRA-LIGAND FREE ENERGY PREDICTED BY IDOCK:   -0.02 KCAL/MOL
REMARK 927      BINDING AFFINITY PREDICTED BY RF-SCORE:    0.00 PKD
ROOT
HETATM    1  C   UNL     1      -5.856  18.769  68.303  1.00  0.00    -0.205 C  
HETATM    2  O   UNL     1      -6.989  18.910  69.153  1.00  0.00    -0.301 OA 
ENDROOT
BRANCH   2   3
HETATM    3  C   UNL     1      -8.170  18.717  68.464  1.00  0.00    -0.346 A  
HETATM    4  N   UNL     1      -8.635  19.701  67.651  1.00  0.00    -0.312 NA 
HETATM    5  C   UNL     1      -9.749  19.480  66.944  1.00  0.00    -0.356 A  
HETATM    6  N   UNL     1     -10.116  20.464  66.048  1.00  0.00    -0.566 NA 
HETATM    7  N   UNL     1     -10.475  18.359  66.931  1.00  0.00    -0.392 NA 
HETATM    8  H2  UNL     1      -9.340  20.657  65.414  1.00  0.00     0.000 HD 
HETATM    9  C   UNL     1      -9.964  17.395  67.713  1.00  0.00    -0.301 A  
HETATM   10  H1  UNL     1     -10.965  20.295  65.509  1.00  0.00     0.000 HD 
HETATM   11  C   UNL     1      -8.832  17.490  68.507  1.00  0.00    -0.282 A  
HETATM   12  N   UNL     1      -8.594  16.297  69.153  1.00  0.00    -0.241 NA 
HETATM   13  C   UNL     1      -9.540  15.488  68.728  1.00  0.00    -0.208 A  
HETATM   14  N   UNL     1     -10.389  16.104  67.842  1.00  0.00    -0.269 NA 
BRANCH  14  15
HETATM   15  C1* UNL     1     -11.403  15.408  67.081  1.00  0.00    -0.203 C  
HETATM   16  O4* UNL     1     -11.859  14.291  67.876  1.00  0.00    -0.342 OA 
HETATM   17  C4* UNL     1     -11.333  13.066  67.311  1.00  0.00    -0.306 C  
HETATM   18  H2* UNL     1      -9.907  15.252  64.103  1.00  0.00     0.000 HD 
HETATM   19  C3* UNL     1     -10.698  13.396  65.956  1.00  0.00    -0.278 C  
HETATM   20  C2* UNL     1     -11.071  14.852  65.698  1.00  0.00    -0.348 C  
HETATM   21  O3* UNL     1     -11.221  12.568  64.909  1.00  0.00    -0.290 OA 
HETATM   22  H3* UNL     1     -10.827  12.773  64.070  1.00  0.00     0.000 HD 
HETATM   23  O2* UNL     1     -10.113  15.598  64.963  1.00  0.00    -0.398 OA 
BRANCH  17  24
HETATM   24  C5* UNL     1     -10.341  12.434  68.301  1.00  0.00    -0.227 C  
HETATM   25  O5* UNL     1     -10.989  12.171  69.544  1.00  0.00    -0.445 OA 
HETATM   26  H5* UNL     1     -10.375  11.780  70.155  1.00  0.00     0.000 HD 
ENDBRANCH  17  24
ENDBRANCH  14  15
ENDBRANCH   2   3
TORSDOF 3
ENDMDL
MODEL       50
REMARK 921   NORMALIZED FREE ENERGY PREDICTED BY IDOCK:   -5.42 KCAL/MOL
REMARK 922        TOTAL FREE ENERGY PREDICTED BY IDOCK:   -6.60 KCAL/MOL
REMARK 923 INTER-LIGAND FREE ENERGY PREDICTED BY IDOCK:   -6.53 KCAL/MOL
REMARK 924 INTRA-LIGAND FREE ENERGY PREDICTED BY IDOCK:   -0.07 KCAL/MOL
REMARK 927      BINDING AFFINITY PREDICTED BY RF-SCORE:    0.00 PKD
ROOT
HETATM    1  C   UNL     1      -6.719   8.014  62.691  1.00  0.00    -0.086 C  
HETATM    2  O   UNL     1      -7.684   9.056  62.584  1.00  0.00    -0.111 OA 
ENDROOT
BRANCH   2   3
HETATM    3  C   UNL     1      -8.448   9.162  63.729  1.00  0.00    -0.180 A  
HETATM    4  N   UNL     1      -8.291   8.248  64.722  1.00  0.00    -0.148 NA 
HETATM    5  C   UNL     1      -8.995   8.394  65.849  1.00  0.00    -0.178 A  
HETATM    6  N   UNL     1      -8.716   7.508  66.870  1.00  0.00    -0.126 NA 
HETATM    7  N   UNL     1      -9.853   9.379  66.131  1.00  0.00    -0.271 NA 
HETATM    8  H2  UNL     1      -7.719   7.533  67.083  1.00  0.00     0.000 HD 
HETATM    9  C   UNL     1      -9.951  10.285  65.146  1.00  0.00    -0.325 A  
HETATM   10  H1  UNL     1      -9.253   7.620  67.730  1.00  0.00     0.000 HD 
HETATM   11  C   UNL     1      -9.296  10.252  63.925  1.00  0.00    -0.291 A  
HETATM   12  N   UNL     1      -9.620  11.360  63.173  1.00  0.00    -0.369 NA 
HETATM   13  C   UNL     1     -10.424  12.065  63.939  1.00  0.00    -0.402 A  
HETATM   14  N   UNL     1     -10.644  11.461  65.152  1.00  0.00    -0.293 NA 
BRANCH  14  15
HETATM   15  C1* UNL     1     -11.335  12.096  66.254  1.00  0.00    -0.357 C  
HETATM   16  O4* UNL     1     -12.545  12.688  65.731  1.00  0.00    -0.575 OA 
HETATM   17  C4* UNL     1     -12.383  14.126  65.684  1.00  0.00    -0.456 C  
HETATM   18  H2* UNL     1      -8.794  13.704  67.698  1.00  0.00     0.000 HD 
HETATM   19  C3* UNL     1     -11.092  14.487  66.429  1.00  0.00    -0.331 C  
HETATM   20  C2* UNL     1     -10.636  13.181  67.069  1.00  0.00    -0.258 C  
HETATM   21  O3* UNL     1     -11.324  15.471  67.445  1.00  0.00    -0.302 OA 
HETATM   22  H3* UNL     1     -10.524  15.695  67.906  1.00  0.00     0.000 HD 
HETATM   23  O2* UNL     1      -9.229  13.029  67.191  1.00  0.00    -0.210 OA 
BRANCH  17  24
HETATM   24  C5* UNL     1     -12.381  14.591  64.220  1.00  0.00    -0.369 C  
HETATM   25  O5* UNL     1     -11.548  15.740  64.072  1.00  0.00    -0.896 OA 
HETATM   26  H5* UNL     1     -11.546  16.028  63.166  1.00  0.00     0.000 HD 
ENDBRANCH  17  24
ENDBRANCH  14  15
ENDBRANCH   2   3
TORSDOF 3
ENDMDL
MODEL       51
REMARK 921   NORMALIZED FREE ENERGY PREDICTED BY IDOCK:   -5.41 KCAL/MOL
REMARK 922        TOTAL FREE ENERGY PREDICTED BY IDOCK:   -6.59 KCAL/MOL
REMARK 923 INTER-LIGAND FREE ENERGY PREDICTED BY IDOCK:   -6.59 KCAL/MOL
REMARK 924 INTRA-LIGAND FREE ENERGY PREDICTED BY IDOCK:    0.00 KCAL/MOL
REMARK 927      BINDING AFFINITY PREDICTED BY RF-SCORE:    0.00 PKD
ROOT
HETATM    1  C   UNL     1      -9.154   8.578  72.290  1.00  0.00    -0.248 C  
HETATM    2  O   UNL     1      -9.569   8.631  70.929  1.00  0.00    -0.175 OA 
ENDROOT
BRANCH   2   3
HETATM    3  C   UNL     1     -10.634   9.492  70.755  1.00  0.00    -0.317 A  
HETATM    4  N   UNL     1     -11.670   9.456  71.633  1.00  0.00    -0.381 NA 
HETATM    5  C   UNL     1     -12.669  10.334  71.488  1.00  0.00    -0.452 A  
HETATM    6  N   UNL     1     -13.638  10.334  72.471  1.00  0.00    -0.507 NA 
HETATM    7  N   UNL     1     -12.763  11.286  70.556  1.00  0.00    -0.219 NA 
HETATM    8  H2  UNL     1     -13.201  10.460  73.384  1.00  0.00     0.000 HD 
HETATM    9  C   UNL     1     -11.704  11.319  69.732  1.00  0.00    -0.349 A  
HETATM   10  H1  UNL     1     -14.400  11.003  72.360  1.00  0.00     0.000 HD 
HETATM   11  C   UNL     1     -10.612  10.467  69.757  1.00  0.00    -0.258 A  
HETATM   12  N   UNL     1      -9.707  10.811  68.777  1.00  0.00    -0.185 NA 
HETATM   13  C   UNL     1     -10.225  11.873  68.198  1.00  0.00    -0.199 A  
HETATM   14  N   UNL     1     -11.431  12.228  68.751  1.00  0.00    -0.285 NA 
BRANCH  14  15
HETATM   15  C1* UNL     1     -12.132  13.454  68.436  1.00  0.00    -0.235 C  
HETATM   16  O4* UNL     1     -11.908  13.741  67.038  1.00  0.00    -0.365 OA 
HETATM   17  C4* UNL     1     -10.985  14.851  66.927  1.00  0.00    -0.327 C  
HETATM   18  H2* UNL     1     -11.213  15.344  71.027  1.00  0.00     0.000 HD 
HETATM   19  C3* UNL     1     -10.788  15.451  68.324  1.00  0.00    -0.269 C  
HETATM   20  C2* UNL     1     -11.808  14.735  69.201  1.00  0.00    -0.305 C  
HETATM   21  O3* UNL     1     -11.042  16.862  68.335  1.00  0.00    -0.341 OA 
HETATM   22  H3* UNL     1     -10.919  17.234  69.200  1.00  0.00     0.000 HD 
HETATM   23  O2* UNL     1     -11.415  14.546  70.552  1.00  0.00    -0.259 OA 
BRANCH  17  24
HETATM   24  C5* UNL     1      -9.673  14.362  66.293  1.00  0.00    -0.310 C  
HETATM   25  O5* UNL     1      -9.905  13.940  64.950  1.00  0.00    -0.606 OA 
HETATM   26  H5* UNL     1      -9.094  13.638  64.558  1.00  0.00     0.000 HD 
ENDBRANCH  17  24
ENDBRANCH  14  15
ENDBRANCH   2   3
TORSDOF 3
ENDMDL
MODEL       52
REMARK 921   NORMALIZED FREE ENERGY PREDICTED BY IDOCK:   -5.35 KCAL/MOL
REMARK 922        TOTAL FREE ENERGY PREDICTED BY IDOCK:   -6.51 KCAL/MOL
REMARK 923 INTER-LIGAND FREE ENERGY PREDICTED BY IDOCK:   -6.31 KCAL/MOL
REMARK 924 INTRA-LIGAND FREE ENERGY PREDICTED BY IDOCK:   -0.20 KCAL/MOL
REMARK 927      BINDING AFFINITY PREDICTED BY RF-SCORE:    0.00 PKD
ROOT
HETATM    1  C   UNL     1     -10.299  19.815  66.486  1.00  0.00    -0.506 C  
HETATM    2  O   UNL     1      -9.310  19.007  65.856  1.00  0.00    -0.445 OA 
ENDROOT
BRANCH   2   3
HETATM    3  C   UNL     1      -8.890  17.982  66.679  1.00  0.00    -0.266 A  
HETATM    4  N   UNL     1      -7.962  18.235  67.639  1.00  0.00    -0.239 NA 
HETATM    5  C   UNL     1      -7.606  17.248  68.468  1.00  0.00    -0.251 A  
HETATM    6  N   UNL     1      -6.749  17.584  69.496  1.00  0.00    -0.180 NA 
HETATM    7  N   UNL     1      -8.085  16.000  68.473  1.00  0.00    -0.160 NA 
HETATM    8  H2  UNL     1      -7.144  18.356  70.032  1.00  0.00     0.000 HD 
HETATM    9  C   UNL     1      -9.028  15.798  67.540  1.00  0.00    -0.194 A  
HETATM   10  H1  UNL     1      -6.477  16.831  70.128  1.00  0.00     0.000 HD 
HETATM   11  C   UNL     1      -9.482  16.720  66.611  1.00  0.00    -0.257 A  
HETATM   12  N   UNL     1     -10.472  16.169  65.827  1.00  0.00    -0.358 NA 
HETATM   13  C   UNL     1     -10.639  14.953  66.298  1.00  0.00    -0.308 A  
HETATM   14  N   UNL     1      -9.795  14.684  67.348  1.00  0.00    -0.221 NA 
BRANCH  14  15
HETATM   15  C1* UNL     1      -9.885  13.498  68.171  1.00  0.00    -0.237 C  
HETATM   16  O4* UNL     1      -9.246  12.418  67.456  1.00  0.00    -0.172 OA 
HETATM   17  C4* UNL     1     -10.264  11.517  66.956  1.00  0.00    -0.214 C  
HETATM   18  H2* UNL     1     -13.088  13.657  69.090  1.00  0.00     0.000 HD 
HETATM   19  C3* UNL     1     -11.607  11.918  67.579  1.00  0.00    -0.304 C  
HETATM   20  C2* UNL     1     -11.251  12.980  68.614  1.00  0.00    -0.277 C  
HETATM   21  O3* UNL     1     -12.246  10.808  68.221  1.00  0.00    -0.815 OA 
HETATM   22  H3* UNL     1     -13.078  11.057  68.606  1.00  0.00     0.000 HD 
HETATM   23  O2* UNL     1     -12.238  13.980  68.814  1.00  0.00    -0.337 OA 
BRANCH  17  24
HETATM   24  C5* UNL     1     -10.278  11.564  65.420  1.00  0.00    -0.264 C  
HETATM   25  O5* UNL     1     -11.593  11.856  64.950  1.00  0.00    -0.304 OA 
HETATM   26  H5* UNL     1     -11.601  11.886  64.000  1.00  0.00     0.000 HD 
ENDBRANCH  17  24
ENDBRANCH  14  15
ENDBRANCH   2   3
TORSDOF 3
ENDMDL
MODEL       53
REMARK 921   NORMALIZED FREE ENERGY PREDICTED BY IDOCK:   -5.34 KCAL/MOL
REMARK 922        TOTAL FREE ENERGY PREDICTED BY IDOCK:   -6.51 KCAL/MOL
REMARK 923 INTER-LIGAND FREE ENERGY PREDICTED BY IDOCK:   -7.01 KCAL/MOL
REMARK 924 INTRA-LIGAND FREE ENERGY PREDICTED BY IDOCK:    0.50 KCAL/MOL
REMARK 927      BINDING AFFINITY PREDICTED BY RF-SCORE:    0.00 PKD
ROOT
HETATM    1  C   UNL     1     -10.172  19.207  67.766  1.00  0.00    -0.403 C  
HETATM    2  O   UNL     1      -9.124  18.428  67.199  1.00  0.00    -0.260 OA 
ENDROOT
BRANCH   2   3
HETATM    3  C   UNL     1      -9.605  17.271  66.621  1.00  0.00    -0.276 A  
HETATM    4  N   UNL     1     -10.381  17.354  65.509  1.00  0.00    -0.644 NA 
HETATM    5  C   UNL     1     -10.793  16.224  64.925  1.00  0.00    -0.296 A  
HETATM    6  N   UNL     1     -11.480  16.359  63.736  1.00  0.00    -1.470 NA 
HETATM    7  N   UNL     1     -10.507  14.977  65.311  1.00  0.00    -0.376 NA 
HETATM    8  H2  UNL     1     -10.922  16.902  63.077  1.00  0.00     0.000 HD 
HETATM    9  C   UNL     1      -9.706  14.933  66.387  1.00  0.00    -0.285 A  
HETATM   10  H1  UNL     1     -11.794  15.497  63.290  1.00  0.00     0.000 HD 
HETATM   11  C   UNL     1      -9.217  16.018  67.098  1.00  0.00    -0.207 A  
HETATM   12  N   UNL     1      -8.407  15.595  68.128  1.00  0.00    -0.144 NA 
HETATM   13  C   UNL     1      -8.376  14.285  68.018  1.00  0.00    -0.157 A  
HETATM   14  N   UNL     1      -9.138  13.835  66.967  1.00  0.00    -0.238 NA 
BRANCH  14  15
HETATM   15  C1* UNL     1      -9.141  12.465  66.502  1.00  0.00    -0.181 C  
HETATM   16  O4* UNL     1     -10.089  12.373  65.416  1.00  0.00    -0.271 OA 
HETATM   17  C4* UNL     1     -11.268  11.672  65.879  1.00  0.00    -0.238 C  
HETATM   18  H2* UNL     1      -9.290  10.851  69.418  1.00  0.00     0.000 HD 
HETATM   19  C3* UNL     1     -10.965  11.086  67.263  1.00  0.00    -0.297 C  
HETATM   20  C2* UNL     1      -9.475  11.333  67.470  1.00  0.00    -0.169 C  
HETATM   21  O3* UNL     1     -11.237   9.679  67.315  1.00  0.00    -0.301 OA 
HETATM   22  H3* UNL     1     -11.049   9.317  68.172  1.00  0.00     0.000 HD 
HETATM   23  O2* UNL     1      -9.082  11.556  68.816  1.00  0.00    -0.152 OA 
BRANCH  17  24
HETATM   24  C5* UNL     1     -12.465  12.636  65.885  1.00  0.00     0.011 C  
HETATM   25  O5* UNL     1     -12.781  13.033  64.551  1.00  0.00    -0.656 OA 
HETATM   26  H5* UNL     1     -13.521  13.628  64.554  1.00  0.00     0.000 HD 
ENDBRANCH  17  24
ENDBRANCH  14  15
ENDBRANCH   2   3
TORSDOF 3
ENDMDL
MODEL       54
REMARK 921   NORMALIZED FREE ENERGY PREDICTED BY IDOCK:   -5.33 KCAL/MOL
REMARK 922        TOTAL FREE ENERGY PREDICTED BY IDOCK:   -6.49 KCAL/MOL
REMARK 923 INTER-LIGAND FREE ENERGY PREDICTED BY IDOCK:   -6.71 KCAL/MOL
REMARK 924 INTRA-LIGAND FREE ENERGY PREDICTED BY IDOCK:    0.22 KCAL/MOL
REMARK 927      BINDING AFFINITY PREDICTED BY RF-SCORE:    0.00 PKD
ROOT
HETATM    1  C   UNL     1     -10.469   7.409  69.440  1.00  0.00    -0.217 C  
HETATM    2  O   UNL     1     -10.261   8.143  70.642  1.00  0.00    -0.194 OA 
ENDROOT
BRANCH   2   3
HETATM    3  C   UNL     1     -11.311   9.001  70.904  1.00  0.00    -0.293 A  
HETATM    4  N   UNL     1     -12.254   8.640  71.813  1.00  0.00    -0.321 NA 
HETATM    5  C   UNL     1     -13.234   9.503  72.101  1.00  0.00    -0.451 A  
HETATM    6  N   UNL     1     -14.101   9.138  73.112  1.00  0.00    -1.155 NA 
HETATM    7  N   UNL     1     -13.391  10.729  71.594  1.00  0.00    -0.343 NA 
HETATM    8  H2  UNL     1     -13.571   8.926  73.957  1.00  0.00     0.000 HD 
HETATM    9  C   UNL     1     -12.419  11.067  70.733  1.00  0.00    -0.396 A  
HETATM   10  H1  UNL     1     -14.848   9.796  73.332  1.00  0.00     0.000 HD 
HETATM   11  C   UNL     1     -11.357  10.272  70.333  1.00  0.00    -0.332 A  
HETATM   12  N   UNL     1     -10.544  10.957  69.456  1.00  0.00    -0.211 NA 
HETATM   13  C   UNL     1     -11.083  12.153  69.359  1.00  0.00    -0.117 A  
HETATM   14  N   UNL     1     -12.216  12.274  70.126  1.00  0.00    -0.267 NA 
BRANCH  14  15
HETATM   15  C1* UNL     1     -12.905  13.525  70.353  1.00  0.00     0.004 C  
HETATM   16  O4* UNL     1     -12.475  14.455  69.335  1.00  0.00    -0.248 OA 
HETATM   17  C4* UNL     1     -11.590  15.432  69.933  1.00  0.00    -0.323 C  
HETATM   18  H2* UNL     1     -12.483  13.845  73.647  1.00  0.00     0.000 HD 
HETATM   19  C3* UNL     1     -11.640  15.255  71.455  1.00  0.00    -0.396 C  
HETATM   20  C2* UNL     1     -12.757  14.246  71.691  1.00  0.00    -0.352 C  
HETATM   21  O3* UNL     1     -11.948  16.486  72.122  1.00  0.00    -0.626 OA 
HETATM   22  H3* UNL     1     -11.978  16.376  73.065  1.00  0.00     0.000 HD 
HETATM   23  O2* UNL     1     -12.575  13.397  72.815  1.00  0.00     0.010 OA 
BRANCH  17  24
HETATM   24  C5* UNL     1     -10.176  15.262  69.355  1.00  0.00    -0.256 C  
HETATM   25  O5* UNL     1     -10.164  15.625  67.975  1.00  0.00    -0.223 OA 
HETATM   26  H5* UNL     1      -9.290  15.520  67.618  1.00  0.00     0.000 HD 
ENDBRANCH  17  24
ENDBRANCH  14  15
ENDBRANCH   2   3
TORSDOF 3
ENDMDL
MODEL       55
REMARK 921   NORMALIZED FREE ENERGY PREDICTED BY IDOCK:   -5.32 KCAL/MOL
REMARK 922        TOTAL FREE ENERGY PREDICTED BY IDOCK:   -6.48 KCAL/MOL
REMARK 923 INTER-LIGAND FREE ENERGY PREDICTED BY IDOCK:   -6.54 KCAL/MOL
REMARK 924 INTRA-LIGAND FREE ENERGY PREDICTED BY IDOCK:    0.05 KCAL/MOL
REMARK 927      BINDING AFFINITY PREDICTED BY RF-SCORE:    0.00 PKD
ROOT
HETATM    1  C   UNL     1     -10.070  13.609  68.650  1.00  0.00    -0.180 C  
HETATM    2  O   UNL     1     -11.431  13.206  68.537  1.00  0.00    -0.260 OA 
ENDROOT
BRANCH   2   3
HETATM    3  C   UNL     1     -11.839  12.475  69.635  1.00  0.00    -0.314 A  
HETATM    4  N   UNL     1     -12.617  13.067  70.578  1.00  0.00    -0.204 NA 
HETATM    5  C   UNL     1     -13.054  12.333  71.607  1.00  0.00    -0.306 A  
HETATM    6  N   UNL     1     -13.934  12.948  72.475  1.00  0.00    -0.668 NA 
HETATM    7  N   UNL     1     -12.819  11.035  71.816  1.00  0.00    -0.429 NA 
HETATM    8  H2  UNL     1     -14.730  13.315  71.952  1.00  0.00     0.000 HD 
HETATM    9  C   UNL     1     -12.082  10.473  70.845  1.00  0.00    -0.383 A  
HETATM   10  H1  UNL     1     -14.267  12.388  73.259  1.00  0.00     0.000 HD 
HETATM   11  C   UNL     1     -11.554  11.113  69.734  1.00  0.00    -0.334 A  
HETATM   12  N   UNL     1     -10.872  10.217  68.940  1.00  0.00    -0.217 NA 
HETATM   13  C   UNL     1     -11.019   9.055  69.537  1.00  0.00    -0.106 A  
HETATM   14  N   UNL     1     -11.758   9.156  70.691  1.00  0.00    -0.249 NA 
BRANCH  14  15
HETATM   15  C1* UNL     1     -12.227   8.016  71.449  1.00  0.00    -0.309 C  
HETATM   16  O4* UNL     1     -11.801   8.194  72.818  1.00  0.00    -0.389 OA 
HETATM   17  C4* UNL     1     -10.717   7.275  73.097  1.00  0.00    -0.365 C  
HETATM   18  H2* UNL     1     -11.349   5.537  69.397  1.00  0.00     0.000 HD 
HETATM   19  C3* UNL     1     -10.598   6.303  71.917  1.00  0.00    -0.219 C  
HETATM   20  C2* UNL     1     -11.809   6.606  71.043  1.00  0.00    -0.372 C  
HETATM   21  O3* UNL     1     -10.640   4.937  72.350  1.00  0.00    -0.209 OA 
HETATM   22  H3* UNL     1     -10.566   4.335  71.619  1.00  0.00     0.000 HD 
HETATM   23  O2* UNL     1     -11.609   6.415  69.650  1.00  0.00    -0.417 OA 
BRANCH  17  24
HETATM   24  C5* UNL     1      -9.427   8.071  73.351  1.00  0.00    -0.237 C  
HETATM   25  O5* UNL     1      -9.094   8.846  72.200  1.00  0.00    -0.375 OA 
HETATM   26  H5* UNL     1      -8.297   9.338  72.358  1.00  0.00     0.000 HD 
ENDBRANCH  17  24
ENDBRANCH  14  15
ENDBRANCH   2   3
TORSDOF 3
ENDMDL
MODEL       56
REMARK 921   NORMALIZED FREE ENERGY PREDICTED BY IDOCK:   -5.29 KCAL/MOL
REMARK 922        TOTAL FREE ENERGY PREDICTED BY IDOCK:   -6.44 KCAL/MOL
REMARK 923 INTER-LIGAND FREE ENERGY PREDICTED BY IDOCK:   -6.34 KCAL/MOL
REMARK 924 INTRA-LIGAND FREE ENERGY PREDICTED BY IDOCK:   -0.10 KCAL/MOL
REMARK 927      BINDING AFFINITY PREDICTED BY RF-SCORE:    0.00 PKD
ROOT
HETATM    1  C   UNL     1     -10.636  14.268  65.521  1.00  0.00    -0.340 C  
HETATM    2  O   UNL     1     -11.643  13.283  65.318  1.00  0.00    -0.299 OA 
ENDROOT
BRANCH   2   3
HETATM    3  C   UNL     1     -11.174  12.012  65.587  1.00  0.00    -0.327 A  
HETATM    4  N   UNL     1     -10.519  11.325  64.615  1.00  0.00    -0.308 NA 
HETATM    5  C   UNL     1     -10.018  10.119  64.904  1.00  0.00    -0.288 A  
HETATM    6  N   UNL     1      -9.263   9.513  63.921  1.00  0.00    -0.425 NA 
HETATM    7  N   UNL     1     -10.075   9.495  66.084  1.00  0.00    -0.281 NA 
HETATM    8  H2  UNL     1      -8.509  10.137  63.633  1.00  0.00     0.000 HD 
HETATM    9  C   UNL     1     -10.692  10.220  67.030  1.00  0.00    -0.216 A  
HETATM   10  H1  UNL     1      -8.881   8.593  64.141  1.00  0.00     0.000 HD 
HETATM   11  C   UNL     1     -11.268  11.470  66.868  1.00  0.00    -0.298 A  
HETATM   12  N   UNL     1     -11.790  11.919  68.062  1.00  0.00    -0.526 NA 
HETATM   13  C   UNL     1     -11.501  10.977  68.933  1.00  0.00    -0.296 A  
HETATM   14  N   UNL     1     -10.823   9.930  68.358  1.00  0.00    -0.234 NA 
BRANCH  14  15
HETATM   15  C1* UNL     1     -10.224   8.849  69.109  1.00  0.00    -0.206 C  
HETATM   16  O4* UNL     1     -11.274   8.201  69.860  1.00  0.00    -0.170 OA 
HETATM   17  C4* UNL     1     -11.140   8.554  71.258  1.00  0.00    -0.262 C  
HETATM   18  H2* UNL     1      -7.552  10.407  70.360  1.00  0.00     0.000 HD 
HETATM   19  C3* UNL     1      -9.801   9.278  71.443  1.00  0.00    -0.226 C  
HETATM   20  C2* UNL     1      -9.098   9.140  70.098  1.00  0.00    -0.206 C  
HETATM   21  O3* UNL     1      -9.008   8.672  72.471  1.00  0.00    -0.337 OA 
HETATM   22  H3* UNL     1      -8.179   9.122  72.586  1.00  0.00     0.000 HD 
HETATM   23  O2* UNL     1      -8.253  10.226  69.745  1.00  0.00    -0.164 OA 
BRANCH  17  24
HETATM   24  C5* UNL     1     -12.346   9.404  71.688  1.00  0.00    -0.385 C  
HETATM   25  O5* UNL     1     -13.494   9.052  70.916  1.00  0.00    -0.547 OA 
HETATM   26  H5* UNL     1     -14.239   9.577  71.182  1.00  0.00     0.000 HD 
ENDBRANCH  17  24
ENDBRANCH  14  15
ENDBRANCH   2   3
TORSDOF 3
ENDMDL
MODEL       57
REMARK 921   NORMALIZED FREE ENERGY PREDICTED BY IDOCK:   -5.27 KCAL/MOL
REMARK 922        TOTAL FREE ENERGY PREDICTED BY IDOCK:   -6.42 KCAL/MOL
REMARK 923 INTER-LIGAND FREE ENERGY PREDICTED BY IDOCK:   -6.28 KCAL/MOL
REMARK 924 INTRA-LIGAND FREE ENERGY PREDICTED BY IDOCK:   -0.14 KCAL/MOL
REMARK 927      BINDING AFFINITY PREDICTED BY RF-SCORE:    0.00 PKD
ROOT
HETATM    1  C   UNL     1     -12.617  11.979  63.783  1.00  0.00    -0.454 C  
HETATM    2  O   UNL     1     -11.754  12.045  64.913  1.00  0.00    -0.324 OA 
ENDROOT
BRANCH   2   3
HETATM    3  C   UNL     1     -11.139  13.277  65.013  1.00  0.00    -0.309 A  
HETATM    4  N   UNL     1     -11.683  14.347  64.377  1.00  0.00    -0.396 NA 
HETATM    5  C   UNL     1     -11.112  15.546  64.528  1.00  0.00    -0.274 A  
HETATM    6  N   UNL     1     -11.767  16.619  63.958  1.00  0.00    -1.371 NA 
HETATM    7  N   UNL     1     -10.037  15.828  65.271  1.00  0.00    -0.434 NA 
HETATM    8  H2  UNL     1     -12.729  16.652  64.298  1.00  0.00     0.000 HD 
HETATM    9  C   UNL     1      -9.551  14.757  65.916  1.00  0.00    -0.285 A  
HETATM   10  H1  UNL     1     -11.331  17.534  64.074  1.00  0.00     0.000 HD 
HETATM   11  C   UNL     1     -10.031  13.460  65.841  1.00  0.00    -0.277 A  
HETATM   12  N   UNL     1      -9.299  12.625  66.657  1.00  0.00    -0.235 NA 
HETATM   13  C   UNL     1      -8.420  13.410  67.241  1.00  0.00    -0.200 A  
HETATM   14  N   UNL     1      -8.541  14.716  66.834  1.00  0.00    -0.224 NA 
BRANCH  14  15
HETATM   15  C1* UNL     1      -7.831  15.819  67.444  1.00  0.00    -0.175 C  
HETATM   16  O4* UNL     1      -6.439  15.701  67.078  1.00  0.00    -0.295 OA 
HETATM   17  C4* UNL     1      -5.684  15.257  68.231  1.00  0.00    -0.120 C  
HETATM   18  H2* UNL     1      -9.093  15.702  70.530  1.00  0.00     0.000 HD 
HETATM   19  C3* UNL     1      -6.603  15.314  69.456  1.00  0.00    -0.164 C  
HETATM   20  C2* UNL     1      -7.868  16.005  68.959  1.00  0.00    -0.222 C  
HETATM   21  O3* UNL     1      -6.020  16.075  70.521  1.00  0.00    -0.078 OA 
HETATM   22  H3* UNL     1      -6.590  16.110  71.281  1.00  0.00     0.000 HD 
HETATM   23  O2* UNL     1      -9.070  15.586  69.587  1.00  0.00    -0.278 OA 
BRANCH  17  24
HETATM   24  C5* UNL     1      -5.127  13.849  67.964  1.00  0.00    -0.097 C  
HETATM   25  O5* UNL     1      -5.262  13.039  69.131  1.00  0.00    -0.069 OA 
HETATM   26  H5* UNL     1      -4.918  12.169  68.966  1.00  0.00     0.000 HD 
ENDBRANCH  17  24
ENDBRANCH  14  15
ENDBRANCH   2   3
TORSDOF 3
ENDMDL
MODEL       58
REMARK 921   NORMALIZED FREE ENERGY PREDICTED BY IDOCK:   -5.18 KCAL/MOL
REMARK 922        TOTAL FREE ENERGY PREDICTED BY IDOCK:   -6.32 KCAL/MOL
REMARK 923 INTER-LIGAND FREE ENERGY PREDICTED BY IDOCK:   -6.24 KCAL/MOL
REMARK 924 INTRA-LIGAND FREE ENERGY PREDICTED BY IDOCK:   -0.08 KCAL/MOL
REMARK 927      BINDING AFFINITY PREDICTED BY RF-SCORE:    0.00 PKD
ROOT
HETATM    1  C   UNL     1     -10.487  11.389  64.642  1.00  0.00    -0.315 C  
HETATM    2  O   UNL     1      -9.773  11.225  65.863  1.00  0.00    -0.207 OA 
ENDROOT
BRANCH   2   3
HETATM    3  C   UNL     1      -9.901   9.943  66.359  1.00  0.00    -0.227 A  
HETATM    4  N   UNL     1      -9.456   8.894  65.619  1.00  0.00    -0.206 NA 
HETATM    5  C   UNL     1      -9.533   7.663  66.134  1.00  0.00    -0.049 A  
HETATM    6  N   UNL     1      -8.964   6.647  65.393  1.00  0.00    -0.365 NA 
HETATM    7  N   UNL     1      -9.997   7.333  67.343  1.00  0.00    -0.158 NA 
HETATM    8  H2  UNL     1      -7.990   6.875  65.191  1.00  0.00     0.000 HD 
HETATM    9  C   UNL     1     -10.389   8.396  68.062  1.00  0.00    -0.215 A  
HETATM   10  H1  UNL     1      -9.022   5.708  65.787  1.00  0.00     0.000 HD 
HETATM   11  C   UNL     1     -10.379   9.720  67.651  1.00  0.00    -0.230 A  
HETATM   12  N   UNL     1     -10.830  10.542  68.660  1.00  0.00    -0.220 NA 
HETATM   13  C   UNL     1     -11.069   9.736  69.671  1.00  0.00    -0.217 A  
HETATM   14  N   UNL     1     -10.804   8.424  69.362  1.00  0.00    -0.145 NA 
BRANCH  14  15
HETATM   15  C1* UNL     1     -10.803   7.352  70.333  1.00  0.00    -0.243 C  
HETATM   16  O4* UNL     1     -12.177   7.070  70.677  1.00  0.00    -0.330 OA 
HETATM   17  C4* UNL     1     -12.443   7.576  72.008  1.00  0.00    -0.257 C  
HETATM   18  H2* UNL     1      -8.414   8.427  72.399  1.00  0.00     0.000 HD 
HETATM   19  C3* UNL     1     -11.109   7.998  72.635  1.00  0.00    -0.387 C  
HETATM   20  C2* UNL     1     -10.049   7.518  71.651  1.00  0.00    -0.180 C  
HETATM   21  O3* UNL     1     -10.904   7.380  73.911  1.00  0.00    -0.540 OA 
HETATM   22  H3* UNL     1     -10.078   7.642  74.300  1.00  0.00     0.000 HD 
HETATM   23  O2* UNL     1      -8.883   8.324  71.579  1.00  0.00    -0.139 OA 
BRANCH  17  24
HETATM   24  C5* UNL     1     -13.457   8.728  71.922  1.00  0.00    -0.404 C  
HETATM   25  O5* UNL     1     -13.914   9.077  73.228  1.00  0.00    -1.205 OA 
HETATM   26  H5* UNL     1     -14.541   9.789  73.175  1.00  0.00     0.000 HD 
ENDBRANCH  17  24
ENDBRANCH  14  15
ENDBRANCH   2   3
TORSDOF 3
ENDMDL
MODEL       59
REMARK 921   NORMALIZED FREE ENERGY PREDICTED BY IDOCK:   -5.17 KCAL/MOL
REMARK 922        TOTAL FREE ENERGY PREDICTED BY IDOCK:   -6.30 KCAL/MOL
REMARK 923 INTER-LIGAND FREE ENERGY PREDICTED BY IDOCK:   -7.44 KCAL/MOL
REMARK 924 INTRA-LIGAND FREE ENERGY PREDICTED BY IDOCK:    1.14 KCAL/MOL
REMARK 927      BINDING AFFINITY PREDICTED BY RF-SCORE:    0.00 PKD
ROOT
HETATM    1  C   UNL     1     -11.120  16.923  64.671  1.00  0.00     0.210 C  
HETATM    2  O   UNL     1     -11.978  16.095  63.894  1.00  0.00    -0.947 OA 
ENDROOT
BRANCH   2   3
HETATM    3  C   UNL     1     -11.892  14.772  64.276  1.00  0.00    -0.319 A  
HETATM    4  N   UNL     1     -12.563  13.828  63.566  1.00  0.00    -0.808 NA 
HETATM    5  C   UNL     1     -12.426  12.543  63.910  1.00  0.00    -0.445 A  
HETATM    6  N   UNL     1     -13.034  11.616  63.088  1.00  0.00    -0.837 NA 
HETATM    7  N   UNL     1     -11.666  12.060  64.896  1.00  0.00    -0.298 NA 
HETATM    8  H2  UNL     1     -12.717  11.749  62.127  1.00  0.00     0.000 HD 
HETATM    9  C   UNL     1     -10.986  13.015  65.550  1.00  0.00    -0.274 A  
HETATM   10  H1  UNL     1     -12.929  10.636  63.350  1.00  0.00     0.000 HD 
HETATM   11  C   UNL     1     -11.043  14.379  65.311  1.00  0.00    -0.342 A  
HETATM   12  N   UNL     1     -10.193  15.053  66.160  1.00  0.00    -0.281 NA 
HETATM   13  C   UNL     1      -9.607  14.113  66.869  1.00  0.00    -0.270 A  
HETATM   14  N   UNL     1     -10.045  12.857  66.526  1.00  0.00    -0.255 NA 
BRANCH  14  15
HETATM   15  C1* UNL     1      -9.444  11.634  67.012  1.00  0.00    -0.182 C  
HETATM   16  O4* UNL     1      -8.364  11.290  66.115  1.00  0.00    -0.167 OA 
HETATM   17  C4* UNL     1      -8.767  10.159  65.306  1.00  0.00    -0.165 C  
HETATM   18  H2* UNL     1     -12.183   9.828  67.615  1.00  0.00     0.000 HD 
HETATM   19  C3* UNL     1     -10.081   9.608  65.872  1.00  0.00    -0.234 C  
HETATM   20  C2* UNL     1     -10.295  10.377  67.171  1.00  0.00    -0.238 C  
HETATM   21  O3* UNL     1      -9.993   8.204  66.147  1.00  0.00    -0.463 OA 
HETATM   22  H3* UNL     1     -10.808   7.864  66.497  1.00  0.00     0.000 HD 
HETATM   23  O2* UNL     1     -11.653  10.610  67.516  1.00  0.00    -0.482 OA 
BRANCH  17  24
HETATM   24  C5* UNL     1      -8.883  10.598  63.838  1.00  0.00    -0.163 C  
HETATM   25  O5* UNL     1     -10.091  10.093  63.269  1.00  0.00    -0.482 OA 
HETATM   26  H5* UNL     1     -10.162  10.364  62.362  1.00  0.00     0.000 HD 
ENDBRANCH  17  24
ENDBRANCH  14  15
ENDBRANCH   2   3
TORSDOF 3
ENDMDL
MODEL       60
REMARK 921   NORMALIZED FREE ENERGY PREDICTED BY IDOCK:   -5.15 KCAL/MOL
REMARK 922        TOTAL FREE ENERGY PREDICTED BY IDOCK:   -6.28 KCAL/MOL
REMARK 923 INTER-LIGAND FREE ENERGY PREDICTED BY IDOCK:   -6.21 KCAL/MOL
REMARK 924 INTRA-LIGAND FREE ENERGY PREDICTED BY IDOCK:   -0.07 KCAL/MOL
REMARK 927      BINDING AFFINITY PREDICTED BY RF-SCORE:    0.00 PKD
ROOT
HETATM    1  C   UNL     1     -11.238  15.874  67.962  1.00  0.00    -0.319 C  
HETATM    2  O   UNL     1     -12.139  14.793  68.180  1.00  0.00    -0.259 OA 
ENDROOT
BRANCH   2   3
HETATM    3  C   UNL     1     -11.971  13.793  67.243  1.00  0.00    -0.401 A  
HETATM    4  N   UNL     1     -12.226  14.057  65.935  1.00  0.00    -0.432 NA 
HETATM    5  C   UNL     1     -12.005  13.099  65.029  1.00  0.00    -0.383 A  
HETATM    6  N   UNL     1     -12.168  13.451  63.705  1.00  0.00    -0.780 NA 
HETATM    7  N   UNL     1     -11.530  11.873  65.266  1.00  0.00    -0.294 NA 
HETATM    8  H2  UNL     1     -11.589  14.264  63.492  1.00  0.00     0.000 HD 
HETATM    9  C   UNL     1     -11.250  11.661  66.562  1.00  0.00    -0.294 A  
HETATM   10  H1  UNL     1     -11.999  12.720  63.014  1.00  0.00     0.000 HD 
HETATM   11  C   UNL     1     -11.442  12.554  67.604  1.00  0.00    -0.334 A  
HETATM   12  N   UNL     1     -11.021  12.004  68.795  1.00  0.00    -0.228 NA 
HETATM   13  C   UNL     1     -10.549  10.819  68.472  1.00  0.00    -0.195 A  
HETATM   14  N   UNL     1     -10.654  10.570  67.125  1.00  0.00    -0.253 NA 
BRANCH  14  15
HETATM   15  C1* UNL     1     -10.053   9.430  66.468  1.00  0.00    -0.262 C  
HETATM   16  O4* UNL     1     -10.778   8.251  66.882  1.00  0.00    -0.299 OA 
HETATM   17  C4* UNL     1      -9.958   7.494  67.805  1.00  0.00    -0.171 C  
HETATM   18  H2* UNL     1      -6.823  10.071  67.006  1.00  0.00     0.000 HD 
HETATM   19  C3* UNL     1      -8.550   8.100  67.803  1.00  0.00    -0.131 C  
HETATM   20  C2* UNL     1      -8.571   9.124  66.674  1.00  0.00    -0.127 C  
HETATM   21  O3* UNL     1      -7.548   7.109  67.541  1.00  0.00    -0.104 OA 
HETATM   22  H3* UNL     1      -6.675   7.485  67.540  1.00  0.00     0.000 HD 
HETATM   23  O2* UNL     1      -7.745  10.261  66.877  1.00  0.00    -0.102 OA 
BRANCH  17  24
HETATM   24  C5* UNL     1     -10.614   7.505  69.196  1.00  0.00    -0.197 C  
HETATM   25  O5* UNL     1     -11.690   6.569  69.237  1.00  0.00    -0.644 OA 
HETATM   26  H5* UNL     1     -12.095   6.575  70.096  1.00  0.00     0.000 HD 
ENDBRANCH  17  24
ENDBRANCH  14  15
ENDBRANCH   2   3
TORSDOF 3
ENDMDL
MODEL       61
REMARK 921   NORMALIZED FREE ENERGY PREDICTED BY IDOCK:   -5.13 KCAL/MOL
REMARK 922        TOTAL FREE ENERGY PREDICTED BY IDOCK:   -6.25 KCAL/MOL
REMARK 923 INTER-LIGAND FREE ENERGY PREDICTED BY IDOCK:   -6.39 KCAL/MOL
REMARK 924 INTRA-LIGAND FREE ENERGY PREDICTED BY IDOCK:    0.14 KCAL/MOL
REMARK 927      BINDING AFFINITY PREDICTED BY RF-SCORE:    0.00 PKD
ROOT
HETATM    1  C   UNL     1      -8.991  10.248  64.387  1.00  0.00    -0.227 C  
HETATM    2  O   UNL     1     -10.213  10.304  65.117  1.00  0.00    -0.314 OA 
ENDROOT
BRANCH   2   3
HETATM    3  C   UNL     1     -10.106   9.671  66.339  1.00  0.00    -0.247 A  
HETATM    4  N   UNL     1      -9.198   8.673  66.496  1.00  0.00    -0.173 NA 
HETATM    5  C   UNL     1      -9.063   8.107  67.700  1.00  0.00    -0.134 A  
HETATM    6  N   UNL     1      -8.050   7.179  67.836  1.00  0.00    -0.118 NA 
HETATM    7  N   UNL     1      -9.729   8.432  68.811  1.00  0.00    -0.161 NA 
HETATM    8  H2  UNL     1      -7.163   7.596  67.551  1.00  0.00     0.000 HD 
HETATM    9  C   UNL     1     -10.586   9.448  68.630  1.00  0.00    -0.200 A  
HETATM   10  H1  UNL     1      -7.947   6.748  68.754  1.00  0.00     0.000 HD 
HETATM   11  C   UNL     1     -10.837  10.115  67.441  1.00  0.00    -0.261 A  
HETATM   12  N   UNL     1     -11.761  11.119  67.636  1.00  0.00    -0.598 NA 
HETATM   13  C   UNL     1     -12.031  11.084  68.923  1.00  0.00    -0.262 A  
HETATM   14  N   UNL     1     -11.333  10.095  69.572  1.00  0.00    -0.229 NA 
BRANCH  14  15
HETATM   15  C1* UNL     1     -11.297   9.947  71.011  1.00  0.00    -0.386 C  
HETATM   16  O4* UNL     1     -10.992   8.566  71.302  1.00  0.00    -0.235 OA 
HETATM   17  C4* UNL     1     -12.190   7.911  71.786  1.00  0.00    -0.310 C  
HETATM   18  H2* UNL     1     -14.077  11.591  71.846  1.00  0.00     0.000 HD 
HETATM   19  C3* UNL     1     -13.256   8.985  72.033  1.00  0.00    -0.429 C  
HETATM   20  C2* UNL     1     -12.523  10.308  71.845  1.00  0.00    -0.243 C  
HETATM   21  O3* UNL     1     -13.788   8.908  73.361  1.00  0.00    -1.192 OA 
HETATM   22  H3* UNL     1     -14.449   9.573  73.514  1.00  0.00     0.000 HD 
HETATM   23  O2* UNL     1     -13.314  11.367  71.326  1.00  0.00    -0.155 OA 
BRANCH  17  24
HETATM   24  C5* UNL     1     -12.635   6.847  70.770  1.00  0.00    -0.122 C  
HETATM   25  O5* UNL     1     -11.508   6.367  70.038  1.00  0.00    -0.401 OA 
HETATM   26  H5* UNL     1     -11.783   5.709  69.411  1.00  0.00     0.000 HD 
ENDBRANCH  17  24
ENDBRANCH  14  15
ENDBRANCH   2   3
TORSDOF 3
ENDMDL
MODEL       62
REMARK 921   NORMALIZED FREE ENERGY PREDICTED BY IDOCK:   -5.10 KCAL/MOL
REMARK 922        TOTAL FREE ENERGY PREDICTED BY IDOCK:   -6.22 KCAL/MOL
REMARK 923 INTER-LIGAND FREE ENERGY PREDICTED BY IDOCK:   -6.49 KCAL/MOL
REMARK 924 INTRA-LIGAND FREE ENERGY PREDICTED BY IDOCK:    0.27 KCAL/MOL
REMARK 927      BINDING AFFINITY PREDICTED BY RF-SCORE:    0.00 PKD
ROOT
HETATM    1  C   UNL     1      -9.213   8.172  66.558  1.00  0.00    -0.188 C  
HETATM    2  O   UNL     1     -10.401   8.715  67.123  1.00  0.00    -0.258 OA 
ENDROOT
BRANCH   2   3
HETATM    3  C   UNL     1     -10.453  10.087  66.980  1.00  0.00    -0.238 A  
HETATM    4  N   UNL     1     -10.099  10.647  65.794  1.00  0.00    -0.256 NA 
HETATM    5  C   UNL     1     -10.208  11.972  65.648  1.00  0.00    -0.252 A  
HETATM    6  N   UNL     1      -9.947  12.478  64.391  1.00  0.00    -0.545 NA 
HETATM    7  N   UNL     1     -10.657  12.839  66.560  1.00  0.00    -0.252 NA 
HETATM    8  H2  UNL     1     -10.535  12.008  63.703  1.00  0.00     0.000 HD 
HETATM    9  C   UNL     1     -11.036  12.247  67.703  1.00  0.00    -0.268 A  
HETATM   10  H1  UNL     1     -10.030  13.488  64.280  1.00  0.00     0.000 HD 
HETATM   11  C   UNL     1     -10.965  10.894  67.996  1.00  0.00    -0.265 A  
HETATM   12  N   UNL     1     -11.465  10.646  69.255  1.00  0.00    -0.270 NA 
HETATM   13  C   UNL     1     -11.865  11.818  69.698  1.00  0.00    -0.339 A  
HETATM   14  N   UNL     1     -11.638  12.820  68.786  1.00  0.00    -0.290 NA 
BRANCH  14  15
HETATM   15  C1* UNL     1     -12.140  14.169  68.931  1.00  0.00    -0.304 C  
HETATM   16  O4* UNL     1     -11.171  15.064  68.342  1.00  0.00    -0.267 OA 
HETATM   17  C4* UNL     1     -10.473  15.765  69.400  1.00  0.00    -0.257 C  
HETATM   18  H2* UNL     1     -13.105  14.103  72.124  1.00  0.00     0.000 HD 
HETATM   19  C3* UNL     1     -11.191  15.473  70.723  1.00  0.00    -0.354 C  
HETATM   20  C2* UNL     1     -12.455  14.721  70.320  1.00  0.00    -0.340 C  
HETATM   21  O3* UNL     1     -11.543  16.679  71.412  1.00  0.00    -0.604 OA 
HETATM   22  H3* UNL     1     -11.987  16.498  72.232  1.00  0.00     0.000 HD 
HETATM   23  O2* UNL     1     -12.909  13.759  71.260  1.00  0.00    -0.337 OA 
BRANCH  17  24
HETATM   24  C5* UNL     1      -8.998  15.335  69.410  1.00  0.00    -0.225 C  
HETATM   25  O5* UNL     1      -8.885  13.963  69.034  1.00  0.00    -0.377 OA 
HETATM   26  H5* UNL     1      -7.973  13.698  69.040  1.00  0.00     0.000 HD 
ENDBRANCH  17  24
ENDBRANCH  14  15
ENDBRANCH   2   3
TORSDOF 3
ENDMDL
MODEL       63
REMARK 921   NORMALIZED FREE ENERGY PREDICTED BY IDOCK:   -5.09 KCAL/MOL
REMARK 922        TOTAL FREE ENERGY PREDICTED BY IDOCK:   -6.21 KCAL/MOL
REMARK 923 INTER-LIGAND FREE ENERGY PREDICTED BY IDOCK:   -6.09 KCAL/MOL
REMARK 924 INTRA-LIGAND FREE ENERGY PREDICTED BY IDOCK:   -0.12 KCAL/MOL
REMARK 927      BINDING AFFINITY PREDICTED BY RF-SCORE:    0.00 PKD
ROOT
HETATM    1  C   UNL     1     -14.160   8.862  71.960  1.00  0.00    -0.411 C  
HETATM    2  O   UNL     1     -13.000   9.637  72.243  1.00  0.00    -0.395 OA 
ENDROOT
BRANCH   2   3
HETATM    3  C   UNL     1     -12.033   9.480  71.270  1.00  0.00    -0.365 A  
HETATM    4  N   UNL     1     -11.472   8.258  71.080  1.00  0.00    -0.273 NA 
HETATM    5  C   UNL     1     -10.579   8.104  70.097  1.00  0.00    -0.237 A  
HETATM    6  N   UNL     1     -10.125   6.821  69.870  1.00  0.00    -0.178 NA 
HETATM    7  N   UNL     1     -10.171   9.043  69.238  1.00  0.00    -0.199 NA 
HETATM    8  H2  UNL     1     -10.919   6.199  69.712  1.00  0.00     0.000 HD 
HETATM    9  C   UNL     1     -10.775  10.226  69.429  1.00  0.00    -0.241 A  
HETATM   10  H1  UNL     1      -9.444   6.704  69.120  1.00  0.00     0.000 HD 
HETATM   11  C   UNL     1     -11.704  10.529  70.412  1.00  0.00    -0.344 A  
HETATM   12  N   UNL     1     -12.127  11.835  70.290  1.00  0.00    -0.351 NA 
HETATM   13  C   UNL     1     -11.497  12.297  69.232  1.00  0.00    -0.292 A  
HETATM   14  N   UNL     1     -10.674  11.354  68.666  1.00  0.00    -0.196 NA 
BRANCH  14  15
HETATM   15  C1* UNL     1     -10.004  11.527  67.396  1.00  0.00    -0.190 C  
HETATM   16  O4* UNL     1      -8.756  12.209  67.647  1.00  0.00    -0.157 OA 
HETATM   17  C4* UNL     1      -8.865  13.577  67.186  1.00  0.00    -0.226 C  
HETATM   18  H2* UNL     1     -12.540  12.640  65.536  1.00  0.00     0.000 HD 
HETATM   19  C3* UNL     1     -10.170  13.712  66.393  1.00  0.00    -0.292 C  
HETATM   20  C2* UNL     1     -10.696  12.287  66.267  1.00  0.00    -0.259 C  
HETATM   21  O3* UNL     1      -9.943  14.264  65.090  1.00  0.00    -0.519 OA 
HETATM   22  H3* UNL     1     -10.751  14.348  64.598  1.00  0.00     0.000 HD 
HETATM   23  O2* UNL     1     -12.110  12.167  66.239  1.00  0.00    -0.626 OA 
BRANCH  17  24
HETATM   24  C5* UNL     1      -8.795  14.528  68.392  1.00  0.00    -0.180 C  
HETATM   25  O5* UNL     1      -8.557  15.864  67.949  1.00  0.00    -0.161 OA 
HETATM   26  H5* UNL     1      -8.514  16.451  68.694  1.00  0.00     0.000 HD 
ENDBRANCH  17  24
ENDBRANCH  14  15
ENDBRANCH   2   3
TORSDOF 3
ENDMDL
MODEL       64
REMARK 921   NORMALIZED FREE ENERGY PREDICTED BY IDOCK:   -5.09 KCAL/MOL
REMARK 922        TOTAL FREE ENERGY PREDICTED BY IDOCK:   -6.20 KCAL/MOL
REMARK 923 INTER-LIGAND FREE ENERGY PREDICTED BY IDOCK:   -6.07 KCAL/MOL
REMARK 924 INTRA-LIGAND FREE ENERGY PREDICTED BY IDOCK:   -0.13 KCAL/MOL
REMARK 927      BINDING AFFINITY PREDICTED BY RF-SCORE:    0.00 PKD
ROOT
HETATM    1  C   UNL     1     -14.392   8.129  71.788  1.00  0.00    -0.484 C  
HETATM    2  O   UNL     1     -13.617   9.130  72.439  1.00  0.00    -0.453 OA 
ENDROOT
BRANCH   2   3
HETATM    3  C   UNL     1     -12.341   9.207  71.917  1.00  0.00    -0.385 A  
HETATM    4  N   UNL     1     -11.419   8.274  72.271  1.00  0.00    -0.358 NA 
HETATM    5  C   UNL     1     -10.205   8.325  71.714  1.00  0.00    -0.230 A  
HETATM    6  N   UNL     1      -9.343   7.290  72.018  1.00  0.00    -0.133 NA 
HETATM    7  N   UNL     1      -9.781   9.208  70.806  1.00  0.00    -0.250 NA 
HETATM    8  H2  UNL     1      -9.786   6.399  71.794  1.00  0.00     0.000 HD 
HETATM    9  C   UNL     1     -10.729  10.088  70.449  1.00  0.00    -0.307 A  
HETATM   10  H1  UNL     1      -8.417   7.329  71.593  1.00  0.00     0.000 HD 
HETATM   11  C   UNL     1     -12.019  10.161  70.952  1.00  0.00    -0.365 A  
HETATM   12  N   UNL     1     -12.720  11.176  70.337  1.00  0.00    -0.215 NA 
HETATM   13  C   UNL     1     -11.884  11.678  69.455  1.00  0.00    -0.342 A  
HETATM   14  N   UNL     1     -10.666  11.043  69.475  1.00  0.00    -0.219 NA 
BRANCH  14  15
HETATM   15  C1* UNL     1      -9.625  11.265  68.495  1.00  0.00    -0.198 C  
HETATM   16  O4* UNL     1      -9.345  12.681  68.465  1.00  0.00    -0.178 OA 
HETATM   17  C4* UNL     1      -9.891  13.244  67.248  1.00  0.00    -0.233 C  
HETATM   18  H2* UNL     1     -10.782   9.411  65.974  1.00  0.00     0.000 HD 
HETATM   19  C3* UNL     1     -10.342  12.089  66.347  1.00  0.00    -0.216 C  
HETATM   20  C2* UNL     1      -9.838  10.832  67.046  1.00  0.00    -0.187 C  
HETATM   21  O3* UNL     1      -9.766  12.181  65.038  1.00  0.00    -0.396 OA 
HETATM   22  H3* UNL     1     -10.046  11.466  64.479  1.00  0.00     0.000 HD 
HETATM   23  O2* UNL     1     -10.650   9.680  66.875  1.00  0.00    -0.228 OA 
BRANCH  17  24
HETATM   24  C5* UNL     1     -11.033  14.211  67.601  1.00  0.00    -0.267 C  
HETATM   25  O5* UNL     1     -12.109  14.057  66.676  1.00  0.00    -0.428 OA 
HETATM   26  H5* UNL     1     -12.814  14.654  66.894  1.00  0.00     0.000 HD 
ENDBRANCH  17  24
ENDBRANCH  14  15
ENDBRANCH   2   3
TORSDOF 3
ENDMDL
MODEL       65
REMARK 921   NORMALIZED FREE ENERGY PREDICTED BY IDOCK:   -5.04 KCAL/MOL
REMARK 922        TOTAL FREE ENERGY PREDICTED BY IDOCK:   -6.15 KCAL/MOL
REMARK 923 INTER-LIGAND FREE ENERGY PREDICTED BY IDOCK:   -6.83 KCAL/MOL
REMARK 924 INTRA-LIGAND FREE ENERGY PREDICTED BY IDOCK:    0.68 KCAL/MOL
REMARK 927      BINDING AFFINITY PREDICTED BY RF-SCORE:    0.00 PKD
ROOT
HETATM    1  C   UNL     1     -13.410   9.869  71.821  1.00  0.00    -0.404 C  
HETATM    2  O   UNL     1     -13.086  11.244  71.647  1.00  0.00    -0.451 OA 
ENDROOT
BRANCH   2   3
HETATM    3  C   UNL     1     -12.315  11.447  70.519  1.00  0.00    -0.349 A  
HETATM    4  N   UNL     1     -12.049  10.399  69.697  1.00  0.00    -0.159 NA 
HETATM    5  C   UNL     1     -11.351  10.619  68.578  1.00  0.00    -0.284 A  
HETATM    6  N   UNL     1     -11.206   9.548  67.720  1.00  0.00    -0.454 NA 
HETATM    7  N   UNL     1     -10.881  11.795  68.150  1.00  0.00    -0.206 NA 
HETATM    8  H2  UNL     1     -12.124   9.172  67.483  1.00  0.00     0.000 HD 
HETATM    9  C   UNL     1     -11.198  12.813  68.965  1.00  0.00    -0.264 A  
HETATM   10  H1  UNL     1     -10.673   9.716  66.866  1.00  0.00     0.000 HD 
HETATM   11  C   UNL     1     -11.900  12.729  70.157  1.00  0.00    -0.251 A  
HETATM   12  N   UNL     1     -12.059  13.979  70.714  1.00  0.00    -0.347 NA 
HETATM   13  C   UNL     1     -11.499  14.804  69.856  1.00  0.00    -0.281 A  
HETATM   14  N   UNL     1     -10.974  14.146  68.771  1.00  0.00    -0.249 NA 
BRANCH  14  15
HETATM   15  C1* UNL     1     -10.465  14.813  67.593  1.00  0.00    -0.254 C  
HETATM   16  O4* UNL     1     -11.598  15.230  66.800  1.00  0.00    -0.215 OA 
HETATM   17  C4* UNL     1     -11.699  14.374  65.636  1.00  0.00    -0.356 C  
HETATM   18  H2* UNL     1      -8.079  12.666  66.681  1.00  0.00     0.000 HD 
HETATM   19  C3* UNL     1     -10.432  13.514  65.563  1.00  0.00    -0.299 C  
HETATM   20  C2* UNL     1      -9.520  14.075  66.647  1.00  0.00    -0.287 C  
HETATM   21  O3* UNL     1      -9.791  13.622  64.285  1.00  0.00    -0.716 OA 
HETATM   22  H3* UNL     1      -9.006  13.088  64.240  1.00  0.00     0.000 HD 
HETATM   23  O2* UNL     1      -8.668  13.125  67.269  1.00  0.00    -0.193 OA 
BRANCH  17  24
HETATM   24  C5* UNL     1     -12.986  13.539  65.727  1.00  0.00    -0.102 C  
HETATM   25  O5* UNL     1     -12.889  12.394  64.881  1.00  0.00    -0.711 OA 
HETATM   26  H5* UNL     1     -13.684  11.878  64.937  1.00  0.00     0.000 HD 
ENDBRANCH  17  24
ENDBRANCH  14  15
ENDBRANCH   2   3
TORSDOF 3
ENDMDL
MODEL       66
REMARK 921   NORMALIZED FREE ENERGY PREDICTED BY IDOCK:   -4.99 KCAL/MOL
REMARK 922        TOTAL FREE ENERGY PREDICTED BY IDOCK:   -6.09 KCAL/MOL
REMARK 923 INTER-LIGAND FREE ENERGY PREDICTED BY IDOCK:   -6.55 KCAL/MOL
REMARK 924 INTRA-LIGAND FREE ENERGY PREDICTED BY IDOCK:    0.46 KCAL/MOL
REMARK 927      BINDING AFFINITY PREDICTED BY RF-SCORE:    0.00 PKD
ROOT
HETATM    1  C   UNL     1      -9.570  10.244  63.581  1.00  0.00    -0.277 C  
HETATM    2  O   UNL     1     -10.602  10.610  64.490  1.00  0.00    -0.304 OA 
ENDROOT
BRANCH   2   3
HETATM    3  C   UNL     1     -10.576  11.961  64.774  1.00  0.00    -0.299 A  
HETATM    4  N   UNL     1     -11.499  12.779  64.203  1.00  0.00    -0.365 NA 
HETATM    5  C   UNL     1     -11.500  14.076  64.530  1.00  0.00    -0.370 A  
HETATM    6  N   UNL     1     -12.527  14.841  64.015  1.00  0.00    -1.000 NA 
HETATM    7  N   UNL     1     -10.681  14.680  65.396  1.00  0.00    -0.343 NA 
HETATM    8  H2  UNL     1     -13.424  14.424  64.263  1.00  0.00     0.000 HD 
HETATM    9  C   UNL     1      -9.811  13.835  65.971  1.00  0.00    -0.282 A  
HETATM   10  H1  UNL     1     -12.528  15.830  64.264  1.00  0.00     0.000 HD 
HETATM   11  C   UNL     1      -9.689  12.478  65.718  1.00  0.00    -0.187 A  
HETATM   12  N   UNL     1      -8.704  11.926  66.509  1.00  0.00    -0.185 NA 
HETATM   13  C   UNL     1      -8.270  12.921  67.251  1.00  0.00    -0.176 A  
HETATM   14  N   UNL     1      -8.920  14.098  66.971  1.00  0.00    -0.230 NA 
BRANCH  14  15
HETATM   15  C1* UNL     1      -8.774  15.305  67.755  1.00  0.00    -0.165 C  
HETATM   16  O4* UNL     1      -9.620  15.176  68.920  1.00  0.00    -0.205 OA 
HETATM   17  C4* UNL     1     -10.773  16.038  68.762  1.00  0.00    -0.282 C  
HETATM   18  H2* UNL     1      -9.032  17.607  65.354  1.00  0.00     0.000 HD 
HETATM   19  C3* UNL     1     -10.538  16.935  67.541  1.00  0.00    -0.307 C  
HETATM   20  C2* UNL     1      -9.094  16.662  67.133  1.00  0.00    -0.214 C  
HETATM   21  O3* UNL     1     -10.698  18.322  67.863  1.00  0.00    -0.397 OA 
HETATM   22  H3* UNL     1     -10.553  18.877  67.106  1.00  0.00     0.000 HD 
HETATM   23  O2* UNL     1      -8.833  16.762  65.741  1.00  0.00    -0.505 OA 
BRANCH  17  24
HETATM   24  C5* UNL     1     -12.040  15.177  68.640  1.00  0.00    -0.151 C  
HETATM   25  O5* UNL     1     -11.702  13.793  68.724  1.00  0.00    -0.309 OA 
HETATM   26  H5* UNL     1     -12.486  13.261  68.649  1.00  0.00     0.000 HD 
ENDBRANCH  17  24
ENDBRANCH  14  15
ENDBRANCH   2   3
TORSDOF 3
ENDMDL
MODEL       67
REMARK 921   NORMALIZED FREE ENERGY PREDICTED BY IDOCK:   -4.96 KCAL/MOL
REMARK 922        TOTAL FREE ENERGY PREDICTED BY IDOCK:   -6.06 KCAL/MOL
REMARK 923 INTER-LIGAND FREE ENERGY PREDICTED BY IDOCK:   -6.51 KCAL/MOL
REMARK 924 INTRA-LIGAND FREE ENERGY PREDICTED BY IDOCK:    0.45 KCAL/MOL
REMARK 927      BINDING AFFINITY PREDICTED BY RF-SCORE:    0.00 PKD
ROOT
HETATM    1  C   UNL     1     -12.305  14.792  64.834  1.00  0.00    -0.252 C  
HETATM    2  O   UNL     1     -12.973  13.536  64.766  1.00  0.00    -0.683 OA 
ENDROOT
BRANCH   2   3
HETATM    3  C   UNL     1     -12.088  12.482  64.877  1.00  0.00    -0.440 A  
HETATM    4  N   UNL     1     -11.511  11.975  63.756  1.00  0.00    -0.426 NA 
HETATM    5  C   UNL     1     -10.612  10.993  63.881  1.00  0.00    -0.312 A  
HETATM    6  N   UNL     1      -9.971  10.593  62.727  1.00  0.00    -0.716 NA 
HETATM    7  N   UNL     1     -10.187  10.443  65.023  1.00  0.00    -0.312 NA 
HETATM    8  H2  UNL     1      -9.537  11.400  62.278  1.00  0.00     0.000 HD 
HETATM    9  C   UNL     1     -10.747  10.995  66.110  1.00  0.00    -0.194 A  
HETATM   10  H1  UNL     1      -9.285   9.844  62.823  1.00  0.00     0.000 HD 
HETATM   11  C   UNL     1     -11.697  12.004  66.128  1.00  0.00    -0.241 A  
HETATM   12  N   UNL     1     -12.025  12.336  67.425  1.00  0.00    -0.544 NA 
HETATM   13  C   UNL     1     -11.260  11.571  68.173  1.00  0.00    -0.271 A  
HETATM   14  N   UNL     1     -10.456  10.749  67.421  1.00  0.00    -0.211 NA 
BRANCH  14  15
HETATM   15  C1* UNL     1      -9.392   9.939  67.973  1.00  0.00    -0.130 C  
HETATM   16  O4* UNL     1      -9.168   8.834  67.070  1.00  0.00    -0.135 OA 
HETATM   17  C4* UNL     1      -9.695   7.624  67.668  1.00  0.00    -0.152 C  
HETATM   18  H2* UNL     1     -10.384   9.744  71.152  1.00  0.00     0.000 HD 
HETATM   19  C3* UNL     1     -10.067   7.931  69.123  1.00  0.00    -0.197 C  
HETATM   20  C2* UNL     1      -9.536   9.339  69.369  1.00  0.00    -0.168 C  
HETATM   21  O3* UNL     1      -9.450   7.013  70.033  1.00  0.00    -0.161 OA 
HETATM   22  H3* UNL     1      -9.681   7.203  70.935  1.00  0.00     0.000 HD 
HETATM   23  O2* UNL     1     -10.295  10.117  70.283  1.00  0.00    -0.267 OA 
BRANCH  17  24
HETATM   24  C5* UNL     1     -10.886   7.121  66.837  1.00  0.00    -0.237 C  
HETATM   25  O5* UNL     1     -10.579   5.855  66.256  1.00  0.00    -0.458 OA 
HETATM   26  H5* UNL     1     -11.315   5.544  65.743  1.00  0.00     0.000 HD 
ENDBRANCH  17  24
ENDBRANCH  14  15
ENDBRANCH   2   3
TORSDOF 3
ENDMDL
MODEL       68
REMARK 921   NORMALIZED FREE ENERGY PREDICTED BY IDOCK:   -4.95 KCAL/MOL
REMARK 922        TOTAL FREE ENERGY PREDICTED BY IDOCK:   -6.04 KCAL/MOL
REMARK 923 INTER-LIGAND FREE ENERGY PREDICTED BY IDOCK:   -6.33 KCAL/MOL
REMARK 924 INTRA-LIGAND FREE ENERGY PREDICTED BY IDOCK:    0.29 KCAL/MOL
REMARK 927      BINDING AFFINITY PREDICTED BY RF-SCORE:    0.00 PKD
ROOT
HETATM    1  C   UNL     1     -13.345   9.005  71.690  1.00  0.00    -0.377 C  
HETATM    2  O   UNL     1     -12.322   9.984  71.840  1.00  0.00    -0.374 OA 
ENDROOT
BRANCH   2   3
HETATM    3  C   UNL     1     -11.907  10.479  70.621  1.00  0.00    -0.360 A  
HETATM    4  N   UNL     1     -11.488   9.616  69.659  1.00  0.00    -0.078 NA 
HETATM    5  C   UNL     1     -11.143  10.102  68.462  1.00  0.00    -0.214 A  
HETATM    6  N   UNL     1     -10.835   9.177  67.485  1.00  0.00    -0.454 NA 
HETATM    7  N   UNL     1     -11.179  11.383  68.082  1.00  0.00    -0.254 NA 
HETATM    8  H2  UNL     1     -11.609   8.521  67.379  1.00  0.00     0.000 HD 
HETATM    9  C   UNL     1     -11.637  12.201  69.042  1.00  0.00    -0.319 A  
HETATM   10  H1  UNL     1     -10.572   9.548  66.572  1.00  0.00     0.000 HD 
HETATM   11  C   UNL     1     -12.015  11.838  70.325  1.00  0.00    -0.343 A  
HETATM   12  N   UNL     1     -12.455  12.938  71.028  1.00  0.00    -0.348 NA 
HETATM   13  C   UNL     1     -12.382  13.936  70.175  1.00  0.00    -0.334 A  
HETATM   14  N   UNL     1     -11.904  13.537  68.951  1.00  0.00    -0.329 NA 
BRANCH  14  15
HETATM   15  C1* UNL     1     -11.891  14.381  67.776  1.00  0.00    -0.368 C  
HETATM   16  O4* UNL     1     -11.110  13.712  66.762  1.00  0.00    -0.299 OA 
HETATM   17  C4* UNL     1      -9.837  14.389  66.625  1.00  0.00    -0.278 C  
HETATM   18  H2* UNL     1     -11.222  17.334  69.177  1.00  0.00     0.000 HD 
HETATM   19  C3* UNL     1      -9.899  15.693  67.428  1.00  0.00    -0.225 C  
HETATM   20  C2* UNL     1     -11.354  15.807  67.868  1.00  0.00    -0.277 C  
HETATM   21  O3* UNL     1      -9.543  16.827  66.626  1.00  0.00    -0.236 OA 
HETATM   22  H3* UNL     1      -9.581  17.635  67.124  1.00  0.00     0.000 HD 
HETATM   23  O2* UNL     1     -11.556  16.447  69.120  1.00  0.00    -0.256 OA 
BRANCH  17  24
HETATM   24  C5* UNL     1      -8.709  13.452  67.088  1.00  0.00    -0.215 C  
HETATM   25  O5* UNL     1      -8.727  12.248  66.323  1.00  0.00    -0.391 OA 
HETATM   26  H5* UNL     1      -8.030  11.670  66.608  1.00  0.00     0.000 HD 
ENDBRANCH  17  24
ENDBRANCH  14  15
ENDBRANCH   2   3
TORSDOF 3
ENDMDL
MODEL       69
REMARK 921   NORMALIZED FREE ENERGY PREDICTED BY IDOCK:   -4.91 KCAL/MOL
REMARK 922        TOTAL FREE ENERGY PREDICTED BY IDOCK:   -5.99 KCAL/MOL
REMARK 923 INTER-LIGAND FREE ENERGY PREDICTED BY IDOCK:   -6.46 KCAL/MOL
REMARK 924 INTRA-LIGAND FREE ENERGY PREDICTED BY IDOCK:    0.47 KCAL/MOL
REMARK 927      BINDING AFFINITY PREDICTED BY RF-SCORE:    0.00 PKD
ROOT
HETATM    1  C   UNL     1     -11.276  11.527  63.528  1.00  0.00    -0.322 C  
HETATM    2  O   UNL     1     -11.027  11.730  64.915  1.00  0.00    -0.297 OA 
ENDROOT
BRANCH   2   3
HETATM    3  C   UNL     1     -10.770  13.057  65.196  1.00  0.00    -0.306 A  
HETATM    4  N   UNL     1     -11.261  14.020  64.374  1.00  0.00    -0.345 NA 
HETATM    5  C   UNL     1     -11.055  15.303  64.689  1.00  0.00    -0.332 A  
HETATM    6  N   UNL     1     -11.671  16.243  63.887  1.00  0.00    -1.518 NA 
HETATM    7  N   UNL     1     -10.413  15.766  65.765  1.00  0.00    -0.346 NA 
HETATM    8  H2  UNL     1     -12.674  16.056  63.848  1.00  0.00     0.000 HD 
HETATM    9  C   UNL     1      -9.977  14.789  66.575  1.00  0.00    -0.271 A  
HETATM   10  H1  UNL     1     -11.514  17.221  64.127  1.00  0.00     0.000 HD 
HETATM   11  C   UNL     1     -10.108  13.425  66.368  1.00  0.00    -0.292 A  
HETATM   12  N   UNL     1      -9.562  12.722  67.420  1.00  0.00    -0.194 NA 
HETATM   13  C   UNL     1      -9.146  13.643  68.262  1.00  0.00    -0.193 A  
HETATM   14  N   UNL     1      -9.388  14.914  67.800  1.00  0.00    -0.192 NA 
BRANCH  14  15
HETATM   15  C1* UNL     1      -9.203  16.108  68.596  1.00  0.00    -0.220 C  
HETATM   16  O4* UNL     1      -9.257  17.242  67.703  1.00  0.00    -0.226 OA 
HETATM   17  C4* UNL     1      -7.921  17.774  67.535  1.00  0.00    -0.212 C  
HETATM   18  H2* UNL     1      -6.607  15.174  70.472  1.00  0.00     0.000 HD 
HETATM   19  C3* UNL     1      -7.001  17.087  68.551  1.00  0.00    -0.197 C  
HETATM   20  C2* UNL     1      -7.940  16.276  69.437  1.00  0.00    -0.065 C  
HETATM   21  O3* UNL     1      -6.285  18.040  69.347  1.00  0.00    -0.236 OA 
HETATM   22  H3* UNL     1      -5.715  17.614  69.976  1.00  0.00     0.000 HD 
HETATM   23  O2* UNL     1      -7.393  15.069  69.948  1.00  0.00    -0.190 OA 
BRANCH  17  24
HETATM   24  C5* UNL     1      -7.468  17.567  66.081  1.00  0.00    -0.299 C  
HETATM   25  O5* UNL     1      -6.044  17.582  66.004  1.00  0.00    -0.207 OA 
HETATM   26  H5* UNL     1      -5.764  17.455  65.105  1.00  0.00     0.000 HD 
ENDBRANCH  17  24
ENDBRANCH  14  15
ENDBRANCH   2   3
TORSDOF 3
ENDMDL
MODEL       70
REMARK 921   NORMALIZED FREE ENERGY PREDICTED BY IDOCK:   -4.88 KCAL/MOL
REMARK 922        TOTAL FREE ENERGY PREDICTED BY IDOCK:   -5.96 KCAL/MOL
REMARK 923 INTER-LIGAND FREE ENERGY PREDICTED BY IDOCK:   -5.71 KCAL/MOL
REMARK 924 INTRA-LIGAND FREE ENERGY PREDICTED BY IDOCK:   -0.25 KCAL/MOL
REMARK 927      BINDING AFFINITY PREDICTED BY RF-SCORE:    0.00 PKD
ROOT
HETATM    1  C   UNL     1     -11.416  15.527  67.976  1.00  0.00    -0.308 C  
HETATM    2  O   UNL     1     -11.946  14.206  67.958  1.00  0.00    -0.355 OA 
ENDROOT
BRANCH   2   3
HETATM    3  C   UNL     1     -11.609  13.538  66.798  1.00  0.00    -0.363 A  
HETATM    4  N   UNL     1     -12.216  13.880  65.631  1.00  0.00    -0.424 NA 
HETATM    5  C   UNL     1     -11.840  13.267  64.504  1.00  0.00    -0.387 A  
HETATM    6  N   UNL     1     -12.402  13.730  63.332  1.00  0.00    -1.100 NA 
HETATM    7  N   UNL     1     -10.892  12.333  64.384  1.00  0.00    -0.307 NA 
HETATM    8  H2  UNL     1     -12.238  14.734  63.247  1.00  0.00     0.000 HD 
HETATM    9  C   UNL     1     -10.286  12.049  65.548  1.00  0.00    -0.263 A  
HETATM   10  H1  UNL     1     -12.115  13.262  62.472  1.00  0.00     0.000 HD 
HETATM   11  C   UNL     1     -10.582  12.594  66.787  1.00  0.00    -0.237 A  
HETATM   12  N   UNL     1      -9.741  12.085  67.752  1.00  0.00    -0.187 NA 
HETATM   13  C   UNL     1      -8.929  11.279  67.102  1.00  0.00    -0.155 A  
HETATM   14  N   UNL     1      -9.212  11.233  65.759  1.00  0.00    -0.217 NA 
BRANCH  14  15
HETATM   15  C1* UNL     1      -8.372  10.576  64.781  1.00  0.00    -0.125 C  
HETATM   16  O4* UNL     1      -9.005   9.327  64.427  1.00  0.00    -0.198 OA 
HETATM   17  C4* UNL     1      -8.266   8.237  65.029  1.00  0.00    -0.158 C  
HETATM   18  H2* UNL     1      -5.384  10.957  66.215  1.00  0.00     0.000 HD 
HETATM   19  C3* UNL     1      -6.963   8.803  65.606  1.00  0.00    -0.079 C  
HETATM   20  C2* UNL     1      -6.920  10.248  65.120  1.00  0.00    -0.122 C  
HETATM   21  O3* UNL     1      -5.816   8.094  65.121  1.00  0.00    -0.044 OA 
HETATM   22  H3* UNL     1      -5.009   8.444  65.479  1.00  0.00     0.000 HD 
HETATM   23  O2* UNL     1      -6.288  11.162  66.004  1.00  0.00    -0.106 OA 
BRANCH  17  24
HETATM   24  C5* UNL     1      -9.142   7.549  66.089  1.00  0.00    -0.137 C  
HETATM   25  O5* UNL     1     -10.354   8.280  66.271  1.00  0.00    -0.439 OA 
HETATM   26  H5* UNL     1     -10.895   7.855  66.926  1.00  0.00     0.000 HD 
ENDBRANCH  17  24
ENDBRANCH  14  15
ENDBRANCH   2   3
TORSDOF 3
ENDMDL
MODEL       71
REMARK 921   NORMALIZED FREE ENERGY PREDICTED BY IDOCK:   -4.88 KCAL/MOL
REMARK 922        TOTAL FREE ENERGY PREDICTED BY IDOCK:   -5.96 KCAL/MOL
REMARK 923 INTER-LIGAND FREE ENERGY PREDICTED BY IDOCK:   -6.77 KCAL/MOL
REMARK 924 INTRA-LIGAND FREE ENERGY PREDICTED BY IDOCK:    0.81 KCAL/MOL
REMARK 927      BINDING AFFINITY PREDICTED BY RF-SCORE:    0.00 PKD
ROOT
HETATM    1  C   UNL     1      -9.379  10.154  63.105  1.00  0.00    -0.298 C  
HETATM    2  O   UNL     1      -9.483  10.353  64.511  1.00  0.00    -0.234 OA 
ENDROOT
BRANCH   2   3
HETATM    3  C   UNL     1     -10.007  11.593  64.813  1.00  0.00    -0.254 A  
HETATM    4  N   UNL     1     -10.881  12.175  63.951  1.00  0.00    -0.364 NA 
HETATM    5  C   UNL     1     -11.427  13.350  64.281  1.00  0.00    -0.393 A  
HETATM    6  N   UNL     1     -12.394  13.843  63.428  1.00  0.00    -1.139 NA 
HETATM    7  N   UNL     1     -11.219  14.036  65.409  1.00  0.00    -0.311 NA 
HETATM    8  H2  UNL     1     -13.129  13.146  63.304  1.00  0.00     0.000 HD 
HETATM    9  C   UNL     1     -10.384  13.413  66.254  1.00  0.00    -0.291 A  
HETATM   10  H1  UNL     1     -12.811  14.739  63.681  1.00  0.00     0.000 HD 
HETATM   11  C   UNL     1      -9.738  12.206  66.037  1.00  0.00    -0.244 A  
HETATM   12  N   UNL     1      -8.976  11.862  67.133  1.00  0.00    -0.172 NA 
HETATM   13  C   UNL     1      -9.189  12.821  68.007  1.00  0.00    -0.208 A  
HETATM   14  N   UNL     1     -10.047  13.780  67.526  1.00  0.00    -0.239 NA 
BRANCH  14  15
HETATM   15  C1* UNL     1     -10.598  14.847  68.333  1.00  0.00    -0.244 C  
HETATM   16  O4* UNL     1     -11.418  15.669  67.473  1.00  0.00    -0.256 OA 
HETATM   17  C4* UNL     1     -10.729  16.918  67.220  1.00  0.00    -0.208 C  
HETATM   18  H2* UNL     1      -7.866  15.806  69.990  1.00  0.00     0.000 HD 
HETATM   19  C3* UNL     1      -9.512  16.991  68.150  1.00  0.00    -0.262 C  
HETATM   20  C2* UNL     1      -9.665  15.795  69.082  1.00  0.00    -0.250 C  
HETATM   21  O3* UNL     1      -9.500  18.204  68.913  1.00  0.00    -0.283 OA 
HETATM   22  H3* UNL     1      -8.746  18.249  69.488  1.00  0.00     0.000 HD 
HETATM   23  O2* UNL     1      -8.446  15.215  69.524  1.00  0.00    -0.222 OA 
BRANCH  17  24
HETATM   24  C5* UNL     1     -10.354  17.001  65.732  1.00  0.00    -0.261 C  
HETATM   25  O5* UNL     1     -11.003  18.117  65.124  1.00  0.00    -0.637 OA 
HETATM   26  H5* UNL     1     -10.771  18.168  64.205  1.00  0.00     0.000 HD 
ENDBRANCH  17  24
ENDBRANCH  14  15
ENDBRANCH   2   3
TORSDOF 3
ENDMDL
MODEL       72
REMARK 921   NORMALIZED FREE ENERGY PREDICTED BY IDOCK:   -4.85 KCAL/MOL
REMARK 922        TOTAL FREE ENERGY PREDICTED BY IDOCK:   -5.93 KCAL/MOL
REMARK 923 INTER-LIGAND FREE ENERGY PREDICTED BY IDOCK:   -5.88 KCAL/MOL
REMARK 924 INTRA-LIGAND FREE ENERGY PREDICTED BY IDOCK:   -0.05 KCAL/MOL
REMARK 927      BINDING AFFINITY PREDICTED BY RF-SCORE:    0.00 PKD
ROOT
HETATM    1  C   UNL     1      -6.092  10.584  65.694  1.00  0.00    -0.131 C  
HETATM    2  O   UNL     1      -7.309   9.846  65.657  1.00  0.00    -0.105 OA 
ENDROOT
BRANCH   2   3
HETATM    3  C   UNL     1      -8.394  10.664  65.414  1.00  0.00    -0.142 A  
HETATM    4  N   UNL     1      -9.045  10.572  64.225  1.00  0.00    -0.212 NA 
HETATM    5  C   UNL     1     -10.130  11.328  64.024  1.00  0.00    -0.329 A  
HETATM    6  N   UNL     1     -10.821  11.114  62.849  1.00  0.00    -0.806 NA 
HETATM    7  N   UNL     1     -10.677  12.183  64.892  1.00  0.00    -0.283 NA 
HETATM    8  H2  UNL     1     -11.072  10.128  62.773  1.00  0.00     0.000 HD 
HETATM    9  C   UNL     1     -10.033  12.218  66.069  1.00  0.00    -0.252 A  
HETATM   10  H1  UNL     1     -11.649  11.690  62.695  1.00  0.00     0.000 HD 
HETATM   11  C   UNL     1      -8.895  11.504  66.409  1.00  0.00    -0.193 A  
HETATM   12  N   UNL     1      -8.527  11.774  67.709  1.00  0.00    -0.140 NA 
HETATM   13  C   UNL     1      -9.445  12.602  68.156  1.00  0.00    -0.218 A  
HETATM   14  N   UNL     1     -10.389  12.893  67.201  1.00  0.00    -0.237 NA 
BRANCH  14  15
HETATM   15  C1* UNL     1     -11.607  13.627  67.470  1.00  0.00    -0.350 C  
HETATM   16  O4* UNL     1     -11.438  14.963  66.946  1.00  0.00    -0.351 OA 
HETATM   17  C4* UNL     1     -11.256  15.882  68.050  1.00  0.00    -0.319 C  
HETATM   18  H2* UNL     1     -12.113  12.789  70.659  1.00  0.00     0.000 HD 
HETATM   19  C3* UNL     1     -11.552  15.130  69.353  1.00  0.00    -0.323 C  
HETATM   20  C2* UNL     1     -12.103  13.781  68.905  1.00  0.00    -0.313 C  
HETATM   21  O3* UNL     1     -12.527  15.814  70.149  1.00  0.00    -0.425 OA 
HETATM   22  H3* UNL     1     -12.710  15.348  70.957  1.00  0.00     0.000 HD 
HETATM   23  O2* UNL     1     -11.804  12.692  69.766  1.00  0.00    -0.315 OA 
BRANCH  17  24
HETATM   24  C5* UNL     1      -9.833  16.461  68.001  1.00  0.00    -0.238 C  
HETATM   25  O5* UNL     1      -8.994  15.634  67.196  1.00  0.00    -0.196 OA 
HETATM   26  H5* UNL     1      -8.115  15.993  67.165  1.00  0.00     0.000 HD 
ENDBRANCH  17  24
ENDBRANCH  14  15
ENDBRANCH   2   3
TORSDOF 3
ENDMDL
MODEL       73
REMARK 921   NORMALIZED FREE ENERGY PREDICTED BY IDOCK:   -4.85 KCAL/MOL
REMARK 922        TOTAL FREE ENERGY PREDICTED BY IDOCK:   -5.93 KCAL/MOL
REMARK 923 INTER-LIGAND FREE ENERGY PREDICTED BY IDOCK:   -6.56 KCAL/MOL
REMARK 924 INTRA-LIGAND FREE ENERGY PREDICTED BY IDOCK:    0.63 KCAL/MOL
REMARK 927      BINDING AFFINITY PREDICTED BY RF-SCORE:    0.00 PKD
ROOT
HETATM    1  C   UNL     1      -6.295  17.930  69.554  1.00  0.00    -0.212 C  
HETATM    2  O   UNL     1      -6.333  17.183  68.343  1.00  0.00    -0.149 OA 
ENDROOT
BRANCH   2   3
HETATM    3  C   UNL     1      -7.609  16.741  68.056  1.00  0.00    -0.169 A  
HETATM    4  N   UNL     1      -8.624  17.640  67.983  1.00  0.00    -0.242 NA 
HETATM    5  C   UNL     1      -9.845  17.209  67.648  1.00  0.00    -0.270 A  
HETATM    6  N   UNL     1     -10.815  18.175  67.474  1.00  0.00    -0.335 NA 
HETATM    7  N   UNL     1     -10.192  15.953  67.350  1.00  0.00    -0.264 NA 
HETATM    8  H2  UNL     1     -10.495  18.863  66.792  1.00  0.00     0.000 HD 
HETATM    9  C   UNL     1      -9.157  15.100  67.393  1.00  0.00    -0.191 A  
HETATM   10  H1  UNL     1     -11.746  17.846  67.218  1.00  0.00     0.000 HD 
HETATM   11  C   UNL     1      -7.849  15.405  67.736  1.00  0.00    -0.143 A  
HETATM   12  N   UNL     1      -7.053  14.284  67.647  1.00  0.00    -0.175 NA 
HETATM   13  C   UNL     1      -7.855  13.332  67.222  1.00  0.00    -0.108 A  
HETATM   14  N   UNL     1      -9.140  13.781  67.040  1.00  0.00    -0.238 NA 
BRANCH  14  15
HETATM   15  C1* UNL     1     -10.184  13.003  66.409  1.00  0.00    -0.280 C  
HETATM   16  O4* UNL     1     -10.257  13.407  65.024  1.00  0.00    -0.330 OA 
HETATM   17  C4* UNL     1     -11.450  14.203  64.828  1.00  0.00    -0.383 C  
HETATM   18  H2* UNL     1     -12.597  13.286  68.695  1.00  0.00     0.000 HD 
HETATM   19  C3* UNL     1     -12.301  14.111  66.100  1.00  0.00    -0.436 C  
HETATM   20  C2* UNL     1     -11.609  13.055  66.954  1.00  0.00    -0.366 C  
HETATM   21  O3* UNL     1     -13.643  13.699  65.811  1.00  0.00    -0.295 OA 
HETATM   22  H3* UNL     1     -14.171  13.643  66.599  1.00  0.00     0.000 HD 
HETATM   23  O2* UNL     1     -11.710  13.253  68.356  1.00  0.00    -0.313 OA 
BRANCH  17  24
HETATM   24  C5* UNL     1     -11.050  15.645  64.477  1.00  0.00    -0.286 C  
HETATM   25  O5* UNL     1     -12.004  16.215  63.583  1.00  0.00    -1.375 OA 
HETATM   26  H5* UNL     1     -11.756  17.106  63.366  1.00  0.00     0.000 HD 
ENDBRANCH  17  24
ENDBRANCH  14  15
ENDBRANCH   2   3
TORSDOF 3
ENDMDL
MODEL       74
REMARK 921   NORMALIZED FREE ENERGY PREDICTED BY IDOCK:   -4.84 KCAL/MOL
REMARK 922        TOTAL FREE ENERGY PREDICTED BY IDOCK:   -5.92 KCAL/MOL
REMARK 923 INTER-LIGAND FREE ENERGY PREDICTED BY IDOCK:   -5.82 KCAL/MOL
REMARK 924 INTRA-LIGAND FREE ENERGY PREDICTED BY IDOCK:   -0.10 KCAL/MOL
REMARK 927      BINDING AFFINITY PREDICTED BY RF-SCORE:    0.00 PKD
ROOT
HETATM    1  C   UNL     1      -5.738  12.184  70.306  1.00  0.00    -0.163 C  
HETATM    2  O   UNL     1      -5.968  11.078  69.439  1.00  0.00    -0.043 OA 
ENDROOT
BRANCH   2   3
HETATM    3  C   UNL     1      -7.316  10.861  69.237  1.00  0.00    -0.125 A  
HETATM    4  N   UNL     1      -7.979   9.990  70.041  1.00  0.00    -0.176 NA 
HETATM    5  C   UNL     1      -9.296   9.832  69.873  1.00  0.00    -0.231 A  
HETATM    6  N   UNL     1      -9.943   9.025  70.787  1.00  0.00    -0.224 NA 
HETATM    7  N   UNL     1     -10.068  10.466  68.985  1.00  0.00    -0.202 NA 
HETATM    8  H2  UNL     1      -9.755   9.360  71.733  1.00  0.00     0.000 HD 
HETATM    9  C   UNL     1      -9.388  11.348  68.236  1.00  0.00    -0.187 A  
HETATM   10  H1  UNL     1     -10.947   8.904  70.659  1.00  0.00     0.000 HD 
HETATM   11  C   UNL     1      -8.027  11.602  68.292  1.00  0.00    -0.143 A  
HETATM   12  N   UNL     1      -7.682  12.588  67.393  1.00  0.00    -0.161 NA 
HETATM   13  C   UNL     1      -8.817  12.947  66.834  1.00  0.00    -0.187 A  
HETATM   14  N   UNL     1      -9.884  12.232  67.322  1.00  0.00    -0.203 NA 
BRANCH  14  15
HETATM   15  C1* UNL     1     -11.265  12.540  67.022  1.00  0.00    -0.302 C  
HETATM   16  O4* UNL     1     -11.706  11.626  65.994  1.00  0.00    -0.382 OA 
HETATM   17  C4* UNL     1     -11.815  12.343  64.741  1.00  0.00    -0.382 C  
HETATM   18  H2* UNL     1     -11.093  15.864  66.789  1.00  0.00     0.000 HD 
HETATM   19  C3* UNL     1     -11.659  13.841  65.031  1.00  0.00    -0.341 C  
HETATM   20  C2* UNL     1     -11.649  13.941  66.552  1.00  0.00    -0.369 C  
HETATM   21  O3* UNL     1     -12.752  14.601  64.501  1.00  0.00    -0.619 OA 
HETATM   22  H3* UNL     1     -12.654  15.528  64.680  1.00  0.00     0.000 HD 
HETATM   23  O2* UNL     1     -10.854  14.992  67.081  1.00  0.00    -0.300 OA 
BRANCH  17  24
HETATM   24  C5* UNL     1     -10.765  11.810  63.754  1.00  0.00    -0.419 C  
HETATM   25  O5* UNL     1      -9.706  12.755  63.607  1.00  0.00    -0.655 OA 
HETATM   26  H5* UNL     1      -9.057  12.426  62.997  1.00  0.00     0.000 HD 
ENDBRANCH  17  24
ENDBRANCH  14  15
ENDBRANCH   2   3
TORSDOF 3
ENDMDL
MODEL       75
REMARK 921   NORMALIZED FREE ENERGY PREDICTED BY IDOCK:   -4.79 KCAL/MOL
REMARK 922        TOTAL FREE ENERGY PREDICTED BY IDOCK:   -5.85 KCAL/MOL
REMARK 923 INTER-LIGAND FREE ENERGY PREDICTED BY IDOCK:   -6.13 KCAL/MOL
REMARK 924 INTRA-LIGAND FREE ENERGY PREDICTED BY IDOCK:    0.28 KCAL/MOL
REMARK 927      BINDING AFFINITY PREDICTED BY RF-SCORE:    0.00 PKD
ROOT
HETATM    1  C   UNL     1     -10.291  11.752  63.092  1.00  0.00    -0.317 C  
HETATM    2  O   UNL     1     -11.432  12.562  63.355  1.00  0.00    -0.472 OA 
ENDROOT
BRANCH   2   3
HETATM    3  C   UNL     1     -11.537  12.874  64.696  1.00  0.00    -0.346 A  
HETATM    4  N   UNL     1     -11.753  11.880  65.597  1.00  0.00    -0.371 NA 
HETATM    5  C   UNL     1     -11.795  12.186  66.897  1.00  0.00    -0.222 A  
HETATM    6  N   UNL     1     -11.900  11.128  67.778  1.00  0.00    -0.622 NA 
HETATM    7  N   UNL     1     -11.628  13.397  67.436  1.00  0.00    -0.333 NA 
HETATM    8  H2  UNL     1     -11.145  10.464  67.606  1.00  0.00     0.000 HD 
HETATM    9  C   UNL     1     -11.377  14.347  66.522  1.00  0.00    -0.350 A  
HETATM   10  H1  UNL     1     -11.932  11.362  68.770  1.00  0.00     0.000 HD 
HETATM   11  C   UNL     1     -11.319  14.176  65.148  1.00  0.00    -0.336 A  
HETATM   12  N   UNL     1     -11.016  15.367  64.525  1.00  0.00    -0.294 NA 
HETATM   13  C   UNL     1     -10.856  16.229  65.505  1.00  0.00    -0.245 A  
HETATM   14  N   UNL     1     -11.052  15.655  66.737  1.00  0.00    -0.235 NA 
BRANCH  14  15
HETATM   15  C1* UNL     1     -10.764  16.320  67.990  1.00  0.00    -0.331 C  
HETATM   16  O4* UNL     1      -9.341  16.230  68.218  1.00  0.00    -0.197 OA 
HETATM   17  C4* UNL     1      -9.092  15.267  69.269  1.00  0.00    -0.240 C  
HETATM   18  H2* UNL     1     -13.172  15.033  69.908  1.00  0.00     0.000 HD 
HETATM   19  C3* UNL     1     -10.436  14.891  69.903  1.00  0.00    -0.084 C  
HETATM   20  C2* UNL     1     -11.441  15.849  69.275  1.00  0.00    -0.374 C  
HETATM   21  O3* UNL     1     -10.420  15.067  71.325  1.00  0.00    -0.396 OA 
HETATM   22  H3* UNL     1     -11.253  14.834  71.718  1.00  0.00     0.000 HD 
HETATM   23  O2* UNL     1     -12.751  15.325  69.108  1.00  0.00     0.125 OA 
BRANCH  17  24
HETATM   24  C5* UNL     1      -8.344  14.057  68.686  1.00  0.00    -0.104 C  
HETATM   25  O5* UNL     1      -9.138  12.879  68.820  1.00  0.00    -0.388 OA 
HETATM   26  H5* UNL     1      -8.676  12.131  68.459  1.00  0.00     0.000 HD 
ENDBRANCH  17  24
ENDBRANCH  14  15
ENDBRANCH   2   3
TORSDOF 3
ENDMDL
MODEL       76
REMARK 921   NORMALIZED FREE ENERGY PREDICTED BY IDOCK:   -4.76 KCAL/MOL
REMARK 922        TOTAL FREE ENERGY PREDICTED BY IDOCK:   -5.82 KCAL/MOL
REMARK 923 INTER-LIGAND FREE ENERGY PREDICTED BY IDOCK:   -5.83 KCAL/MOL
REMARK 924 INTRA-LIGAND FREE ENERGY PREDICTED BY IDOCK:    0.01 KCAL/MOL
REMARK 927      BINDING AFFINITY PREDICTED BY RF-SCORE:    0.00 PKD
ROOT
HETATM    1  C   UNL     1      -6.230  15.044  69.570  1.00  0.00    -0.124 C  
HETATM    2  O   UNL     1      -7.558  15.545  69.690  1.00  0.00    -0.208 OA 
ENDROOT
BRANCH   2   3
HETATM    3  C   UNL     1      -8.121  15.795  68.455  1.00  0.00    -0.143 A  
HETATM    4  N   UNL     1      -7.954  17.015  67.881  1.00  0.00    -0.186 NA 
HETATM    5  C   UNL     1      -8.455  17.227  66.659  1.00  0.00    -0.260 A  
HETATM    6  N   UNL     1      -8.159  18.441  66.073  1.00  0.00    -0.498 NA 
HETATM    7  N   UNL     1      -9.110  16.342  65.903  1.00  0.00    -0.472 NA 
HETATM    8  H2  UNL     1      -7.148  18.577  66.058  1.00  0.00     0.000 HD 
HETATM    9  C   UNL     1      -9.221  15.137  66.483  1.00  0.00    -0.287 A  
HETATM   10  H1  UNL     1      -8.541  18.603  65.142  1.00  0.00     0.000 HD 
HETATM   11  C   UNL     1      -8.765  14.783  67.743  1.00  0.00    -0.172 A  
HETATM   12  N   UNL     1      -9.034  13.455  67.998  1.00  0.00    -0.183 NA 
HETATM   13  C   UNL     1      -9.605  13.009  66.900  1.00  0.00    -0.243 A  
HETATM   14  N   UNL     1      -9.729  13.989  65.946  1.00  0.00    -0.263 NA 
BRANCH  14  15
HETATM   15  C1* UNL     1     -10.150  13.740  64.585  1.00  0.00    -0.160 C  
HETATM   16  O4* UNL     1     -11.317  14.553  64.330  1.00  0.00    -0.327 OA 
HETATM   17  C4* UNL     1     -12.487  13.701  64.299  1.00  0.00    -0.248 C  
HETATM   18  H2* UNL     1      -9.995  10.408  64.519  1.00  0.00     0.000 HD 
HETATM   19  C3* UNL     1     -12.018  12.242  64.305  1.00  0.00    -0.407 C  
HETATM   20  C2* UNL     1     -10.504  12.321  64.144  1.00  0.00    -0.375 C  
HETATM   21  O3* UNL     1     -12.584  11.498  63.219  1.00  0.00    -0.813 OA 
HETATM   22  H3* UNL     1     -12.294  10.594  63.223  1.00  0.00     0.000 HD 
HETATM   23  O2* UNL     1      -9.775  11.290  64.793  1.00  0.00    -0.239 OA 
BRANCH  17  24
HETATM   24  C5* UNL     1     -13.399  14.044  65.488  1.00  0.00     0.308 C  
HETATM   25  O5* UNL     1     -12.611  14.372  66.631  1.00  0.00    -0.534 OA 
HETATM   26  H5* UNL     1     -13.175  14.584  67.366  1.00  0.00     0.000 HD 
ENDBRANCH  17  24
ENDBRANCH  14  15
ENDBRANCH   2   3
TORSDOF 3
ENDMDL
MODEL       77
REMARK 921   NORMALIZED FREE ENERGY PREDICTED BY IDOCK:   -4.74 KCAL/MOL
REMARK 922        TOTAL FREE ENERGY PREDICTED BY IDOCK:   -5.80 KCAL/MOL
REMARK 923 INTER-LIGAND FREE ENERGY PREDICTED BY IDOCK:   -5.67 KCAL/MOL
REMARK 924 INTRA-LIGAND FREE ENERGY PREDICTED BY IDOCK:   -0.13 KCAL/MOL
REMARK 927      BINDING AFFINITY PREDICTED BY RF-SCORE:    0.00 PKD
ROOT
HETATM    1  C   UNL     1     -11.677  12.689  64.571  1.00  0.00    -0.359 C  
HETATM    2  O   UNL     1     -11.255  13.353  65.758  1.00  0.00    -0.289 OA 
ENDROOT
BRANCH   2   3
HETATM    3  C   UNL     1     -10.449  12.545  66.534  1.00  0.00    -0.238 A  
HETATM    4  N   UNL     1      -9.104  12.562  66.339  1.00  0.00    -0.176 NA 
HETATM    5  C   UNL     1      -8.328  11.819  67.136  1.00  0.00    -0.168 A  
HETATM    6  N   UNL     1      -6.965  11.959  66.974  1.00  0.00    -0.247 NA 
HETATM    7  N   UNL     1      -8.734  11.047  68.148  1.00  0.00    -0.135 NA 
HETATM    8  H2  UNL     1      -6.708  12.942  67.064  1.00  0.00     0.000 HD 
HETATM    9  C   UNL     1     -10.062  11.087  68.338  1.00  0.00    -0.184 A  
HETATM   10  H1  UNL     1      -6.373  11.392  67.581  1.00  0.00     0.000 HD 
HETATM   11  C   UNL     1     -10.982  11.797  67.584  1.00  0.00    -0.233 A  
HETATM   12  N   UNL     1     -12.255  11.620  68.083  1.00  0.00    -0.455 NA 
HETATM   13  C   UNL     1     -12.099  10.851  69.139  1.00  0.00    -0.221 A  
HETATM   14  N   UNL     1     -10.784  10.512  69.343  1.00  0.00    -0.226 NA 
BRANCH  14  15
HETATM   15  C1* UNL     1     -10.303   9.830  70.525  1.00  0.00    -0.283 C  
HETATM   16  O4* UNL     1      -9.700   8.588  70.101  1.00  0.00    -0.167 OA 
HETATM   17  C4* UNL     1     -10.576   7.493  70.461  1.00  0.00    -0.225 C  
HETATM   18  H2* UNL     1     -12.948  10.178  72.528  1.00  0.00     0.000 HD 
HETATM   19  C3* UNL     1     -11.686   8.044  71.364  1.00  0.00    -0.287 C  
HETATM   20  C2* UNL     1     -11.272   9.482  71.652  1.00  0.00    -0.308 C  
HETATM   21  O3* UNL     1     -11.783   7.310  72.591  1.00  0.00    -0.470 OA 
HETATM   22  H3* UNL     1     -12.471   7.651  73.150  1.00  0.00     0.000 HD 
HETATM   23  O2* UNL     1     -12.346  10.395  71.826  1.00  0.00    -0.355 OA 
BRANCH  17  24
HETATM   24  C5* UNL     1     -11.116   6.831  69.183  1.00  0.00    -0.218 C  
HETATM   25  O5* UNL     1     -10.837   7.652  68.050  1.00  0.00    -0.428 OA 
HETATM   26  H5* UNL     1     -11.170   7.243  67.260  1.00  0.00     0.000 HD 
ENDBRANCH  17  24
ENDBRANCH  14  15
ENDBRANCH   2   3
TORSDOF 3
ENDMDL
MODEL       78
REMARK 921   NORMALIZED FREE ENERGY PREDICTED BY IDOCK:   -4.71 KCAL/MOL
REMARK 922        TOTAL FREE ENERGY PREDICTED BY IDOCK:   -5.76 KCAL/MOL
REMARK 923 INTER-LIGAND FREE ENERGY PREDICTED BY IDOCK:   -5.91 KCAL/MOL
REMARK 924 INTRA-LIGAND FREE ENERGY PREDICTED BY IDOCK:    0.14 KCAL/MOL
REMARK 927      BINDING AFFINITY PREDICTED BY RF-SCORE:    0.00 PKD
ROOT
HETATM    1  C   UNL     1     -12.770  12.174  63.785  1.00  0.00    -0.411 C  
HETATM    2  O   UNL     1     -11.641  12.987  64.085  1.00  0.00    -0.361 OA 
ENDROOT
BRANCH   2   3
HETATM    3  C   UNL     1     -11.355  12.984  65.436  1.00  0.00    -0.297 A  
HETATM    4  N   UNL     1     -11.788  14.012  66.211  1.00  0.00    -0.391 NA 
HETATM    5  C   UNL     1     -11.556  13.970  67.527  1.00  0.00    -0.367 A  
HETATM    6  N   UNL     1     -12.115  14.978  68.286  1.00  0.00    -0.567 NA 
HETATM    7  N   UNL     1     -10.938  12.991  68.196  1.00  0.00    -0.234 NA 
HETATM    8  H2  UNL     1     -13.120  15.017  68.116  1.00  0.00     0.000 HD 
HETATM    9  C   UNL     1     -10.561  11.974  67.406  1.00  0.00    -0.223 A  
HETATM   10  H1  UNL     1     -11.938  14.945  69.290  1.00  0.00     0.000 HD 
HETATM   11  C   UNL     1     -10.724  11.892  66.032  1.00  0.00    -0.285 A  
HETATM   12  N   UNL     1     -10.237  10.693  65.559  1.00  0.00    -0.271 NA 
HETATM   13  C   UNL     1      -9.824  10.050  66.629  1.00  0.00    -0.203 A  
HETATM   14  N   UNL     1     -10.012  10.781  67.777  1.00  0.00    -0.169 NA 
BRANCH  14  15
HETATM   15  C1* UNL     1      -9.820  10.251  69.110  1.00  0.00    -0.216 C  
HETATM   16  O4* UNL     1      -9.011   9.060  68.997  1.00  0.00    -0.137 OA 
HETATM   17  C4* UNL     1      -9.849   7.899  69.218  1.00  0.00    -0.177 C  
HETATM   18  H2* UNL     1     -12.941  10.436  70.275  1.00  0.00     0.000 HD 
HETATM   19  C3* UNL     1     -11.213   8.383  69.725  1.00  0.00     0.034 C  
HETATM   20  C2* UNL     1     -11.030   9.877  69.963  1.00  0.00    -0.291 C  
HETATM   21  O3* UNL     1     -11.582   7.737  70.950  1.00  0.00    -0.281 OA 
HETATM   22  H3* UNL     1     -12.427   8.037  71.263  1.00  0.00     0.000 HD 
HETATM   23  O2* UNL     1     -12.188  10.669  69.744  1.00  0.00    -0.305 OA 
BRANCH  17  24
HETATM   24  C5* UNL     1      -9.946   7.085  67.918  1.00  0.00    -0.154 C  
HETATM   25  O5* UNL     1     -11.312   6.941  67.531  1.00  0.00    -0.597 OA 
HETATM   26  H5* UNL     1     -11.371   6.438  66.728  1.00  0.00     0.000 HD 
ENDBRANCH  17  24
ENDBRANCH  14  15
ENDBRANCH   2   3
TORSDOF 3
ENDMDL
MODEL       79
REMARK 921   NORMALIZED FREE ENERGY PREDICTED BY IDOCK:   -4.69 KCAL/MOL
REMARK 922        TOTAL FREE ENERGY PREDICTED BY IDOCK:   -5.73 KCAL/MOL
REMARK 923 INTER-LIGAND FREE ENERGY PREDICTED BY IDOCK:   -5.89 KCAL/MOL
REMARK 924 INTRA-LIGAND FREE ENERGY PREDICTED BY IDOCK:    0.16 KCAL/MOL
REMARK 927      BINDING AFFINITY PREDICTED BY RF-SCORE:    0.00 PKD
ROOT
HETATM    1  C   UNL     1     -10.139   6.536  70.671  1.00  0.00    -0.185 C  
HETATM    2  O   UNL     1     -10.905   7.727  70.823  1.00  0.00    -0.230 OA 
ENDROOT
BRANCH   2   3
HETATM    3  C   UNL     1     -10.813   8.537  69.709  1.00  0.00    -0.175 A  
HETATM    4  N   UNL     1     -10.432   7.997  68.522  1.00  0.00    -0.194 NA 
HETATM    5  C   UNL     1     -10.403   8.779  67.437  1.00  0.00    -0.280 A  
HETATM    6  N   UNL     1     -10.122   8.159  66.237  1.00  0.00    -0.479 NA 
HETATM    7  N   UNL     1     -10.731  10.072  67.379  1.00  0.00    -0.280 NA 
HETATM    8  H2  UNL     1     -10.776   7.390  66.087  1.00  0.00     0.000 HD 
HETATM    9  C   UNL     1     -11.141  10.562  68.560  1.00  0.00    -0.275 A  
HETATM   10  H1  UNL     1     -10.100   8.755  65.410  1.00  0.00     0.000 HD 
HETATM   11  C   UNL     1     -11.208   9.874  69.761  1.00  0.00    -0.235 A  
HETATM   12  N   UNL     1     -11.698  10.689  70.758  1.00  0.00    -0.341 NA 
HETATM   13  C   UNL     1     -11.957  11.833  70.163  1.00  0.00    -0.339 A  
HETATM   14  N   UNL     1     -11.649  11.801  68.824  1.00  0.00    -0.281 NA 
BRANCH  14  15
HETATM   15  C1* UNL     1     -11.999  12.851  67.892  1.00  0.00    -0.282 C  
HETATM   16  O4* UNL     1     -11.191  12.674  66.708  1.00  0.00    -0.273 OA 
HETATM   17  C4* UNL     1     -10.170  13.701  66.677  1.00  0.00    -0.276 C  
HETATM   18  H2* UNL     1     -11.984  15.487  69.937  1.00  0.00     0.000 HD 
HETATM   19  C3* UNL     1     -10.485  14.722  67.776  1.00  0.00    -0.254 C  
HETATM   20  C2* UNL     1     -11.855  14.315  68.303  1.00  0.00    -0.335 C  
HETATM   21  O3* UNL     1     -10.540  16.058  67.259  1.00  0.00    -0.309 OA 
HETATM   22  H3* UNL     1     -10.734  16.690  67.940  1.00  0.00     0.000 HD 
HETATM   23  O2* UNL     1     -12.074  14.577  69.682  1.00  0.00    -0.308 OA 
BRANCH  17  24
HETATM   24  C5* UNL     1      -8.787  13.050  66.840  1.00  0.00    -0.180 C  
HETATM   25  O5* UNL     1      -8.711  11.859  66.058  1.00  0.00    -0.383 OA 
HETATM   26  H5* UNL     1      -7.857  11.457  66.159  1.00  0.00     0.000 HD 
ENDBRANCH  17  24
ENDBRANCH  14  15
ENDBRANCH   2   3
TORSDOF 3
ENDMDL
MODEL       80
REMARK 921   NORMALIZED FREE ENERGY PREDICTED BY IDOCK:   -4.68 KCAL/MOL
REMARK 922        TOTAL FREE ENERGY PREDICTED BY IDOCK:   -5.73 KCAL/MOL
REMARK 923 INTER-LIGAND FREE ENERGY PREDICTED BY IDOCK:   -5.72 KCAL/MOL
REMARK 924 INTRA-LIGAND FREE ENERGY PREDICTED BY IDOCK:   -0.00 KCAL/MOL
REMARK 927      BINDING AFFINITY PREDICTED BY RF-SCORE:    0.00 PKD
ROOT
HETATM    1  C   UNL     1     -11.611   6.626  70.448  1.00  0.00    -0.398 C  
HETATM    2  O   UNL     1     -11.777   8.039  70.489  1.00  0.00    -0.206 OA 
ENDROOT
BRANCH   2   3
HETATM    3  C   UNL     1     -10.708   8.695  69.911  1.00  0.00    -0.225 A  
HETATM    4  N   UNL     1      -9.467   8.148  69.994  1.00  0.00    -0.167 NA 
HETATM    5  C   UNL     1      -8.450   8.762  69.381  1.00  0.00    -0.125 A  
HETATM    6  N   UNL     1      -7.234   8.109  69.397  1.00  0.00    -0.066 NA 
HETATM    7  N   UNL     1      -8.516   9.883  68.657  1.00  0.00    -0.111 NA 
HETATM    8  H2  UNL     1      -7.346   7.169  69.017  1.00  0.00     0.000 HD 
HETATM    9  C   UNL     1      -9.762  10.373  68.563  1.00  0.00    -0.168 A  
HETATM   10  H1  UNL     1      -6.458   8.578  68.930  1.00  0.00     0.000 HD 
HETATM   11  C   UNL     1     -10.901   9.851  69.154  1.00  0.00    -0.221 A  
HETATM   12  N   UNL     1     -12.007  10.602  68.820  1.00  0.00    -0.364 NA 
HETATM   13  C   UNL     1     -11.550  11.534  68.012  1.00  0.00    -0.300 A  
HETATM   14  N   UNL     1     -10.195  11.429  67.814  1.00  0.00    -0.178 NA 
BRANCH  14  15
HETATM   15  C1* UNL     1      -9.462  12.204  66.837  1.00  0.00    -0.210 C  
HETATM   16  O4* UNL     1     -10.189  13.432  66.615  1.00  0.00    -0.264 OA 
HETATM   17  C4* UNL     1     -10.831  13.372  65.318  1.00  0.00    -0.309 C  
HETATM   18  H2* UNL     1      -8.811   9.840  64.575  1.00  0.00     0.000 HD 
HETATM   19  C3* UNL     1     -10.300  12.139  64.578  1.00  0.00    -0.304 C  
HETATM   20  C2* UNL     1      -9.172  11.615  65.459  1.00  0.00    -0.099 C  
HETATM   21  O3* UNL     1      -9.788  12.478  63.283  1.00  0.00    -0.581 OA 
HETATM   22  H3* UNL     1      -9.460  11.714  62.824  1.00  0.00     0.000 HD 
HETATM   23  O2* UNL     1      -8.991  10.206  65.433  1.00  0.00    -0.158 OA 
BRANCH  17  24
HETATM   24  C5* UNL     1     -12.356  13.349  65.505  1.00  0.00    -0.480 C  
HETATM   25  O5* UNL     1     -12.946  12.408  64.609  1.00  0.00    -0.793 OA 
HETATM   26  H5* UNL     1     -13.888  12.394  64.725  1.00  0.00     0.000 HD 
ENDBRANCH  17  24
ENDBRANCH  14  15
ENDBRANCH   2   3
TORSDOF 3
ENDMDL
MODEL       81
REMARK 921   NORMALIZED FREE ENERGY PREDICTED BY IDOCK:   -4.68 KCAL/MOL
REMARK 922        TOTAL FREE ENERGY PREDICTED BY IDOCK:   -5.72 KCAL/MOL
REMARK 923 INTER-LIGAND FREE ENERGY PREDICTED BY IDOCK:   -5.89 KCAL/MOL
REMARK 924 INTRA-LIGAND FREE ENERGY PREDICTED BY IDOCK:    0.16 KCAL/MOL
REMARK 927      BINDING AFFINITY PREDICTED BY RF-SCORE:    0.00 PKD
ROOT
HETATM    1  C   UNL     1      -5.378  17.386  66.443  1.00  0.00    -0.184 C  
HETATM    2  O   UNL     1      -6.248  17.494  67.565  1.00  0.00    -0.143 OA 
ENDROOT
BRANCH   2   3
HETATM    3  C   UNL     1      -7.515  17.029  67.274  1.00  0.00    -0.163 A  
HETATM    4  N   UNL     1      -8.440  17.886  66.770  1.00  0.00    -0.241 NA 
HETATM    5  C   UNL     1      -9.645  17.412  66.438  1.00  0.00    -0.276 A  
HETATM    6  N   UNL     1     -10.509  18.296  65.823  1.00  0.00    -0.617 NA 
HETATM    7  N   UNL     1     -10.056  16.144  66.533  1.00  0.00    -0.277 NA 
HETATM    8  H2  UNL     1     -10.059  18.697  64.999  1.00  0.00     0.000 HD 
HETATM    9  C   UNL     1      -9.105  15.319  66.996  1.00  0.00    -0.225 A  
HETATM   10  H1  UNL     1     -11.428  17.934  65.570  1.00  0.00     0.000 HD 
HETATM   11  C   UNL     1      -7.824  15.674  67.390  1.00  0.00    -0.182 A  
HETATM   12  N   UNL     1      -7.115  14.561  67.788  1.00  0.00    -0.159 NA 
HETATM   13  C   UNL     1      -7.938  13.552  67.602  1.00  0.00    -0.176 A  
HETATM   14  N   UNL     1      -9.154  13.959  67.110  1.00  0.00    -0.229 NA 
BRANCH  14  15
HETATM   15  C1* UNL     1     -10.179  13.051  66.642  1.00  0.00    -0.257 C  
HETATM   16  O4* UNL     1     -11.458  13.689  66.849  1.00  0.00    -0.317 OA 
HETATM   17  C4* UNL     1     -12.129  13.049  67.961  1.00  0.00    -0.174 C  
HETATM   18  H2* UNL     1      -9.126  10.205  68.028  1.00  0.00     0.000 HD 
HETATM   19  C3* UNL     1     -11.339  11.790  68.336  1.00  0.00    -0.270 C  
HETATM   20  C2* UNL     1     -10.288  11.651  67.241  1.00  0.00    -0.204 C  
HETATM   21  O3* UNL     1     -12.175  10.626  68.357  1.00  0.00    -0.822 OA 
HETATM   22  H3* UNL     1     -11.685   9.846  68.590  1.00  0.00     0.000 HD 
HETATM   23  O2* UNL     1      -9.058  11.077  67.655  1.00  0.00    -0.143 OA 
BRANCH  17  24
HETATM   24  C5* UNL     1     -12.256  14.046  69.124  1.00  0.00    -0.262 C  
HETATM   25  O5* UNL     1     -12.401  15.372  68.618  1.00  0.00    -0.564 OA 
HETATM   26  H5* UNL     1     -12.479  15.989  69.336  1.00  0.00     0.000 HD 
ENDBRANCH  17  24
ENDBRANCH  14  15
ENDBRANCH   2   3
TORSDOF 3
ENDMDL
MODEL       82
REMARK 921   NORMALIZED FREE ENERGY PREDICTED BY IDOCK:   -4.68 KCAL/MOL
REMARK 922        TOTAL FREE ENERGY PREDICTED BY IDOCK:   -5.72 KCAL/MOL
REMARK 923 INTER-LIGAND FREE ENERGY PREDICTED BY IDOCK:   -5.57 KCAL/MOL
REMARK 924 INTRA-LIGAND FREE ENERGY PREDICTED BY IDOCK:   -0.15 KCAL/MOL
REMARK 927      BINDING AFFINITY PREDICTED BY RF-SCORE:    0.00 PKD
ROOT
HETATM    1  C   UNL     1     -10.444  15.203  65.215  1.00  0.00    -0.409 C  
HETATM    2  O   UNL     1     -11.345  14.107  65.334  1.00  0.00    -0.308 OA 
ENDROOT
BRANCH   2   3
HETATM    3  C   UNL     1     -11.364  13.599  66.617  1.00  0.00    -0.326 A  
HETATM    4  N   UNL     1     -11.973  14.306  67.605  1.00  0.00    -0.385 NA 
HETATM    5  C   UNL     1     -12.036  13.777  68.831  1.00  0.00    -0.359 A  
HETATM    6  N   UNL     1     -12.764  14.480  69.770  1.00  0.00    -0.550 NA 
HETATM    7  N   UNL     1     -11.566  12.585  69.209  1.00  0.00    -0.302 NA 
HETATM    8  H2  UNL     1     -13.708  14.644  69.419  1.00  0.00     0.000 HD 
HETATM    9  C   UNL     1     -11.008  11.898  68.201  1.00  0.00    -0.227 A  
HETATM   10  H1  UNL     1     -12.812  14.076  70.705  1.00  0.00     0.000 HD 
HETATM   11  C   UNL     1     -10.863  12.326  66.891  1.00  0.00    -0.251 A  
HETATM   12  N   UNL     1     -10.266  11.348  66.126  1.00  0.00    -0.231 NA 
HETATM   13  C   UNL     1     -10.090  10.337  66.948  1.00  0.00    -0.221 A  
HETATM   14  N   UNL     1     -10.537  10.617  68.216  1.00  0.00    -0.180 NA 
BRANCH  14  15
HETATM   15  C1* UNL     1     -10.635   9.631  69.271  1.00  0.00    -0.219 C  
HETATM   16  O4* UNL     1      -9.727  10.023  70.324  1.00  0.00    -0.212 OA 
HETATM   17  C4* UNL     1      -8.582   9.136  70.312  1.00  0.00    -0.198 C  
HETATM   18  H2* UNL     1     -10.507   6.824  67.474  1.00  0.00     0.000 HD 
HETATM   19  C3* UNL     1      -8.883   7.978  69.353  1.00  0.00    -0.144 C  
HETATM   20  C2* UNL     1     -10.348   8.162  68.972  1.00  0.00    -0.218 C  
HETATM   21  O3* UNL     1      -8.702   6.705  69.985  1.00  0.00    -0.139 OA 
HETATM   22  H3* UNL     1      -8.888   5.988  69.391  1.00  0.00     0.000 HD 
HETATM   23  O2* UNL     1     -10.686   7.738  67.660  1.00  0.00    -0.225 OA 
BRANCH  17  24
HETATM   24  C5* UNL     1      -7.326   9.929  69.920  1.00  0.00    -0.147 C  
HETATM   25  O5* UNL     1      -7.697  11.177  69.336  1.00  0.00    -0.321 OA 
HETATM   26  H5* UNL     1      -6.920  11.668  69.093  1.00  0.00     0.000 HD 
ENDBRANCH  17  24
ENDBRANCH  14  15
ENDBRANCH   2   3
TORSDOF 3
ENDMDL
MODEL       83
REMARK 921   NORMALIZED FREE ENERGY PREDICTED BY IDOCK:   -4.67 KCAL/MOL
REMARK 922        TOTAL FREE ENERGY PREDICTED BY IDOCK:   -5.71 KCAL/MOL
REMARK 923 INTER-LIGAND FREE ENERGY PREDICTED BY IDOCK:   -5.71 KCAL/MOL
REMARK 924 INTRA-LIGAND FREE ENERGY PREDICTED BY IDOCK:   -0.00 KCAL/MOL
REMARK 927      BINDING AFFINITY PREDICTED BY RF-SCORE:    0.00 PKD
ROOT
HETATM    1  C   UNL     1      -6.488   8.487  66.870  1.00  0.00    -0.057 C  
HETATM    2  O   UNL     1      -7.685   7.893  66.378  1.00  0.00    -0.092 OA 
ENDROOT
BRANCH   2   3
HETATM    3  C   UNL     1      -8.806   8.452  66.957  1.00  0.00    -0.134 A  
HETATM    4  N   UNL     1      -9.405   7.817  67.999  1.00  0.00    -0.141 NA 
HETATM    5  C   UNL     1     -10.455   8.397  68.589  1.00  0.00    -0.166 A  
HETATM    6  N   UNL     1     -10.955   7.770  69.713  1.00  0.00    -0.389 NA 
HETATM    7  N   UNL     1     -10.995   9.577  68.273  1.00  0.00    -0.139 NA 
HETATM    8  H2  UNL     1     -10.206   7.641  70.394  1.00  0.00     0.000 HD 
HETATM    9  C   UNL     1     -10.355  10.194  67.269  1.00  0.00    -0.237 A  
HETATM   10  H1  UNL     1     -11.756   8.212  70.163  1.00  0.00     0.000 HD 
HETATM   11  C   UNL     1      -9.268   9.707  66.560  1.00  0.00    -0.158 A  
HETATM   12  N   UNL     1      -8.858  10.622  65.615  1.00  0.00    -0.181 NA 
HETATM   13  C   UNL     1      -9.656  11.655  65.776  1.00  0.00    -0.232 A  
HETATM   14  N   UNL     1     -10.574  11.449  66.777  1.00  0.00    -0.244 NA 
BRANCH  14  15
HETATM   15  C1* UNL     1     -11.451  12.479  67.291  1.00  0.00    -0.353 C  
HETATM   16  O4* UNL     1     -12.370  12.838  66.236  1.00  0.00    -0.521 OA 
HETATM   17  C4* UNL     1     -12.003  14.138  65.714  1.00  0.00    -0.402 C  
HETATM   18  H2* UNL     1      -9.219  14.481  68.754  1.00  0.00     0.000 HD 
HETATM   19  C3* UNL     1     -10.936  14.741  66.636  1.00  0.00    -0.326 C  
HETATM   20  C2* UNL     1     -10.864  13.785  67.821  1.00  0.00    -0.250 C  
HETATM   21  O3* UNL     1     -11.305  16.050  67.089  1.00  0.00    -0.093 OA 
HETATM   22  H3* UNL     1     -10.643  16.423  67.659  1.00  0.00     0.000 HD 
HETATM   23  O2* UNL     1      -9.584  13.668  68.424  1.00  0.00    -0.216 OA 
BRANCH  17  24
HETATM   24  C5* UNL     1     -11.526  13.988  64.261  1.00  0.00    -0.297 C  
HETATM   25  O5* UNL     1     -12.466  14.589  63.372  1.00  0.00    -1.080 OA 
HETATM   26  H5* UNL     1     -12.171  14.496  62.474  1.00  0.00     0.000 HD 
ENDBRANCH  17  24
ENDBRANCH  14  15
ENDBRANCH   2   3
TORSDOF 3
ENDMDL
MODEL       84
REMARK 921   NORMALIZED FREE ENERGY PREDICTED BY IDOCK:   -4.65 KCAL/MOL
REMARK 922        TOTAL FREE ENERGY PREDICTED BY IDOCK:   -5.69 KCAL/MOL
REMARK 923 INTER-LIGAND FREE ENERGY PREDICTED BY IDOCK:   -5.51 KCAL/MOL
REMARK 924 INTRA-LIGAND FREE ENERGY PREDICTED BY IDOCK:   -0.18 KCAL/MOL
REMARK 927      BINDING AFFINITY PREDICTED BY RF-SCORE:    0.00 PKD
ROOT
HETATM    1  C   UNL     1      -9.686   9.720  65.370  1.00  0.00    -0.313 C  
HETATM    2  O   UNL     1     -10.848  10.540  65.295  1.00  0.00    -0.053 OA 
ENDROOT
BRANCH   2   3
HETATM    3  C   UNL     1     -11.024  11.282  66.446  1.00  0.00    -0.227 A  
HETATM    4  N   UNL     1     -11.757  10.765  67.466  1.00  0.00    -0.423 NA 
HETATM    5  C   UNL     1     -11.872  11.468  68.597  1.00  0.00    -0.318 A  
HETATM    6  N   UNL     1     -12.529  10.851  69.643  1.00  0.00    -0.447 NA 
HETATM    7  N   UNL     1     -11.317  12.655  68.858  1.00  0.00    -0.278 NA 
HETATM    8  H2  UNL     1     -12.089   9.952  69.841  1.00  0.00     0.000 HD 
HETATM    9  C   UNL     1     -10.567  13.116  67.845  1.00  0.00    -0.234 A  
HETATM   10  H1  UNL     1     -12.616  11.387  70.506  1.00  0.00     0.000 HD 
HETATM   11  C   UNL     1     -10.372  12.504  66.617  1.00  0.00    -0.227 A  
HETATM   12  N   UNL     1      -9.523  13.254  65.833  1.00  0.00    -0.104 NA 
HETATM   13  C   UNL     1      -9.183  14.277  66.586  1.00  0.00    -0.255 A  
HETATM   14  N   UNL     1      -9.780  14.231  67.822  1.00  0.00    -0.218 NA 
BRANCH  14  15
HETATM   15  C1* UNL     1      -9.447  15.123  68.911  1.00  0.00    -0.213 C  
HETATM   16  O4* UNL     1     -10.361  16.240  68.860  1.00  0.00    -0.232 OA 
HETATM   17  C4* UNL     1      -9.653  17.407  68.376  1.00  0.00    -0.292 C  
HETATM   18  H2* UNL     1      -6.130  15.250  68.578  1.00  0.00     0.000 HD 
HETATM   19  C3* UNL     1      -8.157  17.075  68.334  1.00  0.00    -0.245 C  
HETATM   20  C2* UNL     1      -8.042  15.714  69.010  1.00  0.00    -0.222 C  
HETATM   21  O3* UNL     1      -7.380  18.042  69.052  1.00  0.00    -0.262 OA 
HETATM   22  H3* UNL     1      -6.453  17.837  69.025  1.00  0.00     0.000 HD 
HETATM   23  O2* UNL     1      -7.003  14.882  68.516  1.00  0.00    -0.099 OA 
BRANCH  17  24
HETATM   24  C5* UNL     1     -10.217  17.813  67.005  1.00  0.00    -0.346 C  
HETATM   25  O5* UNL     1      -9.160  17.920  66.053  1.00  0.00    -0.504 OA 
HETATM   26  H5* UNL     1      -9.509  18.171  65.205  1.00  0.00     0.000 HD 
ENDBRANCH  17  24
ENDBRANCH  14  15
ENDBRANCH   2   3
TORSDOF 3
ENDMDL
MODEL       85
REMARK 921   NORMALIZED FREE ENERGY PREDICTED BY IDOCK:   -4.63 KCAL/MOL
REMARK 922        TOTAL FREE ENERGY PREDICTED BY IDOCK:   -5.67 KCAL/MOL
REMARK 923 INTER-LIGAND FREE ENERGY PREDICTED BY IDOCK:   -5.58 KCAL/MOL
REMARK 924 INTRA-LIGAND FREE ENERGY PREDICTED BY IDOCK:   -0.08 KCAL/MOL
REMARK 927      BINDING AFFINITY PREDICTED BY RF-SCORE:    0.00 PKD
ROOT
HETATM    1  C   UNL     1     -12.766  14.096  65.270  1.00  0.00    -0.403 C  
HETATM    2  O   UNL     1     -12.237  13.285  66.314  1.00  0.00    -0.409 OA 
ENDROOT
BRANCH   2   3
HETATM    3  C   UNL     1     -11.479  12.244  65.816  1.00  0.00    -0.367 A  
HETATM    4  N   UNL     1     -11.108  12.256  64.509  1.00  0.00    -0.306 NA 
HETATM    5  C   UNL     1     -10.325  11.272  64.052  1.00  0.00    -0.371 A  
HETATM    6  N   UNL     1      -9.882  11.391  62.751  1.00  0.00    -0.608 NA 
HETATM    7  N   UNL     1      -9.835  10.251  64.760  1.00  0.00    -0.328 NA 
HETATM    8  H2  UNL     1      -9.411  12.288  62.630  1.00  0.00     0.000 HD 
HETATM    9  C   UNL     1     -10.188  10.293  66.054  1.00  0.00    -0.228 A  
HETATM   10  H1  UNL     1      -9.285  10.640  62.403  1.00  0.00     0.000 HD 
HETATM   11  C   UNL     1     -11.001  11.240  66.658  1.00  0.00    -0.268 A  
HETATM   12  N   UNL     1     -11.127  10.980  68.005  1.00  0.00    -0.262 NA 
HETATM   13  C   UNL     1     -10.375   9.922  68.217  1.00  0.00    -0.201 A  
HETATM   14  N   UNL     1      -9.773   9.475  67.066  1.00  0.00    -0.167 NA 
BRANCH  14  15
HETATM   15  C1* UNL     1      -8.755   8.447  67.035  1.00  0.00    -0.126 C  
HETATM   16  O4* UNL     1      -9.372   7.233  66.553  1.00  0.00    -0.167 OA 
HETATM   17  C4* UNL     1      -9.531   6.314  67.661  1.00  0.00    -0.115 C  
HETATM   18  H2* UNL     1      -7.351   8.916  70.025  1.00  0.00     0.000 HD 
HETATM   19  C3* UNL     1      -8.769   6.879  68.865  1.00  0.00    -0.130 C  
HETATM   20  C2* UNL     1      -8.006   8.078  68.313  1.00  0.00    -0.128 C  
HETATM   21  O3* UNL     1      -7.848   5.923  69.405  1.00  0.00    -0.091 OA 
HETATM   22  H3* UNL     1      -7.376   6.274  70.152  1.00  0.00     0.000 HD 
HETATM   23  O2* UNL     1      -7.817   9.146  69.230  1.00  0.00    -0.090 OA 
BRANCH  17  24
HETATM   24  C5* UNL     1     -11.028   6.107  67.941  1.00  0.00    -0.304 C  
HETATM   25  O5* UNL     1     -11.410   6.823  69.115  1.00  0.00    -0.514 OA 
HETATM   26  H5* UNL     1     -12.336   6.695  69.288  1.00  0.00     0.000 HD 
ENDBRANCH  17  24
ENDBRANCH  14  15
ENDBRANCH   2   3
TORSDOF 3
ENDMDL
MODEL       86
REMARK 921   NORMALIZED FREE ENERGY PREDICTED BY IDOCK:   -4.62 KCAL/MOL
REMARK 922        TOTAL FREE ENERGY PREDICTED BY IDOCK:   -5.66 KCAL/MOL
REMARK 923 INTER-LIGAND FREE ENERGY PREDICTED BY IDOCK:   -5.99 KCAL/MOL
REMARK 924 INTRA-LIGAND FREE ENERGY PREDICTED BY IDOCK:    0.33 KCAL/MOL
REMARK 927      BINDING AFFINITY PREDICTED BY RF-SCORE:    0.00 PKD
ROOT
HETATM    1  C   UNL     1      -9.695  19.335  68.774  1.00  0.00    -0.446 C  
HETATM    2  O   UNL     1     -10.499  18.288  69.309  1.00  0.00    -0.101 OA 
ENDROOT
BRANCH   2   3
HETATM    3  C   UNL     1     -10.585  17.218  68.441  1.00  0.00    -0.368 A  
HETATM    4  N   UNL     1      -9.938  17.274  67.248  1.00  0.00    -0.274 NA 
HETATM    5  C   UNL     1      -9.981  16.208  66.441  1.00  0.00    -0.299 A  
HETATM    6  N   UNL     1      -9.214  16.270  65.296  1.00  0.00     0.008 NA 
HETATM    7  N   UNL     1     -10.596  15.048  66.687  1.00  0.00    -0.295 NA 
HETATM    8  H2  UNL     1      -8.245  16.474  65.542  1.00  0.00     0.000 HD 
HETATM    9  C   UNL     1     -11.189  15.014  67.890  1.00  0.00    -0.323 A  
HETATM   10  H1  UNL     1      -9.247  15.458  64.680  1.00  0.00     0.000 HD 
HETATM   11  C   UNL     1     -11.236  16.043  68.817  1.00  0.00    -0.360 A  
HETATM   12  N   UNL     1     -11.911  15.642  69.949  1.00  0.00    -0.361 NA 
HETATM   13  C   UNL     1     -12.231  14.386  69.726  1.00  0.00    -0.321 A  
HETATM   14  N   UNL     1     -11.803  13.954  68.495  1.00  0.00    -0.351 NA 
BRANCH  14  15
HETATM   15  C1* UNL     1     -11.855  12.575  68.062  1.00  0.00    -0.325 C  
HETATM   16  O4* UNL     1     -10.723  11.890  68.641  1.00  0.00    -0.220 OA 
HETATM   17  C4* UNL     1      -9.745  11.635  67.603  1.00  0.00    -0.180 C  
HETATM   18  H2* UNL     1     -12.477  12.997  64.812  1.00  0.00     0.000 HD 
HETATM   19  C3* UNL     1     -10.385  11.969  66.251  1.00  0.00    -0.221 C  
HETATM   20  C2* UNL     1     -11.850  12.242  66.572  1.00  0.00    -0.306 C  
HETATM   21  O3* UNL     1     -10.285  10.873  65.332  1.00  0.00    -0.257 OA 
HETATM   22  H3* UNL     1     -10.681  11.081  64.494  1.00  0.00     0.000 HD 
HETATM   23  O2* UNL     1     -12.480  13.204  65.739  1.00  0.00    -0.443 OA 
BRANCH  17  24
HETATM   24  C5* UNL     1      -8.476  12.454  67.886  1.00  0.00    -0.166 C  
HETATM   25  O5* UNL     1      -8.031  13.095  66.692  1.00  0.00    -0.379 OA 
HETATM   26  H5* UNL     1      -7.246  13.602  66.867  1.00  0.00     0.000 HD 
ENDBRANCH  17  24
ENDBRANCH  14  15
ENDBRANCH   2   3
TORSDOF 3
ENDMDL
MODEL       87
REMARK 921   NORMALIZED FREE ENERGY PREDICTED BY IDOCK:   -4.62 KCAL/MOL
REMARK 922        TOTAL FREE ENERGY PREDICTED BY IDOCK:   -5.65 KCAL/MOL
REMARK 923 INTER-LIGAND FREE ENERGY PREDICTED BY IDOCK:   -6.10 KCAL/MOL
REMARK 924 INTRA-LIGAND FREE ENERGY PREDICTED BY IDOCK:    0.45 KCAL/MOL
REMARK 927      BINDING AFFINITY PREDICTED BY RF-SCORE:    0.00 PKD
ROOT
HETATM    1  C   UNL     1      -7.881   7.770  65.973  1.00  0.00    -0.100 C  
HETATM    2  O   UNL     1      -9.258   7.951  66.291  1.00  0.00    -0.181 OA 
ENDROOT
BRANCH   2   3
HETATM    3  C   UNL     1      -9.705   9.203  65.920  1.00  0.00    -0.266 A  
HETATM    4  N   UNL     1      -9.749   9.532  64.602  1.00  0.00     0.009 NA 
HETATM    5  C   UNL     1     -10.238  10.726  64.252  1.00  0.00    -0.354 A  
HETATM    6  N   UNL     1     -10.368  10.967  62.899  1.00  0.00    -0.782 NA 
HETATM    7  N   UNL     1     -10.723  11.661  65.074  1.00  0.00    -0.288 NA 
HETATM    8  H2  UNL     1     -10.927  10.228  62.472  1.00  0.00     0.000 HD 
HETATM    9  C   UNL     1     -10.703  11.286  66.363  1.00  0.00    -0.267 A  
HETATM   10  H1  UNL     1     -10.742  11.877  62.632  1.00  0.00     0.000 HD 
HETATM   11  C   UNL     1     -10.214  10.092  66.868  1.00  0.00    -0.238 A  
HETATM   12  N   UNL     1     -10.377  10.042  68.235  1.00  0.00    -0.183 NA 
HETATM   13  C   UNL     1     -10.988  11.166  68.543  1.00  0.00    -0.220 A  
HETATM   14  N   UNL     1     -11.219  11.949  67.439  1.00  0.00    -0.284 NA 
BRANCH  14  15
HETATM   15  C1* UNL     1     -12.030  13.147  67.456  1.00  0.00    -0.317 C  
HETATM   16  O4* UNL     1     -11.620  13.971  66.344  1.00  0.00    -0.339 OA 
HETATM   17  C4* UNL     1     -10.866  15.100  66.848  1.00  0.00    -0.317 C  
HETATM   18  H2* UNL     1     -11.850  13.936  70.693  1.00  0.00     0.000 HD 
HETATM   19  C3* UNL     1     -10.997  15.121  68.375  1.00  0.00    -0.271 C  
HETATM   20  C2* UNL     1     -12.033  14.048  68.689  1.00  0.00    -0.354 C  
HETATM   21  O3* UNL     1     -11.455  16.393  68.851  1.00  0.00    -0.311 OA 
HETATM   22  H3* UNL     1     -11.535  16.405  69.797  1.00  0.00     0.000 HD 
HETATM   23  O2* UNL     1     -11.848  13.375  69.926  1.00  0.00    -0.309 OA 
BRANCH  17  24
HETATM   24  C5* UNL     1      -9.408  14.993  66.372  1.00  0.00    -0.303 C  
HETATM   25  O5* UNL     1      -8.987  16.230  65.800  1.00  0.00    -0.425 OA 
HETATM   26  H5* UNL     1      -8.086  16.164  65.506  1.00  0.00     0.000 HD 
ENDBRANCH  17  24
ENDBRANCH  14  15
ENDBRANCH   2   3
TORSDOF 3
ENDMDL
MODEL       88
REMARK 921   NORMALIZED FREE ENERGY PREDICTED BY IDOCK:   -4.57 KCAL/MOL
REMARK 922        TOTAL FREE ENERGY PREDICTED BY IDOCK:   -5.60 KCAL/MOL
REMARK 923 INTER-LIGAND FREE ENERGY PREDICTED BY IDOCK:   -6.18 KCAL/MOL
REMARK 924 INTRA-LIGAND FREE ENERGY PREDICTED BY IDOCK:    0.58 KCAL/MOL
REMARK 927      BINDING AFFINITY PREDICTED BY RF-SCORE:    0.00 PKD
ROOT
HETATM    1  C   UNL     1     -12.651  11.956  63.374  1.00  0.00    -0.431 C  
HETATM    2  O   UNL     1     -11.809  12.993  63.867  1.00  0.00    -0.411 OA 
ENDROOT
BRANCH   2   3
HETATM    3  C   UNL     1     -11.662  12.921  65.238  1.00  0.00    -0.364 A  
HETATM    4  N   UNL     1     -11.775  11.718  65.858  1.00  0.00    -0.384 NA 
HETATM    5  C   UNL     1     -11.573  11.651  67.178  1.00  0.00    -0.212 A  
HETATM    6  N   UNL     1     -11.586  10.391  67.742  1.00  0.00    -0.653 NA 
HETATM    7  N   UNL     1     -11.245  12.664  67.986  1.00  0.00    -0.247 NA 
HETATM    8  H2  UNL     1     -10.912   9.794  67.261  1.00  0.00     0.000 HD 
HETATM    9  C   UNL     1     -11.102  13.828  67.334  1.00  0.00    -0.296 A  
HETATM   10  H1  UNL     1     -11.432  10.341  68.749  1.00  0.00     0.000 HD 
HETATM   11  C   UNL     1     -11.293  14.044  65.979  1.00  0.00    -0.328 A  
HETATM   12  N   UNL     1     -11.033  15.359  65.658  1.00  0.00    -0.337 NA 
HETATM   13  C   UNL     1     -10.656  15.915  66.789  1.00  0.00    -0.309 A  
HETATM   14  N   UNL     1     -10.668  15.022  67.833  1.00  0.00    -0.262 NA 
BRANCH  14  15
HETATM   15  C1* UNL     1     -10.129  15.310  69.145  1.00  0.00    -0.240 C  
HETATM   16  O4* UNL     1     -10.501  14.223  70.020  1.00  0.00     0.194 OA 
HETATM   17  C4* UNL     1     -11.542  14.677  70.919  1.00  0.00    -0.225 C  
HETATM   18  H2* UNL     1     -11.015  18.511  69.460  1.00  0.00     0.000 HD 
HETATM   19  C3* UNL     1     -11.680  16.196  70.764  1.00  0.00    -0.302 C  
HETATM   20  C2* UNL     1     -10.519  16.600  69.863  1.00  0.00    -0.105 C  
HETATM   21  O3* UNL     1     -11.576  16.870  72.024  1.00  0.00    -0.487 OA 
HETATM   22  H3* UNL     1     -11.662  17.811  71.927  1.00  0.00     0.000 HD 
HETATM   23  O2* UNL     1     -10.773  17.708  69.013  1.00  0.00    -0.186 OA 
BRANCH  17  24
HETATM   24  C5* UNL     1     -12.845  13.921  70.614  1.00  0.00    -0.222 C  
HETATM   25  O5* UNL     1     -13.822  14.205  71.614  1.00  0.00    -0.374 OA 
HETATM   26  H5* UNL     1     -14.627  13.738  71.426  1.00  0.00     0.000 HD 
ENDBRANCH  17  24
ENDBRANCH  14  15
ENDBRANCH   2   3
TORSDOF 3
ENDMDL
MODEL       89
REMARK 921   NORMALIZED FREE ENERGY PREDICTED BY IDOCK:   -4.57 KCAL/MOL
REMARK 922        TOTAL FREE ENERGY PREDICTED BY IDOCK:   -5.60 KCAL/MOL
REMARK 923 INTER-LIGAND FREE ENERGY PREDICTED BY IDOCK:   -5.46 KCAL/MOL
REMARK 924 INTRA-LIGAND FREE ENERGY PREDICTED BY IDOCK:   -0.14 KCAL/MOL
REMARK 927      BINDING AFFINITY PREDICTED BY RF-SCORE:    0.00 PKD
ROOT
HETATM    1  C   UNL     1     -10.126  12.366  65.605  1.00  0.00    -0.257 C  
HETATM    2  O   UNL     1     -11.383  11.899  66.084  1.00  0.00    -0.332 OA 
ENDROOT
BRANCH   2   3
HETATM    3  C   UNL     1     -11.423  11.872  67.464  1.00  0.00    -0.326 A  
HETATM    4  N   UNL     1     -11.885  12.958  68.138  1.00  0.00    -0.348 NA 
HETATM    5  C   UNL     1     -11.975  12.899  69.471  1.00  0.00    -0.285 A  
HETATM    6  N   UNL     1     -12.557  13.981  70.099  1.00  0.00    -0.339 NA 
HETATM    7  N   UNL     1     -11.667  11.853  70.244  1.00  0.00    -0.268 NA 
HETATM    8  H2  UNL     1     -13.481  14.152  69.700  1.00  0.00     0.000 HD 
HETATM    9  C   UNL     1     -11.254  10.787  69.543  1.00  0.00    -0.281 A  
HETATM   10  H1  UNL     1     -12.625  13.936  71.115  1.00  0.00     0.000 HD 
HETATM   11  C   UNL     1     -11.100  10.712  68.167  1.00  0.00    -0.285 A  
HETATM   12  N   UNL     1     -10.680   9.453  67.796  1.00  0.00    -0.257 NA 
HETATM   13  C   UNL     1     -10.619   8.772  68.919  1.00  0.00    -0.155 A  
HETATM   14  N   UNL     1     -10.971   9.534  70.006  1.00  0.00    -0.242 NA 
BRANCH  14  15
HETATM   15  C1* UNL     1     -11.168   8.998  71.336  1.00  0.00    -0.324 C  
HETATM   16  O4* UNL     1      -9.947   9.208  72.079  1.00  0.00    -0.263 OA 
HETATM   17  C4* UNL     1      -9.266   7.939  72.233  1.00  0.00    -0.165 C  
HETATM   18  H2* UNL     1     -12.565   6.062  70.589  1.00  0.00     0.000 HD 
HETATM   19  C3* UNL     1     -10.212   6.828  71.763  1.00  0.00    -0.190 C  
HETATM   20  C2* UNL     1     -11.542   7.529  71.518  1.00  0.00    -0.272 C  
HETATM   21  O3* UNL     1     -10.374   5.813  72.762  1.00  0.00    -0.180 OA 
HETATM   22  H3* UNL     1     -10.959   5.124  72.470  1.00  0.00     0.000 HD 
HETATM   23  O2* UNL     1     -12.332   6.976  70.476  1.00  0.00    -0.267 OA 
BRANCH  17  24
HETATM   24  C5* UNL     1      -7.944   7.973  71.450  1.00  0.00    -0.102 C  
HETATM   25  O5* UNL     1      -7.464   9.314  71.355  1.00  0.00    -0.316 OA 
HETATM   26  H5* UNL     1      -6.647   9.334  70.871  1.00  0.00     0.000 HD 
ENDBRANCH  17  24
ENDBRANCH  14  15
ENDBRANCH   2   3
TORSDOF 3
ENDMDL
MODEL       90
REMARK 921   NORMALIZED FREE ENERGY PREDICTED BY IDOCK:   -4.56 KCAL/MOL
REMARK 922        TOTAL FREE ENERGY PREDICTED BY IDOCK:   -5.58 KCAL/MOL
REMARK 923 INTER-LIGAND FREE ENERGY PREDICTED BY IDOCK:   -5.85 KCAL/MOL
REMARK 924 INTRA-LIGAND FREE ENERGY PREDICTED BY IDOCK:    0.26 KCAL/MOL
REMARK 927      BINDING AFFINITY PREDICTED BY RF-SCORE:    0.00 PKD
ROOT
HETATM    1  C   UNL     1      -5.976  13.455  70.189  1.00  0.00    -0.139 C  
HETATM    2  O   UNL     1      -5.802  13.671  68.792  1.00  0.00    -0.078 OA 
ENDROOT
BRANCH   2   3
HETATM    3  C   UNL     1      -6.922  13.302  68.076  1.00  0.00    -0.120 A  
HETATM    4  N   UNL     1      -7.378  12.025  68.164  1.00  0.00    -0.086 NA 
HETATM    5  C   UNL     1      -8.498  11.694  67.512  1.00  0.00    -0.150 A  
HETATM    6  N   UNL     1      -8.982  10.419  67.726  1.00  0.00    -0.131 NA 
HETATM    7  N   UNL     1      -9.256  12.505  66.769  1.00  0.00    -0.214 NA 
HETATM    8  H2  UNL     1      -9.110  10.265  68.726  1.00  0.00     0.000 HD 
HETATM    9  C   UNL     1      -8.799  13.766  66.738  1.00  0.00    -0.138 A  
HETATM   10  H1  UNL     1      -9.836  10.167  67.228  1.00  0.00     0.000 HD 
HETATM   11  C   UNL     1      -7.652  14.244  67.351  1.00  0.00    -0.163 A  
HETATM   12  N   UNL     1      -7.509  15.596  67.123  1.00  0.00    -0.218 NA 
HETATM   13  C   UNL     1      -8.568  15.933  66.419  1.00  0.00    -0.328 A  
HETATM   14  N   UNL     1      -9.389  14.860  66.171  1.00  0.00    -0.292 NA 
BRANCH  14  15
HETATM   15  C1* UNL     1     -10.705  14.971  65.582  1.00  0.00    -0.354 C  
HETATM   16  O4* UNL     1     -11.664  15.049  66.660  1.00  0.00    -0.278 OA 
HETATM   17  C4* UNL     1     -12.378  13.792  66.746  1.00  0.00    -0.321 C  
HETATM   18  H2* UNL     1     -10.515  12.589  63.254  1.00  0.00     0.000 HD 
HETATM   19  C3* UNL     1     -12.018  12.951  65.515  1.00  0.00    -0.436 C  
HETATM   20  C2* UNL     1     -11.208  13.890  64.629  1.00  0.00    -0.378 C  
HETATM   21  O3* UNL     1     -13.188  12.510  64.815  1.00  0.00    -0.839 OA 
HETATM   22  H3* UNL     1     -12.965  11.988  64.053  1.00  0.00     0.000 HD 
HETATM   23  O2* UNL     1     -10.202  13.262  63.847  1.00  0.00    -0.322 OA 
BRANCH  17  24
HETATM   24  C5* UNL     1     -12.028  13.096  68.071  1.00  0.00    -0.304 C  
HETATM   25  O5* UNL     1     -12.221  11.688  67.951  1.00  0.00    -0.560 OA 
HETATM   26  H5* UNL     1     -12.005  11.258  68.770  1.00  0.00     0.000 HD 
ENDBRANCH  17  24
ENDBRANCH  14  15
ENDBRANCH   2   3
TORSDOF 3
ENDMDL
MODEL       91
REMARK 921   NORMALIZED FREE ENERGY PREDICTED BY IDOCK:   -4.55 KCAL/MOL
REMARK 922        TOTAL FREE ENERGY PREDICTED BY IDOCK:   -5.57 KCAL/MOL
REMARK 923 INTER-LIGAND FREE ENERGY PREDICTED BY IDOCK:   -5.55 KCAL/MOL
REMARK 924 INTRA-LIGAND FREE ENERGY PREDICTED BY IDOCK:   -0.02 KCAL/MOL
REMARK 927      BINDING AFFINITY PREDICTED BY RF-SCORE:    0.00 PKD
ROOT
HETATM    1  C   UNL     1      -6.083  12.484  69.775  1.00  0.00    -0.134 C  
HETATM    2  O   UNL     1      -6.305  12.298  68.381  1.00  0.00    -0.050 OA 
ENDROOT
BRANCH   2   3
HETATM    3  C   UNL     1      -7.543  12.770  67.994  1.00  0.00    -0.131 A  
HETATM    4  N   UNL     1      -8.641  11.995  68.185  1.00  0.00    -0.167 NA 
HETATM    5  C   UNL     1      -9.842  12.486  67.859  1.00  0.00    -0.207 A  
HETATM    6  N   UNL     1     -10.935  11.706  68.179  1.00  0.00    -0.211 NA 
HETATM    7  N   UNL     1     -10.098  13.701  67.366  1.00  0.00    -0.239 NA 
HETATM    8  H2  UNL     1     -10.915  11.480  69.173  1.00  0.00     0.000 HD 
HETATM    9  C   UNL     1      -8.996  14.454  67.229  1.00  0.00    -0.212 A  
HETATM   10  H1  UNL     1     -11.851  12.081  67.931  1.00  0.00     0.000 HD 
HETATM   11  C   UNL     1      -7.694  14.071  67.511  1.00  0.00    -0.182 A  
HETATM   12  N   UNL     1      -6.822  15.110  67.273  1.00  0.00    -0.268 NA 
HETATM   13  C   UNL     1      -7.586  16.111  66.892  1.00  0.00    -0.240 A  
HETATM   14  N   UNL     1      -8.915  15.766  66.862  1.00  0.00    -0.221 NA 
BRANCH  14  15
HETATM   15  C1* UNL     1      -9.989  16.714  66.658  1.00  0.00    -0.283 C  
HETATM   16  O4* UNL     1      -9.506  17.737  65.759  1.00  0.00    -0.518 OA 
HETATM   17  C4* UNL     1      -9.274  18.953  66.511  1.00  0.00    -0.331 C  
HETATM   18  H2* UNL     1     -11.002  17.148  69.806  1.00  0.00     0.000 HD 
HETATM   19  C3* UNL     1      -9.854  18.765  67.917  1.00  0.00    -0.341 C  
HETATM   20  C2* UNL     1     -10.603  17.439  67.853  1.00  0.00    -0.383 C  
HETATM   21  O3* UNL     1     -10.761  19.819  68.261  1.00  0.00    -0.399 OA 
HETATM   22  H3* UNL     1     -11.120  19.703  69.133  1.00  0.00     0.000 HD 
HETATM   23  O2* UNL     1     -10.620  16.696  69.063  1.00  0.00    -0.298 OA 
BRANCH  17  24
HETATM   24  C5* UNL     1      -7.769  19.267  66.519  1.00  0.00    -0.272 C  
HETATM   25  O5* UNL     1      -7.212  19.032  65.227  1.00  0.00    -0.466 OA 
HETATM   26  H5* UNL     1      -6.283  19.227  65.232  1.00  0.00     0.000 HD 
ENDBRANCH  17  24
ENDBRANCH  14  15
ENDBRANCH   2   3
TORSDOF 3
ENDMDL
MODEL       92
REMARK 921   NORMALIZED FREE ENERGY PREDICTED BY IDOCK:   -4.54 KCAL/MOL
REMARK 922        TOTAL FREE ENERGY PREDICTED BY IDOCK:   -5.56 KCAL/MOL
REMARK 923 INTER-LIGAND FREE ENERGY PREDICTED BY IDOCK:   -5.92 KCAL/MOL
REMARK 924 INTRA-LIGAND FREE ENERGY PREDICTED BY IDOCK:    0.36 KCAL/MOL
REMARK 927      BINDING AFFINITY PREDICTED BY RF-SCORE:    0.00 PKD
ROOT
HETATM    1  C   UNL     1     -10.119  17.711  66.213  1.00  0.00    -0.341 C  
HETATM    2  O   UNL     1      -9.414  16.639  65.596  1.00  0.00    -0.511 OA 
ENDROOT
BRANCH   2   3
HETATM    3  C   UNL     1     -10.137  15.463  65.638  1.00  0.00    -0.376 A  
HETATM    4  N   UNL     1     -11.008  15.180  64.635  1.00  0.00    -0.355 NA 
HETATM    5  C   UNL     1     -11.660  14.013  64.657  1.00  0.00    -0.392 A  
HETATM    6  N   UNL     1     -12.444  13.723  63.559  1.00  0.00    -1.020 NA 
HETATM    7  N   UNL     1     -11.538  13.050  65.575  1.00  0.00    -0.332 NA 
HETATM    8  H2  UNL     1     -11.881  13.785  62.710  1.00  0.00     0.000 HD 
HETATM    9  C   UNL     1     -10.640  13.346  66.528  1.00  0.00    -0.287 A  
HETATM   10  H1  UNL     1     -12.940  12.832  63.576  1.00  0.00     0.000 HD 
HETATM   11  C   UNL     1      -9.907  14.517  66.637  1.00  0.00    -0.273 A  
HETATM   12  N   UNL     1      -9.066  14.461  67.727  1.00  0.00    -0.186 NA 
HETATM   13  C   UNL     1      -9.260  13.266  68.242  1.00  0.00    -0.197 A  
HETATM   14  N   UNL     1     -10.196  12.546  67.541  1.00  0.00    -0.215 NA 
BRANCH  14  15
HETATM   15  C1* UNL     1     -10.472  11.144  67.772  1.00  0.00    -0.193 C  
HETATM   16  O4* UNL     1      -9.780  10.753  68.978  1.00  0.00    -0.197 OA 
HETATM   17  C4* UNL     1      -8.639   9.935  68.621  1.00  0.00    -0.119 C  
HETATM   18  H2* UNL     1      -9.972   9.930  64.705  1.00  0.00     0.000 HD 
HETATM   19  C3* UNL     1      -8.740   9.597  67.129  1.00  0.00    -0.132 C  
HETATM   20  C2* UNL     1     -10.112  10.111  66.708  1.00  0.00    -0.219 C  
HETATM   21  O3* UNL     1      -8.659   8.184  66.899  1.00  0.00    -0.120 OA 
HETATM   22  H3* UNL     1      -8.721   7.975  65.975  1.00  0.00     0.000 HD 
HETATM   23  O2* UNL     1     -10.196  10.573  65.368  1.00  0.00    -0.286 OA 
BRANCH  17  24
HETATM   24  C5* UNL     1      -7.344  10.681  68.981  1.00  0.00    -0.108 C  
HETATM   25  O5* UNL     1      -6.469  10.714  67.855  1.00  0.00    -0.058 OA 
HETATM   26  H5* UNL     1      -5.669  11.175  68.077  1.00  0.00     0.000 HD 
ENDBRANCH  17  24
ENDBRANCH  14  15
ENDBRANCH   2   3
TORSDOF 3
ENDMDL
MODEL       93
REMARK 921   NORMALIZED FREE ENERGY PREDICTED BY IDOCK:   -4.51 KCAL/MOL
REMARK 922        TOTAL FREE ENERGY PREDICTED BY IDOCK:   -5.52 KCAL/MOL
REMARK 923 INTER-LIGAND FREE ENERGY PREDICTED BY IDOCK:   -5.38 KCAL/MOL
REMARK 924 INTRA-LIGAND FREE ENERGY PREDICTED BY IDOCK:   -0.14 KCAL/MOL
REMARK 927      BINDING AFFINITY PREDICTED BY RF-SCORE:    0.00 PKD
ROOT
HETATM    1  C   UNL     1     -10.018   4.721  69.733  1.00  0.00    -0.238 C  
HETATM    2  O   UNL     1     -11.004   5.747  69.699  1.00  0.00    -0.354 OA 
ENDROOT
BRANCH   2   3
HETATM    3  C   UNL     1     -10.433   7.003  69.666  1.00  0.00    -0.223 A  
HETATM    4  N   UNL     1      -9.803   7.479  70.772  1.00  0.00    -0.178 NA 
HETATM    5  C   UNL     1      -9.203   8.672  70.709  1.00  0.00    -0.185 A  
HETATM    6  N   UNL     1      -8.481   9.058  71.820  1.00  0.00    -0.350 NA 
HETATM    7  N   UNL     1      -9.134   9.474  69.643  1.00  0.00    -0.181 NA 
HETATM    8  H2  UNL     1      -7.793   8.340  72.049  1.00  0.00     0.000 HD 
HETATM    9  C   UNL     1      -9.730   8.955  68.558  1.00  0.00    -0.161 A  
HETATM   10  H1  UNL     1      -8.023   9.969  71.772  1.00  0.00     0.000 HD 
HETATM   11  C   UNL     1     -10.398   7.743  68.483  1.00  0.00    -0.197 A  
HETATM   12  N   UNL     1     -10.863   7.526  67.205  1.00  0.00    -0.300 NA 
HETATM   13  C   UNL     1     -10.450   8.566  66.514  1.00  0.00    -0.034 A  
HETATM   14  N   UNL     1      -9.746   9.455  67.288  1.00  0.00    -0.157 NA 
BRANCH  14  15
HETATM   15  C1* UNL     1      -9.023  10.590  66.756  1.00  0.00    -0.137 C  
HETATM   16  O4* UNL     1      -9.603  11.785  67.323  1.00  0.00    -0.174 OA 
HETATM   17  C4* UNL     1     -10.378  12.462  66.304  1.00  0.00    -0.244 C  
HETATM   18  H2* UNL     1      -8.923   9.766  63.525  1.00  0.00     0.000 HD 
HETATM   19  C3* UNL     1     -10.092  11.787  64.958  1.00  0.00    -0.263 C  
HETATM   20  C2* UNL     1      -8.956  10.812  65.247  1.00  0.00    -0.194 C  
HETATM   21  O3* UNL     1      -9.677  12.736  63.967  1.00  0.00    -0.645 OA 
HETATM   22  H3* UNL     1      -9.501  12.318  63.133  1.00  0.00     0.000 HD 
HETATM   23  O2* UNL     1      -8.965   9.628  64.464  1.00  0.00    -0.214 OA 
BRANCH  17  24
HETATM   24  C5* UNL     1     -11.866  12.427  66.689  1.00  0.00    -0.325 C  
HETATM   25  O5* UNL     1     -12.063  11.564  67.808  1.00  0.00    -0.626 OA 
HETATM   26  H5* UNL     1     -12.982  11.543  68.045  1.00  0.00     0.000 HD 
ENDBRANCH  17  24
ENDBRANCH  14  15
ENDBRANCH   2   3
TORSDOF 3
ENDMDL
MODEL       94
REMARK 921   NORMALIZED FREE ENERGY PREDICTED BY IDOCK:   -4.51 KCAL/MOL
REMARK 922        TOTAL FREE ENERGY PREDICTED BY IDOCK:   -5.52 KCAL/MOL
REMARK 923 INTER-LIGAND FREE ENERGY PREDICTED BY IDOCK:   -5.38 KCAL/MOL
REMARK 924 INTRA-LIGAND FREE ENERGY PREDICTED BY IDOCK:   -0.14 KCAL/MOL
REMARK 927      BINDING AFFINITY PREDICTED BY RF-SCORE:    0.00 PKD
ROOT
HETATM    1  C   UNL     1     -14.288  14.938  71.560  1.00  0.00    -0.539 C  
HETATM    2  O   UNL     1     -13.437  13.854  71.203  1.00  0.00    -0.252 OA 
ENDROOT
BRANCH   2   3
HETATM    3  C   UNL     1     -12.519  14.223  70.240  1.00  0.00    -0.361 A  
HETATM    4  N   UNL     1     -12.272  15.542  70.026  1.00  0.00    -0.372 NA 
HETATM    5  C   UNL     1     -11.339  15.886  69.132  1.00  0.00    -0.366 A  
HETATM    6  N   UNL     1     -11.044  17.231  69.034  1.00  0.00    -0.192 NA 
HETATM    7  N   UNL     1     -10.582  15.054  68.410  1.00  0.00    -0.234 NA 
HETATM    8  H2  UNL     1     -10.789  17.593  69.953  1.00  0.00     0.000 HD 
HETATM    9  C   UNL     1     -10.824  13.761  68.677  1.00  0.00    -0.263 A  
HETATM   10  H1  UNL     1     -10.332  17.493  68.352  1.00  0.00     0.000 HD 
HETATM   11  C   UNL     1     -11.766  13.263  69.563  1.00  0.00    -0.322 A  
HETATM   12  N   UNL     1     -11.717  11.887  69.597  1.00  0.00    -0.326 NA 
HETATM   13  C   UNL     1     -10.741  11.563  68.777  1.00  0.00    -0.211 A  
HETATM   14  N   UNL     1     -10.158  12.667  68.205  1.00  0.00    -0.225 NA 
BRANCH  14  15
HETATM   15  C1* UNL     1      -8.950  12.619  67.410  1.00  0.00    -0.190 C  
HETATM   16  O4* UNL     1      -9.332  12.324  66.048  1.00  0.00    -0.221 OA 
HETATM   17  C4* UNL     1      -8.967  10.957  65.743  1.00  0.00    -0.193 C  
HETATM   18  H2* UNL     1      -7.016  10.751  69.384  1.00  0.00     0.000 HD 
HETATM   19  C3* UNL     1      -8.102  10.424  66.891  1.00  0.00    -0.118 C  
HETATM   20  C2* UNL     1      -7.837  11.639  67.772  1.00  0.00    -0.129 C  
HETATM   21  O3* UNL     1      -6.860   9.889  66.415  1.00  0.00    -0.084 OA 
HETATM   22  H3* UNL     1      -6.325   9.559  67.127  1.00  0.00     0.000 HD 
HETATM   23  O2* UNL     1      -7.709  11.361  69.159  1.00  0.00    -0.102 OA 
BRANCH  17  24
HETATM   24  C5* UNL     1     -10.241  10.127  65.516  1.00  0.00    -0.218 C  
HETATM   25  O5* UNL     1     -10.011   8.767  65.879  1.00  0.00    -0.466 OA 
HETATM   26  H5* UNL     1     -10.798   8.254  65.739  1.00  0.00     0.000 HD 
ENDBRANCH  17  24
ENDBRANCH  14  15
ENDBRANCH   2   3
TORSDOF 3
ENDMDL
MODEL       95
REMARK 921   NORMALIZED FREE ENERGY PREDICTED BY IDOCK:   -4.49 KCAL/MOL
REMARK 922        TOTAL FREE ENERGY PREDICTED BY IDOCK:   -5.51 KCAL/MOL
REMARK 923 INTER-LIGAND FREE ENERGY PREDICTED BY IDOCK:   -6.54 KCAL/MOL
REMARK 924 INTRA-LIGAND FREE ENERGY PREDICTED BY IDOCK:    1.03 KCAL/MOL
REMARK 927      BINDING AFFINITY PREDICTED BY RF-SCORE:    0.00 PKD
ROOT
HETATM    1  C   UNL     1     -11.192  16.705  64.602  1.00  0.00    -0.015 C  
HETATM    2  O   UNL     1     -12.248  15.929  64.045  1.00  0.00    -0.719 OA 
ENDROOT
BRANCH   2   3
HETATM    3  C   UNL     1     -12.100  14.587  64.333  1.00  0.00    -0.472 A  
HETATM    4  N   UNL     1     -12.552  13.662  63.447  1.00  0.00    -0.781 NA 
HETATM    5  C   UNL     1     -12.352  12.366  63.709  1.00  0.00    -0.528 A  
HETATM    6  N   UNL     1     -12.726  11.472  62.726  1.00  0.00    -0.746 NA 
HETATM    7  N   UNL     1     -11.722  11.857  64.771  1.00  0.00    -0.260 NA 
HETATM    8  H2  UNL     1     -12.270  11.719  61.847  1.00  0.00     0.000 HD 
HETATM    9  C   UNL     1     -11.253  12.799  65.604  1.00  0.00    -0.301 A  
HETATM   10  H1  UNL     1     -12.573  10.484  62.926  1.00  0.00     0.000 HD 
HETATM   11  C   UNL     1     -11.399  14.170  65.465  1.00  0.00    -0.319 A  
HETATM   12  N   UNL     1     -10.768  14.830  66.497  1.00  0.00    -0.312 NA 
HETATM   13  C   UNL     1     -10.219  13.879  67.221  1.00  0.00    -0.249 A  
HETATM   14  N   UNL     1     -10.474  12.629  66.712  1.00  0.00    -0.239 NA 
BRANCH  14  15
HETATM   15  C1* UNL     1      -9.847  11.418  67.198  1.00  0.00    -0.190 C  
HETATM   16  O4* UNL     1      -9.214  11.728  68.458  1.00  0.00    -0.196 OA 
HETATM   17  C4* UNL     1      -7.779  11.774  68.265  1.00  0.00    -0.130 C  
HETATM   18  H2* UNL     1      -8.335  10.377  64.412  1.00  0.00     0.000 HD 
HETATM   19  C3* UNL     1      -7.467  11.242  66.862  1.00  0.00    -0.145 C  
HETATM   20  C2* UNL     1      -8.798  10.709  66.345  1.00  0.00    -0.154 C  
HETATM   21  O3* UNL     1      -6.500  10.185  66.899  1.00  0.00    -0.067 OA 
HETATM   22  H3* UNL     1      -6.307   9.856  66.029  1.00  0.00     0.000 HD 
HETATM   23  O2* UNL     1      -8.988  10.819  64.942  1.00  0.00    -0.192 OA 
BRANCH  17  24
HETATM   24  C5* UNL     1      -7.281  13.211  68.487  1.00  0.00    -0.110 C  
HETATM   25  O5* UNL     1      -6.645  13.697  67.306  1.00  0.00    -0.411 OA 
HETATM   26  H5* UNL     1      -6.337  14.585  67.443  1.00  0.00     0.000 HD 
ENDBRANCH  17  24
ENDBRANCH  14  15
ENDBRANCH   2   3
TORSDOF 3
ENDMDL
MODEL       96
REMARK 921   NORMALIZED FREE ENERGY PREDICTED BY IDOCK:   -4.48 KCAL/MOL
REMARK 922        TOTAL FREE ENERGY PREDICTED BY IDOCK:   -5.50 KCAL/MOL
REMARK 923 INTER-LIGAND FREE ENERGY PREDICTED BY IDOCK:   -5.53 KCAL/MOL
REMARK 924 INTRA-LIGAND FREE ENERGY PREDICTED BY IDOCK:    0.03 KCAL/MOL
REMARK 927      BINDING AFFINITY PREDICTED BY RF-SCORE:    0.00 PKD
ROOT
HETATM    1  C   UNL     1     -13.181  11.884  63.334  1.00  0.00     0.285 C  
HETATM    2  O   UNL     1     -12.184  12.900  63.359  1.00  0.00    -0.582 OA 
ENDROOT
BRANCH   2   3
HETATM    3  C   UNL     1     -11.263  12.687  64.365  1.00  0.00    -0.346 A  
HETATM    4  N   UNL     1     -10.868  11.418  64.648  1.00  0.00    -0.313 NA 
HETATM    5  C   UNL     1      -9.934  11.228  65.585  1.00  0.00    -0.247 A  
HETATM    6  N   UNL     1      -9.484   9.934  65.755  1.00  0.00    -0.202 NA 
HETATM    7  N   UNL     1      -9.308  12.175  66.290  1.00  0.00    -0.231 NA 
HETATM    8  H2  UNL     1      -9.155   9.566  64.862  1.00  0.00     0.000 HD 
HETATM    9  C   UNL     1      -9.693  13.416  65.956  1.00  0.00    -0.215 A  
HETATM   10  H1  UNL     1      -8.771   9.789  66.470  1.00  0.00     0.000 HD 
HETATM   11  C   UNL     1     -10.655  13.758  65.019  1.00  0.00    -0.389 A  
HETATM   12  N   UNL     1     -10.770  15.128  64.923  1.00  0.00    -0.420 NA 
HETATM   13  C   UNL     1      -9.869  15.602  65.755  1.00  0.00    -0.351 A  
HETATM   14  N   UNL     1      -9.180  14.602  66.397  1.00  0.00    -0.271 NA 
BRANCH  14  15
HETATM   15  C1* UNL     1      -8.015  14.830  67.225  1.00  0.00    -0.205 C  
HETATM   16  O4* UNL     1      -8.364  14.472  68.580  1.00  0.00    -0.157 OA 
HETATM   17  C4* UNL     1      -8.514  15.681  69.363  1.00  0.00    -0.244 C  
HETATM   18  H2* UNL     1      -7.095  17.846  66.136  1.00  0.00     0.000 HD 
HETATM   19  C3* UNL     1      -8.011  16.861  68.522  1.00  0.00    -0.242 C  
HETATM   20  C2* UNL     1      -7.385  16.219  67.289  1.00  0.00    -0.182 C  
HETATM   21  O3* UNL     1      -7.024  17.629  69.223  1.00  0.00    -0.243 OA 
HETATM   22  H3* UNL     1      -6.713  18.360  68.703  1.00  0.00     0.000 HD 
HETATM   23  O2* UNL     1      -7.487  16.981  66.096  1.00  0.00    -0.293 OA 
BRANCH  17  24
HETATM   24  C5* UNL     1      -9.982  15.833  69.792  1.00  0.00    -0.250 C  
HETATM   25  O5* UNL     1     -10.623  14.559  69.803  1.00  0.00    -0.429 OA 
HETATM   26  H5* UNL     1     -11.530  14.652  70.068  1.00  0.00     0.000 HD 
ENDBRANCH  17  24
ENDBRANCH  14  15
ENDBRANCH   2   3
TORSDOF 3
ENDMDL
MODEL       97
REMARK 921   NORMALIZED FREE ENERGY PREDICTED BY IDOCK:   -4.47 KCAL/MOL
REMARK 922        TOTAL FREE ENERGY PREDICTED BY IDOCK:   -5.48 KCAL/MOL
REMARK 923 INTER-LIGAND FREE ENERGY PREDICTED BY IDOCK:   -5.71 KCAL/MOL
REMARK 924 INTRA-LIGAND FREE ENERGY PREDICTED BY IDOCK:    0.23 KCAL/MOL
REMARK 927      BINDING AFFINITY PREDICTED BY RF-SCORE:    0.00 PKD
ROOT
HETATM    1  C   UNL     1     -10.962  11.413  65.956  1.00  0.00    -0.226 C  
HETATM    2  O   UNL     1      -9.799  12.144  65.580  1.00  0.00    -0.244 OA 
ENDROOT
BRANCH   2   3
HETATM    3  C   UNL     1      -9.625  13.264  66.368  1.00  0.00    -0.254 A  
HETATM    4  N   UNL     1      -8.905  13.165  67.517  1.00  0.00    -0.188 NA 
HETATM    5  C   UNL     1      -8.694  14.268  68.242  1.00  0.00    -0.179 A  
HETATM    6  N   UNL     1      -7.862  14.138  69.336  1.00  0.00    -0.346 NA 
HETATM    7  N   UNL     1      -9.109  15.504  67.951  1.00  0.00    -0.175 NA 
HETATM    8  H2  UNL     1      -6.968  13.744  69.041  1.00  0.00     0.000 HD 
HETATM    9  C   UNL     1      -9.780  15.571  66.791  1.00  0.00    -0.239 A  
HETATM   10  H1  UNL     1      -7.701  14.979  69.889  1.00  0.00     0.000 HD 
HETATM   11  C   UNL     1     -10.083  14.513  65.949  1.00  0.00    -0.326 A  
HETATM   12  N   UNL     1     -10.763  14.959  64.837  1.00  0.00    -0.416 NA 
HETATM   13  C   UNL     1     -10.835  16.264  64.985  1.00  0.00    -0.320 A  
HETATM   14  N   UNL     1     -10.240  16.686  66.150  1.00  0.00    -0.335 NA 
BRANCH  14  15
HETATM   15  C1* UNL     1     -10.012  18.076  66.479  1.00  0.00    -0.371 C  
HETATM   16  O4* UNL     1      -8.721  18.447  65.946  1.00  0.00    -0.497 OA 
HETATM   17  C4* UNL     1      -7.778  18.571  67.038  1.00  0.00    -0.225 C  
HETATM   18  H2* UNL     1     -10.912  18.078  69.691  1.00  0.00     0.000 HD 
HETATM   19  C3* UNL     1      -8.559  18.501  68.355  1.00  0.00    -0.331 C  
HETATM   20  C2* UNL     1     -10.025  18.525  67.938  1.00  0.00    -0.346 C  
HETATM   21  O3* UNL     1      -8.275  19.623  69.200  1.00  0.00    -0.274 OA 
HETATM   22  H3* UNL     1      -8.759  19.579  70.017  1.00  0.00     0.000 HD 
HETATM   23  O2* UNL     1     -10.904  17.798  68.784  1.00  0.00    -0.107 OA 
BRANCH  17  24
HETATM   24  C5* UNL     1      -6.708  17.475  66.915  1.00  0.00    -0.185 C  
HETATM   25  O5* UNL     1      -6.259  17.081  68.211  1.00  0.00    -0.132 OA 
HETATM   26  H5* UNL     1      -5.598  16.404  68.135  1.00  0.00     0.000 HD 
ENDBRANCH  17  24
ENDBRANCH  14  15
ENDBRANCH   2   3
TORSDOF 3
ENDMDL
MODEL       98
REMARK 921   NORMALIZED FREE ENERGY PREDICTED BY IDOCK:   -4.46 KCAL/MOL
REMARK 922        TOTAL FREE ENERGY PREDICTED BY IDOCK:   -5.47 KCAL/MOL
REMARK 923 INTER-LIGAND FREE ENERGY PREDICTED BY IDOCK:   -5.58 KCAL/MOL
REMARK 924 INTRA-LIGAND FREE ENERGY PREDICTED BY IDOCK:    0.10 KCAL/MOL
REMARK 927      BINDING AFFINITY PREDICTED BY RF-SCORE:    0.00 PKD
ROOT
HETATM    1  C   UNL     1     -10.762  19.835  66.891  1.00  0.00    -0.421 C  
HETATM    2  O   UNL     1      -9.718  20.045  65.947  1.00  0.00    -0.411 OA 
ENDROOT
BRANCH   2   3
HETATM    3  C   UNL     1      -8.497  19.628  66.437  1.00  0.00    -0.356 A  
HETATM    4  N   UNL     1      -7.653  20.539  66.987  1.00  0.00    -0.312 NA 
HETATM    5  C   UNL     1      -6.498  20.115  67.511  1.00  0.00    -0.215 A  
HETATM    6  N   UNL     1      -5.730  21.060  68.160  1.00  0.00    -0.323 NA 
HETATM    7  N   UNL     1      -6.068  18.851  67.573  1.00  0.00    -0.182 NA 
HETATM    8  H2  UNL     1      -6.286  21.517  68.882  1.00  0.00     0.000 HD 
HETATM    9  C   UNL     1      -6.944  17.974  67.058  1.00  0.00    -0.190 A  
HETATM   10  H1  UNL     1      -4.849  20.737  68.559  1.00  0.00     0.000 HD 
HETATM   11  C   UNL     1      -8.164  18.273  66.473  1.00  0.00    -0.268 A  
HETATM   12  N   UNL     1      -8.805  17.120  66.077  1.00  0.00    -0.524 NA 
HETATM   13  C   UNL     1      -8.007  16.144  66.450  1.00  0.00    -0.217 A  
HETATM   14  N   UNL     1      -6.869  16.611  67.063  1.00  0.00    -0.190 NA 
BRANCH  14  15
HETATM   15  C1* UNL     1      -5.908  15.762  67.732  1.00  0.00    -0.148 C  
HETATM   16  O4* UNL     1      -6.061  14.426  67.206  1.00  0.00    -0.300 OA 
HETATM   17  C4* UNL     1      -6.707  13.598  68.203  1.00  0.00    -0.122 C  
HETATM   18  H2* UNL     1      -6.372  16.721  70.893  1.00  0.00     0.000 HD 
HETATM   19  C3* UNL     1      -6.762  14.386  69.517  1.00  0.00    -0.141 C  
HETATM   20  C2* UNL     1      -5.931  15.636  69.253  1.00  0.00    -0.112 C  
HETATM   21  O3* UNL     1      -6.194  13.645  70.604  1.00  0.00    -0.372 OA 
HETATM   22  H3* UNL     1      -6.228  14.133  71.418  1.00  0.00     0.000 HD 
HETATM   23  O2* UNL     1      -6.357  16.800  69.947  1.00  0.00    -0.215 OA 
BRANCH  17  24
HETATM   24  C5* UNL     1      -8.096  13.179  67.695  1.00  0.00    -0.176 C  
HETATM   25  O5* UNL     1      -9.025  13.151  68.778  1.00  0.00    -0.381 OA 
HETATM   26  H5* UNL     1      -9.884  12.892  68.464  1.00  0.00     0.000 HD 
ENDBRANCH  17  24
ENDBRANCH  14  15
ENDBRANCH   2   3
TORSDOF 3
ENDMDL
MODEL       99
REMARK 921   NORMALIZED FREE ENERGY PREDICTED BY IDOCK:   -4.45 KCAL/MOL
REMARK 922        TOTAL FREE ENERGY PREDICTED BY IDOCK:   -5.46 KCAL/MOL
REMARK 923 INTER-LIGAND FREE ENERGY PREDICTED BY IDOCK:   -5.36 KCAL/MOL
REMARK 924 INTRA-LIGAND FREE ENERGY PREDICTED BY IDOCK:   -0.10 KCAL/MOL
REMARK 927      BINDING AFFINITY PREDICTED BY RF-SCORE:    0.00 PKD
ROOT
HETATM    1  C   UNL     1     -10.495  16.440  66.423  1.00  0.00    -0.286 C  
HETATM    2  O   UNL     1      -9.475  15.507  66.081  1.00  0.00    -0.288 OA 
ENDROOT
BRANCH   2   3
HETATM    3  C   UNL     1      -9.997  14.259  65.806  1.00  0.00    -0.323 A  
HETATM    4  N   UNL     1     -10.602  14.039  64.610  1.00  0.00    -0.422 NA 
HETATM    5  C   UNL     1     -11.053  12.811  64.332  1.00  0.00    -0.349 A  
HETATM    6  N   UNL     1     -11.555  12.610  63.062  1.00  0.00    -0.761 NA 
HETATM    7  N   UNL     1     -10.959  11.732  65.115  1.00  0.00    -0.302 NA 
HETATM    8  H2  UNL     1     -10.857  12.884  62.371  1.00  0.00     0.000 HD 
HETATM    9  C   UNL     1     -10.319  11.976  66.269  1.00  0.00    -0.221 A  
HETATM   10  H1  UNL     1     -11.898  11.673  62.851  1.00  0.00     0.000 HD 
HETATM   11  C   UNL     1      -9.816  13.196  66.692  1.00  0.00    -0.261 A  
HETATM   12  N   UNL     1      -9.202  13.067  67.919  1.00  0.00    -0.200 NA 
HETATM   13  C   UNL     1      -9.299  11.789  68.212  1.00  0.00    -0.193 A  
HETATM   14  N   UNL     1      -9.957  11.082  67.235  1.00  0.00    -0.178 NA 
BRANCH  14  15
HETATM   15  C1* UNL     1     -10.047   9.638  67.207  1.00  0.00    -0.211 C  
HETATM   16  O4* UNL     1     -11.088   9.245  68.128  1.00  0.00    -0.070 OA 
HETATM   17  C4* UNL     1     -10.479   8.666  69.308  1.00  0.00    -0.217 C  
HETATM   18  H2* UNL     1      -6.813   8.840  67.400  1.00  0.00     0.000 HD 
HETATM   19  C3* UNL     1      -8.985   8.469  69.028  1.00  0.00    -0.146 C  
HETATM   20  C2* UNL     1      -8.823   8.792  67.547  1.00  0.00    -0.134 C  
HETATM   21  O3* UNL     1      -8.572   7.120  69.279  1.00  0.00    -0.135 OA 
HETATM   22  H3* UNL     1      -7.646   6.998  69.106  1.00  0.00     0.000 HD 
HETATM   23  O2* UNL     1      -7.575   9.367  67.189  1.00  0.00    -0.091 OA 
BRANCH  17  24
HETATM   24  C5* UNL     1     -10.749   9.573  70.519  1.00  0.00    -0.298 C  
HETATM   25  O5* UNL     1     -10.910   8.784  71.696  1.00  0.00    -0.276 OA 
HETATM   26  H5* UNL     1     -11.077   9.345  72.444  1.00  0.00     0.000 HD 
ENDBRANCH  17  24
ENDBRANCH  14  15
ENDBRANCH   2   3
TORSDOF 3
ENDMDL
MODEL      100
REMARK 921   NORMALIZED FREE ENERGY PREDICTED BY IDOCK:   -4.45 KCAL/MOL
REMARK 922        TOTAL FREE ENERGY PREDICTED BY IDOCK:   -5.45 KCAL/MOL
REMARK 923 INTER-LIGAND FREE ENERGY PREDICTED BY IDOCK:   -5.45 KCAL/MOL
REMARK 924 INTRA-LIGAND FREE ENERGY PREDICTED BY IDOCK:    0.00 KCAL/MOL
REMARK 927      BINDING AFFINITY PREDICTED BY RF-SCORE:    0.00 PKD
ROOT
HETATM    1  C   UNL     1      -8.003   6.214  70.347  1.00  0.00    -0.108 C  
HETATM    2  O   UNL     1      -7.719   7.519  69.854  1.00  0.00    -0.094 OA 
ENDROOT
BRANCH   2   3
HETATM    3  C   UNL     1      -8.615   7.900  68.876  1.00  0.00    -0.132 A  
HETATM    4  N   UNL     1      -9.529   7.003  68.423  1.00  0.00    -0.133 NA 
HETATM    5  C   UNL     1     -10.429   7.400  67.517  1.00  0.00    -0.268 A  
HETATM    6  N   UNL     1     -11.405   6.486  67.175  1.00  0.00    -0.771 NA 
HETATM    7  N   UNL     1     -10.550   8.625  66.999  1.00  0.00    -0.277 NA 
HETATM    8  H2  UNL     1     -11.884   6.165  68.017  1.00  0.00     0.000 HD 
HETATM    9  C   UNL     1      -9.659   9.496  67.499  1.00  0.00    -0.144 A  
HETATM   10  H1  UNL     1     -12.091   6.789  66.484  1.00  0.00     0.000 HD 
HETATM   11  C   UNL     1      -8.666   9.220  68.426  1.00  0.00    -0.129 A  
HETATM   12  N   UNL     1      -7.954  10.361  68.725  1.00  0.00    -0.113 NA 
HETATM   13  C   UNL     1      -8.530  11.312  68.023  1.00  0.00    -0.138 A  
HETATM   14  N   UNL     1      -9.578  10.839  67.272  1.00  0.00    -0.159 NA 
BRANCH  14  15
HETATM   15  C1* UNL     1     -10.500  11.690  66.550  1.00  0.00    -0.239 C  
HETATM   16  O4* UNL     1      -9.766  12.849  66.098  1.00  0.00    -0.266 OA 
HETATM   17  C4* UNL     1     -10.152  13.992  66.899  1.00  0.00    -0.259 C  
HETATM   18  H2* UNL     1     -13.093  11.669  68.649  1.00  0.00     0.000 HD 
HETATM   19  C3* UNL     1     -11.361  13.592  67.753  1.00  0.00    -0.306 C  
HETATM   20  C2* UNL     1     -11.757  12.212  67.242  1.00  0.00    -0.299 C  
HETATM   21  O3* UNL     1     -12.453  14.505  67.585  1.00  0.00    -0.595 OA 
HETATM   22  H3* UNL     1     -13.202  14.257  68.115  1.00  0.00     0.000 HD 
HETATM   23  O2* UNL     1     -12.311  11.344  68.219  1.00  0.00    -0.506 OA 
BRANCH  17  24
HETATM   24  C5* UNL     1      -8.951  14.455  67.739  1.00  0.00    -0.192 C  
HETATM   25  O5* UNL     1      -7.782  14.530  66.923  1.00  0.00    -0.324 OA 
HETATM   26  H5* UNL     1      -7.040  14.817  67.442  1.00  0.00     0.000 HD 
ENDBRANCH  17  24
ENDBRANCH  14  15
ENDBRANCH   2   3
TORSDOF 3
ENDMDL
MODEL      101
REMARK 921   NORMALIZED FREE ENERGY PREDICTED BY IDOCK:   -4.42 KCAL/MOL
REMARK 922        TOTAL FREE ENERGY PREDICTED BY IDOCK:   -5.42 KCAL/MOL
REMARK 923 INTER-LIGAND FREE ENERGY PREDICTED BY IDOCK:   -5.37 KCAL/MOL
REMARK 924 INTRA-LIGAND FREE ENERGY PREDICTED BY IDOCK:   -0.05 KCAL/MOL
REMARK 927      BINDING AFFINITY PREDICTED BY RF-SCORE:    0.00 PKD
ROOT
HETATM    1  C   UNL     1      -7.830  10.837  67.427  1.00  0.00    -0.111 C  
HETATM    2  O   UNL     1      -7.682  10.529  68.809  1.00  0.00    -0.093 OA 
ENDROOT
BRANCH   2   3
HETATM    3  C   UNL     1      -8.900  10.277  69.408  1.00  0.00    -0.163 A  
HETATM    4  N   UNL     1     -10.040  10.711  68.808  1.00  0.00    -0.183 NA 
HETATM    5  C   UNL     1     -11.217  10.412  69.367  1.00  0.00    -0.259 A  
HETATM    6  N   UNL     1     -12.346  10.775  68.661  1.00  0.00    -0.786 NA 
HETATM    7  N   UNL     1     -11.411   9.696  70.479  1.00  0.00    -0.272 NA 
HETATM    8  H2  UNL     1     -12.303  10.382  67.721  1.00  0.00     0.000 HD 
HETATM    9  C   UNL     1     -10.268   9.250  71.021  1.00  0.00    -0.314 A  
HETATM   10  H1  UNL     1     -13.243  10.547  69.088  1.00  0.00     0.000 HD 
HETATM   11  C   UNL     1      -8.985   9.494  70.559  1.00  0.00    -0.211 A  
HETATM   12  N   UNL     1      -8.056   8.856  71.353  1.00  0.00    -0.265 NA 
HETATM   13  C   UNL     1      -8.766   8.210  72.251  1.00  0.00    -0.182 A  
HETATM   14  N   UNL     1     -10.115   8.406  72.084  1.00  0.00    -0.277 NA 
BRANCH  14  15
HETATM   15  C1* UNL     1     -11.132   7.676  72.810  1.00  0.00    -0.383 C  
HETATM   16  O4* UNL     1     -10.623   7.417  74.136  1.00  0.00    -0.194 OA 
HETATM   17  C4* UNL     1     -10.277   6.014  74.242  1.00  0.00    -0.302 C  
HETATM   18  H2* UNL     1     -11.976   5.401  70.521  1.00  0.00     0.000 HD 
HETATM   19  C3* UNL     1     -10.806   5.296  72.996  1.00  0.00    -0.280 C  
HETATM   20  C2* UNL     1     -11.644   6.343  72.271  1.00  0.00    -0.299 C  
HETATM   21  O3* UNL     1     -11.626   4.171  73.341  1.00  0.00    -0.231 OA 
HETATM   22  H3* UNL     1     -11.953   3.725  72.568  1.00  0.00     0.000 HD 
HETATM   23  O2* UNL     1     -11.657   6.230  70.856  1.00  0.00    -0.331 OA 
BRANCH  17  24
HETATM   24  C5* UNL     1      -8.756   5.876  74.414  1.00  0.00    -0.123 C  
HETATM   25  O5* UNL     1      -8.227   5.006  73.414  1.00  0.00    -0.109 OA 
HETATM   26  H5* UNL     1      -7.287   4.921  73.521  1.00  0.00     0.000 HD 
ENDBRANCH  17  24
ENDBRANCH  14  15
ENDBRANCH   2   3
TORSDOF 3
ENDMDL
MODEL      102
REMARK 921   NORMALIZED FREE ENERGY PREDICTED BY IDOCK:   -4.41 KCAL/MOL
REMARK 922        TOTAL FREE ENERGY PREDICTED BY IDOCK:   -5.41 KCAL/MOL
REMARK 923 INTER-LIGAND FREE ENERGY PREDICTED BY IDOCK:   -5.68 KCAL/MOL
REMARK 924 INTRA-LIGAND FREE ENERGY PREDICTED BY IDOCK:    0.27 KCAL/MOL
REMARK 927      BINDING AFFINITY PREDICTED BY RF-SCORE:    0.00 PKD
ROOT
HETATM    1  C   UNL     1     -11.283  15.831  64.634  1.00  0.00    -0.363 C  
HETATM    2  O   UNL     1     -11.687  14.474  64.783  1.00  0.00    -0.382 OA 
ENDROOT
BRANCH   2   3
HETATM    3  C   UNL     1     -10.993  13.845  65.796  1.00  0.00    -0.285 A  
HETATM    4  N   UNL     1     -10.797  14.494  66.974  1.00  0.00    -0.292 NA 
HETATM    5  C   UNL     1     -10.174  13.853  67.968  1.00  0.00    -0.246 A  
HETATM    6  N   UNL     1     -10.103  14.512  69.178  1.00  0.00    -0.372 NA 
HETATM    7  N   UNL     1      -9.719  12.597  67.944  1.00  0.00    -0.210 NA 
HETATM    8  H2  UNL     1     -11.040  14.781  69.478  1.00  0.00     0.000 HD 
HETATM    9  C   UNL     1      -9.966  11.973  66.781  1.00  0.00    -0.201 A  
HETATM   10  H1  UNL     1      -9.628  14.023  69.937  1.00  0.00     0.000 HD 
HETATM   11  C   UNL     1     -10.585  12.517  65.668  1.00  0.00    -0.269 A  
HETATM   12  N   UNL     1     -10.689  11.577  64.665  1.00  0.00    -0.309 NA 
HETATM   13  C   UNL     1     -10.178  10.478  65.178  1.00  0.00    -0.288 A  
HETATM   14  N   UNL     1      -9.737  10.664  66.465  1.00  0.00    -0.187 NA 
BRANCH  14  15
HETATM   15  C1* UNL     1      -9.300   9.590  67.330  1.00  0.00    -0.130 C  
HETATM   16  O4* UNL     1     -10.456   9.110  68.052  1.00  0.00    -0.218 OA 
HETATM   17  C4* UNL     1     -10.369   9.556  69.428  1.00  0.00    -0.214 C  
HETATM   18  H2* UNL     1      -6.560  10.966  68.646  1.00  0.00     0.000 HD 
HETATM   19  C3* UNL     1      -8.976  10.155  69.651  1.00  0.00    -0.169 C  
HETATM   20  C2* UNL     1      -8.211   9.843  68.370  1.00  0.00    -0.106 C  
HETATM   21  O3* UNL     1      -8.314   9.554  70.771  1.00  0.00    -0.243 OA 
HETATM   22  H3* UNL     1      -7.451   9.926  70.909  1.00  0.00     0.000 HD 
HETATM   23  O2* UNL     1      -7.238  10.809  67.999  1.00  0.00    -0.084 OA 
BRANCH  17  24
HETATM   24  C5* UNL     1     -11.504  10.552  69.713  1.00  0.00    -0.294 C  
HETATM   25  O5* UNL     1     -12.344  10.680  68.567  1.00  0.00    -0.814 OA 
HETATM   26  H5* UNL     1     -13.045  11.296  68.744  1.00  0.00     0.000 HD 
ENDBRANCH  17  24
ENDBRANCH  14  15
ENDBRANCH   2   3
TORSDOF 3
ENDMDL
MODEL      103
REMARK 921   NORMALIZED FREE ENERGY PREDICTED BY IDOCK:   -4.39 KCAL/MOL
REMARK 922        TOTAL FREE ENERGY PREDICTED BY IDOCK:   -5.38 KCAL/MOL
REMARK 923 INTER-LIGAND FREE ENERGY PREDICTED BY IDOCK:   -5.59 KCAL/MOL
REMARK 924 INTRA-LIGAND FREE ENERGY PREDICTED BY IDOCK:    0.20 KCAL/MOL
REMARK 927      BINDING AFFINITY PREDICTED BY RF-SCORE:    0.00 PKD
ROOT
HETATM    1  C   UNL     1      -6.325   9.366  65.082  1.00  0.00    -0.071 C  
HETATM    2  O   UNL     1      -7.144   9.056  66.205  1.00  0.00    -0.084 OA 
ENDROOT
BRANCH   2   3
HETATM    3  C   UNL     1      -7.642  10.196  66.803  1.00  0.00    -0.105 A  
HETATM    4  N   UNL     1      -6.895  10.838  67.738  1.00  0.00    -0.072 NA 
HETATM    5  C   UNL     1      -7.362  11.973  68.268  1.00  0.00    -0.095 A  
HETATM    6  N   UNL     1      -6.517  12.647  69.126  1.00  0.00    -0.101 NA 
HETATM    7  N   UNL     1      -8.512  12.581  67.963  1.00  0.00    -0.165 NA 
HETATM    8  H2  UNL     1      -5.627  12.827  68.660  1.00  0.00     0.000 HD 
HETATM    9  C   UNL     1      -9.204  11.942  67.007  1.00  0.00    -0.191 A  
HETATM   10  H1  UNL     1      -6.873  13.513  69.531  1.00  0.00     0.000 HD 
HETATM   11  C   UNL     1      -8.849  10.756  66.384  1.00  0.00    -0.165 A  
HETATM   12  N   UNL     1      -9.788  10.409  65.437  1.00  0.00    -0.263 NA 
HETATM   13  C   UNL     1     -10.670  11.384  65.461  1.00  0.00    -0.253 A  
HETATM   14  N   UNL     1     -10.352  12.346  66.389  1.00  0.00    -0.231 NA 
BRANCH  14  15
HETATM   15  C1* UNL     1     -11.042  13.612  66.504  1.00  0.00    -0.305 C  
HETATM   16  O4* UNL     1     -12.338  13.464  65.885  1.00  0.00    -0.434 OA 
HETATM   17  C4* UNL     1     -12.339  14.170  64.620  1.00  0.00    -0.410 C  
HETATM   18  H2* UNL     1      -8.612  15.696  65.564  1.00  0.00     0.000 HD 
HETATM   19  C3* UNL     1     -11.054  15.002  64.535  1.00  0.00    -0.234 C  
HETATM   20  C2* UNL     1     -10.419  14.875  65.915  1.00  0.00    -0.315 C  
HETATM   21  O3* UNL     1     -11.332  16.379  64.252  1.00  0.00    -1.160 OA 
HETATM   22  H3* UNL     1     -10.536  16.894  64.198  1.00  0.00     0.000 HD 
HETATM   23  O2* UNL     1      -9.000  14.910  65.930  1.00  0.00    -0.110 OA 
BRANCH  17  24
HETATM   24  C5* UNL     1     -12.476  13.158  63.471  1.00  0.00    -0.278 C  
HETATM   25  O5* UNL     1     -11.211  12.954  62.844  1.00  0.00    -0.547 OA 
HETATM   26  H5* UNL     1     -11.296  12.329  62.134  1.00  0.00     0.000 HD 
ENDBRANCH  17  24
ENDBRANCH  14  15
ENDBRANCH   2   3
TORSDOF 3
ENDMDL
MODEL      104
REMARK 921   NORMALIZED FREE ENERGY PREDICTED BY IDOCK:   -4.34 KCAL/MOL
REMARK 922        TOTAL FREE ENERGY PREDICTED BY IDOCK:   -5.33 KCAL/MOL
REMARK 923 INTER-LIGAND FREE ENERGY PREDICTED BY IDOCK:   -5.19 KCAL/MOL
REMARK 924 INTRA-LIGAND FREE ENERGY PREDICTED BY IDOCK:   -0.14 KCAL/MOL
REMARK 927      BINDING AFFINITY PREDICTED BY RF-SCORE:    0.00 PKD
ROOT
HETATM    1  C   UNL     1     -10.032   5.024  68.936  1.00  0.00    -0.166 C  
HETATM    2  O   UNL     1     -11.023   5.963  68.533  1.00  0.00    -0.281 OA 
ENDROOT
BRANCH   2   3
HETATM    3  C   UNL     1     -10.833   7.193  69.132  1.00  0.00    -0.162 A  
HETATM    4  N   UNL     1     -10.937   7.299  70.483  1.00  0.00    -0.254 NA 
HETATM    5  C   UNL     1     -10.694   8.482  71.057  1.00  0.00    -0.228 A  
HETATM    6  N   UNL     1     -10.699   8.511  72.437  1.00  0.00    -0.342 NA 
HETATM    7  N   UNL     1     -10.332   9.608  70.437  1.00  0.00    -0.273 NA 
HETATM    8  H2  UNL     1     -10.046   7.814  72.797  1.00  0.00     0.000 HD 
HETATM    9  C   UNL     1     -10.199   9.457  69.110  1.00  0.00    -0.202 A  
HETATM   10  H1  UNL     1     -10.513   9.413  72.875  1.00  0.00     0.000 HD 
HETATM   11  C   UNL     1     -10.431   8.299  68.384  1.00  0.00    -0.162 A  
HETATM   12  N   UNL     1     -10.171   8.507  67.047  1.00  0.00    -0.275 NA 
HETATM   13  C   UNL     1      -9.753   9.752  66.974  1.00  0.00    -0.183 A  
HETATM   14  N   UNL     1      -9.740  10.367  68.202  1.00  0.00    -0.149 NA 
BRANCH  14  15
HETATM   15  C1* UNL     1      -9.157  11.669  68.445  1.00  0.00    -0.180 C  
HETATM   16  O4* UNL     1     -10.233  12.578  68.765  1.00  0.00    -0.188 OA 
HETATM   17  C4* UNL     1     -10.453  13.462  67.639  1.00  0.00    -0.241 C  
HETATM   18  H2* UNL     1      -7.078  11.882  65.845  1.00  0.00     0.000 HD 
HETATM   19  C3* UNL     1      -9.309  13.258  66.639  1.00  0.00    -0.242 C  
HETATM   20  C2* UNL     1      -8.323  12.345  67.360  1.00  0.00    -0.180 C  
HETATM   21  O3* UNL     1      -8.670  14.497  66.305  1.00  0.00    -0.460 OA 
HETATM   22  H3* UNL     1      -7.961  14.370  65.685  1.00  0.00     0.000 HD 
HETATM   23  O2* UNL     1      -7.597  11.460  66.520  1.00  0.00    -0.142 OA 
BRANCH  17  24
HETATM   24  C5* UNL     1     -11.837  13.181  67.033  1.00  0.00    -0.379 C  
HETATM   25  O5* UNL     1     -12.284  11.880  67.414  1.00  0.00    -0.502 OA 
HETATM   26  H5* UNL     1     -13.139  11.707  67.039  1.00  0.00     0.000 HD 
ENDBRANCH  17  24
ENDBRANCH  14  15
ENDBRANCH   2   3
TORSDOF 3
ENDMDL
MODEL      105
REMARK 921   NORMALIZED FREE ENERGY PREDICTED BY IDOCK:   -4.34 KCAL/MOL
REMARK 922        TOTAL FREE ENERGY PREDICTED BY IDOCK:   -5.32 KCAL/MOL
REMARK 923 INTER-LIGAND FREE ENERGY PREDICTED BY IDOCK:   -5.92 KCAL/MOL
REMARK 924 INTRA-LIGAND FREE ENERGY PREDICTED BY IDOCK:    0.59 KCAL/MOL
REMARK 927      BINDING AFFINITY PREDICTED BY RF-SCORE:    0.00 PKD
ROOT
HETATM    1  C   UNL     1      -9.510  19.626  66.676  1.00  0.00    -0.375 C  
HETATM    2  O   UNL     1      -8.816  18.546  66.061  1.00  0.00    -0.493 OA 
ENDROOT
BRANCH   2   3
HETATM    3  C   UNL     1      -9.594  17.406  66.004  1.00  0.00    -0.118 A  
HETATM    4  N   UNL     1     -10.613  17.339  65.109  1.00  0.00    -0.638 NA 
HETATM    5  C   UNL     1     -11.323  16.209  65.023  1.00  0.00    -0.114 A  
HETATM    6  N   UNL     1     -12.270  16.150  64.021  1.00  0.00    -1.046 NA 
HETATM    7  N   UNL     1     -11.129  15.092  65.729  1.00  0.00    -0.346 NA 
HETATM    8  H2  UNL     1     -11.831  16.348  63.122  1.00  0.00     0.000 HD 
HETATM    9  C   UNL     1     -10.090  15.179  66.573  1.00  0.00    -0.269 A  
HETATM   10  H1  UNL     1     -12.811  15.288  63.955  1.00  0.00     0.000 HD 
HETATM   11  C   UNL     1      -9.281  16.287  66.775  1.00  0.00    -0.230 A  
HETATM   12  N   UNL     1      -8.299  16.005  67.700  1.00  0.00    -0.149 NA 
HETATM   13  C   UNL     1      -8.488  14.744  68.020  1.00  0.00    -0.151 A  
HETATM   14  N   UNL     1      -9.555  14.194  67.353  1.00  0.00    -0.224 NA 
BRANCH  14  15
HETATM   15  C1* UNL     1      -9.878  12.784  67.372  1.00  0.00    -0.210 C  
HETATM   16  O4* UNL     1      -9.009  12.148  68.336  1.00  0.00    -0.186 OA 
HETATM   17  C4* UNL     1      -8.007  11.378  67.630  1.00  0.00    -0.123 C  
HETATM   18  H2* UNL     1     -10.012  12.161  64.098  1.00  0.00     0.000 HD 
HETATM   19  C3* UNL     1      -8.394  11.333  66.147  1.00  0.00    -0.111 C  
HETATM   20  C2* UNL     1      -9.781  11.962  66.090  1.00  0.00    -0.232 C  
HETATM   21  O3* UNL     1      -8.448   9.989  65.653  1.00  0.00    -0.138 OA 
HETATM   22  H3* UNL     1      -8.687   9.962  64.734  1.00  0.00     0.000 HD 
HETATM   23  O2* UNL     1     -10.072  12.673  64.896  1.00  0.00    -0.277 OA 
BRANCH  17  24
HETATM   24  C5* UNL     1      -6.622  12.000  67.871  1.00  0.00    -0.076 C  
HETATM   25  O5* UNL     1      -6.302  12.906  66.816  1.00  0.00    -0.412 OA 
HETATM   26  H5* UNL     1      -5.446  13.291  66.965  1.00  0.00     0.000 HD 
ENDBRANCH  17  24
ENDBRANCH  14  15
ENDBRANCH   2   3
TORSDOF 3
ENDMDL
MODEL      106
REMARK 921   NORMALIZED FREE ENERGY PREDICTED BY IDOCK:   -4.31 KCAL/MOL
REMARK 922        TOTAL FREE ENERGY PREDICTED BY IDOCK:   -5.29 KCAL/MOL
REMARK 923 INTER-LIGAND FREE ENERGY PREDICTED BY IDOCK:   -5.38 KCAL/MOL
REMARK 924 INTRA-LIGAND FREE ENERGY PREDICTED BY IDOCK:    0.08 KCAL/MOL
REMARK 927      BINDING AFFINITY PREDICTED BY RF-SCORE:    0.00 PKD
ROOT
HETATM    1  C   UNL     1     -10.153  20.166  68.026  1.00  0.00    -0.379 C  
HETATM    2  O   UNL     1      -9.476  20.106  66.776  1.00  0.00    -0.371 OA 
ENDROOT
BRANCH   2   3
HETATM    3  C   UNL     1      -8.676  18.985  66.683  1.00  0.00    -0.310 A  
HETATM    4  N   UNL     1      -7.351  19.086  66.966  1.00  0.00    -0.212 NA 
HETATM    5  C   UNL     1      -6.597  17.982  66.929  1.00  0.00    -0.182 A  
HETATM    6  N   UNL     1      -5.285  18.117  67.337  1.00  0.00    -0.136 NA 
HETATM    7  N   UNL     1      -7.013  16.743  66.652  1.00  0.00    -0.232 NA 
HETATM    8  H2  UNL     1      -5.257  18.520  68.273  1.00  0.00     0.000 HD 
HETATM    9  C   UNL     1      -8.332  16.674  66.418  1.00  0.00    -0.318 A  
HETATM   10  H1  UNL     1      -4.711  17.274  67.309  1.00  0.00     0.000 HD 
HETATM   11  C   UNL     1      -9.226  17.733  66.409  1.00  0.00    -0.240 A  
HETATM   12  N   UNL     1     -10.504  17.284  66.154  1.00  0.00    -0.318 NA 
HETATM   13  C   UNL     1     -10.389  15.978  66.050  1.00  0.00    -0.351 A  
HETATM   14  N   UNL     1      -9.092  15.558  66.216  1.00  0.00    -0.313 NA 
BRANCH  14  15
HETATM   15  C1* UNL     1      -8.705  14.169  66.334  1.00  0.00     0.181 C  
HETATM   16  O4* UNL     1      -9.755  13.369  65.748  1.00  0.00    -0.230 OA 
HETATM   17  C4* UNL     1     -10.494  12.713  66.807  1.00  0.00    -0.240 C  
HETATM   18  H2* UNL     1      -7.691  14.104  69.511  1.00  0.00     0.000 HD 
HETATM   19  C3* UNL     1      -9.734  12.923  68.122  1.00  0.00    -0.227 C  
HETATM   20  C2* UNL     1      -8.418  13.571  67.709  1.00  0.00    -0.184 C  
HETATM   21  O3* UNL     1      -9.476  11.681  68.789  1.00  0.00    -0.336 OA 
HETATM   22  H3* UNL     1      -9.006  11.811  69.604  1.00  0.00     0.000 HD 
HETATM   23  O2* UNL     1      -7.869  14.476  68.656  1.00  0.00    -0.128 OA 
BRANCH  17  24
HETATM   24  C5* UNL     1     -11.927  13.266  66.847  1.00  0.00    -0.375 C  
HETATM   25  O5* UNL     1     -12.171  13.905  68.099  1.00  0.00    -0.476 OA 
HETATM   26  H5* UNL     1     -13.057  14.248  68.124  1.00  0.00     0.000 HD 
ENDBRANCH  17  24
ENDBRANCH  14  15
ENDBRANCH   2   3
TORSDOF 3
ENDMDL
MODEL      107
REMARK 921   NORMALIZED FREE ENERGY PREDICTED BY IDOCK:   -4.31 KCAL/MOL
REMARK 922        TOTAL FREE ENERGY PREDICTED BY IDOCK:   -5.29 KCAL/MOL
REMARK 923 INTER-LIGAND FREE ENERGY PREDICTED BY IDOCK:   -5.24 KCAL/MOL
REMARK 924 INTRA-LIGAND FREE ENERGY PREDICTED BY IDOCK:   -0.05 KCAL/MOL
REMARK 927      BINDING AFFINITY PREDICTED BY RF-SCORE:    0.00 PKD
ROOT
HETATM    1  C   UNL     1     -11.062   4.108  73.939  1.00  0.00    -0.179 C  
HETATM    2  O   UNL     1     -11.794   5.070  73.188  1.00  0.00    -0.279 OA 
ENDROOT
BRANCH   2   3
HETATM    3  C   UNL     1     -11.029   6.183  72.901  1.00  0.00    -0.262 A  
HETATM    4  N   UNL     1     -10.225   6.705  73.864  1.00  0.00    -0.323 NA 
HETATM    5  C   UNL     1      -9.445   7.747  73.557  1.00  0.00    -0.284 A  
HETATM    6  N   UNL     1      -8.565   8.167  74.534  1.00  0.00    -0.392 NA 
HETATM    7  N   UNL     1      -9.347   8.346  72.367  1.00  0.00    -0.268 NA 
HETATM    8  H2  UNL     1      -7.986   7.382  74.834  1.00  0.00     0.000 HD 
HETATM    9  C   UNL     1     -10.123   7.778  71.430  1.00  0.00    -0.182 A  
HETATM   10  H1  UNL     1      -7.969   8.961  74.299  1.00  0.00     0.000 HD 
HETATM   11  C   UNL     1     -10.987   6.709  71.610  1.00  0.00    -0.241 A  
HETATM   12  N   UNL     1     -11.603   6.381  70.422  1.00  0.00    -0.399 NA 
HETATM   13  C   UNL     1     -11.092   7.209  69.536  1.00  0.00    -0.141 A  
HETATM   14  N   UNL     1     -10.179   8.068  70.097  1.00  0.00    -0.199 NA 
BRANCH  14  15
HETATM   15  C1* UNL     1      -9.333   8.958  69.331  1.00  0.00    -0.153 C  
HETATM   16  O4* UNL     1      -9.732  10.312  69.633  1.00  0.00    -0.228 OA 
HETATM   17  C4* UNL     1     -10.448  10.857  68.498  1.00  0.00    -0.188 C  
HETATM   18  H2* UNL     1      -9.454   7.466  66.349  1.00  0.00     0.000 HD 
HETATM   19  C3* UNL     1     -10.299   9.882  67.325  1.00  0.00    -0.245 C  
HETATM   20  C2* UNL     1      -9.291   8.846  67.809  1.00  0.00    -0.141 C  
HETATM   21  O3* UNL     1      -9.799  10.536  66.152  1.00  0.00    -0.199 OA 
HETATM   22  H3* UNL     1      -9.707   9.931  65.425  1.00  0.00     0.000 HD 
HETATM   23  O2* UNL     1      -9.481   7.535  67.296  1.00  0.00    -0.140 OA 
BRANCH  17  24
HETATM   24  C5* UNL     1     -11.913  11.105  68.890  1.00  0.00    -0.298 C  
HETATM   25  O5* UNL     1     -12.315  10.177  69.897  1.00  0.00    -0.501 OA 
HETATM   26  H5* UNL     1     -13.220  10.330  70.139  1.00  0.00     0.000 HD 
ENDBRANCH  17  24
ENDBRANCH  14  15
ENDBRANCH   2   3
TORSDOF 3
ENDMDL
MODEL      108
REMARK 921   NORMALIZED FREE ENERGY PREDICTED BY IDOCK:   -4.30 KCAL/MOL
REMARK 922        TOTAL FREE ENERGY PREDICTED BY IDOCK:   -5.28 KCAL/MOL
REMARK 923 INTER-LIGAND FREE ENERGY PREDICTED BY IDOCK:   -5.55 KCAL/MOL
REMARK 924 INTRA-LIGAND FREE ENERGY PREDICTED BY IDOCK:    0.26 KCAL/MOL
REMARK 927      BINDING AFFINITY PREDICTED BY RF-SCORE:    0.00 PKD
ROOT
HETATM    1  C   UNL     1      -9.097   7.751  69.926  1.00  0.00    -0.147 C  
HETATM    2  O   UNL     1     -10.506   7.949  69.870  1.00  0.00    -0.220 OA 
ENDROOT
BRANCH   2   3
HETATM    3  C   UNL     1     -10.828   9.172  69.316  1.00  0.00    -0.132 A  
HETATM    4  N   UNL     1     -11.332  10.151  70.111  1.00  0.00    -0.282 NA 
HETATM    5  C   UNL     1     -11.585  11.350  69.575  1.00  0.00    -0.331 A  
HETATM    6  N   UNL     1     -11.987  12.343  70.446  1.00  0.00    -0.514 NA 
HETATM    7  N   UNL     1     -11.377  11.715  68.307  1.00  0.00    -0.259 NA 
HETATM    8  H2  UNL     1     -11.301  12.440  71.194  1.00  0.00     0.000 HD 
HETATM    9  C   UNL     1     -10.840  10.737  67.561  1.00  0.00    -0.288 A  
HETATM   10  H1  UNL     1     -12.180  13.257  70.037  1.00  0.00     0.000 HD 
HETATM   11  C   UNL     1     -10.541   9.450  67.980  1.00  0.00    -0.226 A  
HETATM   12  N   UNL     1      -9.980   8.726  66.950  1.00  0.00    -0.232 NA 
HETATM   13  C   UNL     1      -9.906   9.570  65.944  1.00  0.00    -0.290 A  
HETATM   14  N   UNL     1     -10.404  10.808  66.270  1.00  0.00    -0.248 NA 
BRANCH  14  15
HETATM   15  C1* UNL     1     -10.282  11.974  65.421  1.00  0.00    -0.263 C  
HETATM   16  O4* UNL     1      -9.120  12.714  65.855  1.00  0.00    -0.003 OA 
HETATM   17  C4* UNL     1      -9.555  13.908  66.550  1.00  0.00    -0.287 C  
HETATM   18  H2* UNL     1     -13.442  13.044  65.430  1.00  0.00     0.000 HD 
HETATM   19  C3* UNL     1     -11.068  14.055  66.350  1.00  0.00    -0.316 C  
HETATM   20  C2* UNL     1     -11.430  12.977  65.335  1.00  0.00    -0.312 C  
HETATM   21  O3* UNL     1     -11.411  15.346  65.831  1.00  0.00    -0.249 OA 
HETATM   22  H3* UNL     1     -12.348  15.437  65.707  1.00  0.00     0.000 HD 
HETATM   23  O2* UNL     1     -12.728  12.420  65.484  1.00  0.00    -0.530 OA 
BRANCH  17  24
HETATM   24  C5* UNL     1      -9.152  13.812  68.030  1.00  0.00    -0.191 C  
HETATM   25  O5* UNL     1     -10.163  14.394  68.852  1.00  0.00    -0.230 OA 
HETATM   26  H5* UNL     1      -9.914  14.335  69.767  1.00  0.00     0.000 HD 
ENDBRANCH  17  24
ENDBRANCH  14  15
ENDBRANCH   2   3
TORSDOF 3
ENDMDL
MODEL      109
REMARK 921   NORMALIZED FREE ENERGY PREDICTED BY IDOCK:   -4.28 KCAL/MOL
REMARK 922        TOTAL FREE ENERGY PREDICTED BY IDOCK:   -5.26 KCAL/MOL
REMARK 923 INTER-LIGAND FREE ENERGY PREDICTED BY IDOCK:   -5.74 KCAL/MOL
REMARK 924 INTRA-LIGAND FREE ENERGY PREDICTED BY IDOCK:    0.48 KCAL/MOL
REMARK 927      BINDING AFFINITY PREDICTED BY RF-SCORE:    0.00 PKD
ROOT
HETATM    1  C   UNL     1      -9.442   6.717  66.659  1.00  0.00    -0.164 C  
HETATM    2  O   UNL     1     -10.685   7.393  66.821  1.00  0.00    -0.319 OA 
ENDROOT
BRANCH   2   3
HETATM    3  C   UNL     1     -10.527   8.597  67.479  1.00  0.00    -0.266 A  
HETATM    4  N   UNL     1     -10.454   8.611  68.835  1.00  0.00    -0.212 NA 
HETATM    5  C   UNL     1     -10.243   9.775  69.458  1.00  0.00    -0.221 A  
HETATM    6  N   UNL     1     -10.061   9.720  70.825  1.00  0.00    -0.341 NA 
HETATM    7  N   UNL     1     -10.075  10.968  68.880  1.00  0.00    -0.203 NA 
HETATM    8  H2  UNL     1      -9.304   9.073  71.044  1.00  0.00     0.000 HD 
HETATM    9  C   UNL     1     -10.113  10.911  67.540  1.00  0.00    -0.184 A  
HETATM   10  H1  UNL     1      -9.901  10.609  71.300  1.00  0.00     0.000 HD 
HETATM   11  C   UNL     1     -10.335   9.782  66.768  1.00  0.00    -0.218 A  
HETATM   12  N   UNL     1     -10.282  10.095  65.427  1.00  0.00    -0.272 NA 
HETATM   13  C   UNL     1      -9.994  11.378  65.391  1.00  0.00    -0.245 A  
HETATM   14  N   UNL     1      -9.868  11.916  66.649  1.00  0.00    -0.198 NA 
BRANCH  14  15
HETATM   15  C1* UNL     1      -9.380  13.253  66.908  1.00  0.00    -0.244 C  
HETATM   16  O4* UNL     1      -9.666  13.565  68.289  1.00  0.00    -0.218 OA 
HETATM   17  C4* UNL     1     -10.759  14.514  68.341  1.00  0.00    -0.243 C  
HETATM   18  H2* UNL     1     -10.558  14.844  64.223  1.00  0.00     0.000 HD 
HETATM   19  C3* UNL     1     -11.032  15.008  66.915  1.00  0.00    -0.324 C  
HETATM   20  C2* UNL     1      -9.897  14.427  66.080  1.00  0.00    -0.320 C  
HETATM   21  O3* UNL     1     -11.010  16.439  66.837  1.00  0.00    -0.183 OA 
HETATM   22  H3* UNL     1     -11.180  16.745  65.954  1.00  0.00     0.000 HD 
HETATM   23  O2* UNL     1     -10.236  14.113  64.737  1.00  0.00    -0.419 OA 
BRANCH  17  24
HETATM   24  C5* UNL     1     -11.983  13.848  68.990  1.00  0.00    -0.364 C  
HETATM   25  O5* UNL     1     -12.771  14.826  69.667  1.00  0.00    -0.579 OA 
HETATM   26  H5* UNL     1     -13.527  14.415  70.068  1.00  0.00     0.000 HD 
ENDBRANCH  17  24
ENDBRANCH  14  15
ENDBRANCH   2   3
TORSDOF 3
ENDMDL
MODEL      110
REMARK 921   NORMALIZED FREE ENERGY PREDICTED BY IDOCK:   -4.28 KCAL/MOL
REMARK 922        TOTAL FREE ENERGY PREDICTED BY IDOCK:   -5.25 KCAL/MOL
REMARK 923 INTER-LIGAND FREE ENERGY PREDICTED BY IDOCK:   -5.15 KCAL/MOL
REMARK 924 INTRA-LIGAND FREE ENERGY PREDICTED BY IDOCK:   -0.10 KCAL/MOL
REMARK 927      BINDING AFFINITY PREDICTED BY RF-SCORE:    0.00 PKD
ROOT
HETATM    1  C   UNL     1     -12.778  12.072  63.411  1.00  0.00    -0.398 C  
HETATM    2  O   UNL     1     -12.052  13.250  63.747  1.00  0.00    -0.470 OA 
ENDROOT
BRANCH   2   3
HETATM    3  C   UNL     1     -11.566  13.198  65.038  1.00  0.00    -0.325 A  
HETATM    4  N   UNL     1     -12.140  13.968  65.999  1.00  0.00    -0.417 NA 
HETATM    5  C   UNL     1     -11.699  13.866  67.257  1.00  0.00    -0.386 A  
HETATM    6  N   UNL     1     -12.390  14.581  68.213  1.00  0.00    -0.595 NA 
HETATM    7  N   UNL     1     -10.734  13.053  67.699  1.00  0.00    -0.225 NA 
HETATM    8  H2  UNL     1     -13.380  14.336  68.176  1.00  0.00     0.000 HD 
HETATM    9  C   UNL     1     -10.218  12.279  66.732  1.00  0.00    -0.211 A  
HETATM   10  H1  UNL     1     -12.053  14.503  69.173  1.00  0.00     0.000 HD 
HETATM   11  C   UNL     1     -10.568  12.289  65.391  1.00  0.00    -0.274 A  
HETATM   12  N   UNL     1      -9.846  11.342  64.697  1.00  0.00    -0.250 NA 
HETATM   13  C   UNL     1      -9.106  10.747  65.607  1.00  0.00    -0.194 A  
HETATM   14  N   UNL     1      -9.305  11.272  66.860  1.00  0.00    -0.175 NA 
BRANCH  14  15
HETATM   15  C1* UNL     1      -8.764  10.693  68.071  1.00  0.00    -0.126 C  
HETATM   16  O4* UNL     1      -7.462  11.279  68.293  1.00  0.00    -0.088 OA 
HETATM   17  C4* UNL     1      -6.444  10.295  67.986  1.00  0.00    -0.060 C  
HETATM   18  H2* UNL     1      -9.431   7.469  67.537  1.00  0.00     0.000 HD 
HETATM   19  C3* UNL     1      -7.134   8.941  67.779  1.00  0.00    -0.079 C  
HETATM   20  C2* UNL     1      -8.585   9.181  68.180  1.00  0.00    -0.129 C  
HETATM   21  O3* UNL     1      -6.562   7.922  68.608  1.00  0.00    -0.053 OA 
HETATM   22  H3* UNL     1      -6.990   7.084  68.479  1.00  0.00     0.000 HD 
HETATM   23  O2* UNL     1      -9.542   8.410  67.469  1.00  0.00    -0.145 OA 
BRANCH  17  24
HETATM   24  C5* UNL     1      -5.644  10.755  66.757  1.00  0.00    -0.064 C  
HETATM   25  O5* UNL     1      -6.092  12.042  66.334  1.00  0.00    -0.487 OA 
HETATM   26  H5* UNL     1      -5.597  12.326  65.575  1.00  0.00     0.000 HD 
ENDBRANCH  17  24
ENDBRANCH  14  15
ENDBRANCH   2   3
TORSDOF 3
ENDMDL
MODEL      111
REMARK 921   NORMALIZED FREE ENERGY PREDICTED BY IDOCK:   -4.27 KCAL/MOL
REMARK 922        TOTAL FREE ENERGY PREDICTED BY IDOCK:   -5.24 KCAL/MOL
REMARK 923 INTER-LIGAND FREE ENERGY PREDICTED BY IDOCK:   -5.34 KCAL/MOL
REMARK 924 INTRA-LIGAND FREE ENERGY PREDICTED BY IDOCK:    0.10 KCAL/MOL
REMARK 927      BINDING AFFINITY PREDICTED BY RF-SCORE:    0.00 PKD
ROOT
HETATM    1  C   UNL     1      -9.962  10.433  64.918  1.00  0.00    -0.339 C  
HETATM    2  O   UNL     1      -9.565   9.192  65.493  1.00  0.00    -0.257 OA 
ENDROOT
BRANCH   2   3
HETATM    3  C   UNL     1      -9.835   9.148  66.846  1.00  0.00    -0.217 A  
HETATM    4  N   UNL     1     -10.838   9.913  67.351  1.00  0.00    -0.269 NA 
HETATM    5  C   UNL     1     -11.129   9.818  68.652  1.00  0.00    -0.093 A  
HETATM    6  N   UNL     1     -12.228  10.527  69.092  1.00  0.00    -0.721 NA 
HETATM    7  N   UNL     1     -10.538   9.018  69.544  1.00  0.00    -0.226 NA 
HETATM    8  H2  UNL     1     -13.046  10.270  68.539  1.00  0.00     0.000 HD 
HETATM    9  C   UNL     1      -9.581   8.248  69.004  1.00  0.00    -0.156 A  
HETATM   10  H1  UNL     1     -12.450  10.455  70.085  1.00  0.00     0.000 HD 
HETATM   11  C   UNL     1      -9.167   8.252  67.681  1.00  0.00    -0.137 A  
HETATM   12  N   UNL     1      -8.179   7.312  67.481  1.00  0.00    -0.113 NA 
HETATM   13  C   UNL     1      -8.027   6.728  68.650  1.00  0.00    -0.119 A  
HETATM   14  N   UNL     1      -8.865   7.252  69.604  1.00  0.00    -0.141 NA 
BRANCH  14  15
HETATM   15  C1* UNL     1      -9.041   6.683  70.922  1.00  0.00    -0.154 C  
HETATM   16  O4* UNL     1     -10.190   5.808  70.872  1.00  0.00    -0.196 OA 
HETATM   17  C4* UNL     1     -11.293   6.439  71.566  1.00  0.00    -0.294 C  
HETATM   18  H2* UNL     1      -8.704   9.419  72.799  1.00  0.00     0.000 HD 
HETATM   19  C3* UNL     1     -10.756   7.677  72.292  1.00  0.00    -0.260 C  
HETATM   20  C2* UNL     1      -9.243   7.598  72.127  1.00  0.00    -0.141 C  
HETATM   21  O3* UNL     1     -11.094   7.663  73.685  1.00  0.00    -0.522 OA 
HETATM   22  H3* UNL     1     -10.762   8.431  74.135  1.00  0.00     0.000 HD 
HETATM   23  O2* UNL     1      -8.578   8.850  72.049  1.00  0.00    -0.367 OA 
BRANCH  17  24
HETATM   24  C5* UNL     1     -12.406   6.770  70.559  1.00  0.00    -0.101 C  
HETATM   25  O5* UNL     1     -13.064   7.979  70.935  1.00  0.00    -0.518 OA 
HETATM   26  H5* UNL     1     -13.752   8.183  70.312  1.00  0.00     0.000 HD 
ENDBRANCH  17  24
ENDBRANCH  14  15
ENDBRANCH   2   3
TORSDOF 3
ENDMDL
MODEL      112
REMARK 921   NORMALIZED FREE ENERGY PREDICTED BY IDOCK:   -4.24 KCAL/MOL
REMARK 922        TOTAL FREE ENERGY PREDICTED BY IDOCK:   -5.21 KCAL/MOL
REMARK 923 INTER-LIGAND FREE ENERGY PREDICTED BY IDOCK:   -5.38 KCAL/MOL
REMARK 924 INTRA-LIGAND FREE ENERGY PREDICTED BY IDOCK:    0.17 KCAL/MOL
REMARK 927      BINDING AFFINITY PREDICTED BY RF-SCORE:    0.00 PKD
ROOT
HETATM    1  C   UNL     1     -10.986   6.806  68.599  1.00  0.00    -0.199 C  
HETATM    2  O   UNL     1     -10.382   8.032  68.998  1.00  0.00    -0.214 OA 
ENDROOT
BRANCH   2   3
HETATM    3  C   UNL     1      -9.914   8.747  67.913  1.00  0.00    -0.187 A  
HETATM    4  N   UNL     1      -9.525   8.081  66.794  1.00  0.00    -0.187 NA 
HETATM    5  C   UNL     1      -9.129   8.786  65.729  1.00  0.00    -0.212 A  
HETATM    6  N   UNL     1      -8.855   8.069  64.582  1.00  0.00    -0.354 NA 
HETATM    7  N   UNL     1      -9.084  10.117  65.628  1.00  0.00    -0.169 NA 
HETATM    8  H2  UNL     1      -9.663   7.498  64.334  1.00  0.00     0.000 HD 
HETATM    9  C   UNL     1      -9.513  10.742  66.735  1.00  0.00    -0.173 A  
HETATM   10  H1  UNL     1      -8.553   8.607  63.770  1.00  0.00     0.000 HD 
HETATM   11  C   UNL     1      -9.937  10.141  67.910  1.00  0.00    -0.162 A  
HETATM   12  N   UNL     1     -10.327  11.094  68.826  1.00  0.00    -0.199 NA 
HETATM   13  C   UNL     1     -10.179  12.243  68.203  1.00  0.00    -0.212 A  
HETATM   14  N   UNL     1      -9.700  12.081  66.925  1.00  0.00    -0.200 NA 
BRANCH  14  15
HETATM   15  C1* UNL     1      -9.615  13.151  65.955  1.00  0.00    -0.157 C  
HETATM   16  O4* UNL     1      -9.454  14.390  66.681  1.00  0.00    -0.260 OA 
HETATM   17  C4* UNL     1     -10.695  15.134  66.622  1.00  0.00    -0.310 C  
HETATM   18  H2* UNL     1     -12.152  12.334  63.949  1.00  0.00     0.000 HD 
HETATM   19  C3* UNL     1     -11.621  14.443  65.615  1.00  0.00    -0.347 C  
HETATM   20  C2* UNL     1     -10.753  13.372  64.963  1.00  0.00    -0.343 C  
HETATM   21  O3* UNL     1     -12.097  15.356  64.618  1.00  0.00    -0.257 OA 
HETATM   22  H3* UNL     1     -12.671  14.928  63.994  1.00  0.00     0.000 HD 
HETATM   23  O2* UNL     1     -11.444  12.196  64.567  1.00  0.00    -0.318 OA 
BRANCH  17  24
HETATM   24  C5* UNL     1     -11.302  15.227  68.031  1.00  0.00    -0.338 C  
HETATM   25  O5* UNL     1     -12.421  14.348  68.140  1.00  0.00    -0.579 OA 
HETATM   26  H5* UNL     1     -12.796  14.405  69.011  1.00  0.00     0.000 HD 
ENDBRANCH  17  24
ENDBRANCH  14  15
ENDBRANCH   2   3
TORSDOF 3
ENDMDL
MODEL      113
REMARK 921   NORMALIZED FREE ENERGY PREDICTED BY IDOCK:   -4.23 KCAL/MOL
REMARK 922        TOTAL FREE ENERGY PREDICTED BY IDOCK:   -5.19 KCAL/MOL
REMARK 923 INTER-LIGAND FREE ENERGY PREDICTED BY IDOCK:   -5.63 KCAL/MOL
REMARK 924 INTRA-LIGAND FREE ENERGY PREDICTED BY IDOCK:    0.43 KCAL/MOL
REMARK 927      BINDING AFFINITY PREDICTED BY RF-SCORE:    0.00 PKD
ROOT
HETATM    1  C   UNL     1      -5.490  12.474  70.368  1.00  0.00    -0.149 C  
HETATM    2  O   UNL     1      -5.576  13.020  69.056  1.00  0.00    -0.068 OA 
ENDROOT
BRANCH   2   3
HETATM    3  C   UNL     1      -6.851  12.902  68.538  1.00  0.00    -0.095 A  
HETATM    4  N   UNL     1      -7.518  11.726  68.672  1.00  0.00    -0.116 NA 
HETATM    5  C   UNL     1      -8.773  11.642  68.218  1.00  0.00    -0.163 A  
HETATM    6  N   UNL     1      -9.447  10.467  68.481  1.00  0.00    -0.153 NA 
HETATM    7  N   UNL     1      -9.478  12.619  67.641  1.00  0.00    -0.183 NA 
HETATM    8  H2  UNL     1      -9.433  10.280  69.484  1.00  0.00     0.000 HD 
HETATM    9  C   UNL     1      -8.803  13.776  67.561  1.00  0.00    -0.197 A  
HETATM   10  H1  UNL     1     -10.405  10.403  68.135  1.00  0.00     0.000 HD 
HETATM   11  C   UNL     1      -7.500  14.001  67.976  1.00  0.00    -0.141 A  
HETATM   12  N   UNL     1      -7.145  15.315  67.760  1.00  0.00    -0.143 NA 
HETATM   13  C   UNL     1      -8.223  15.879  67.262  1.00  0.00    -0.185 A  
HETATM   14  N   UNL     1      -9.261  14.989  67.134  1.00  0.00    -0.207 NA 
BRANCH  14  15
HETATM   15  C1* UNL     1     -10.613  15.372  66.788  1.00  0.00    -0.309 C  
HETATM   16  O4* UNL     1     -11.301  14.187  66.331  1.00  0.00    -0.320 OA 
HETATM   17  C4* UNL     1     -11.465  14.262  64.894  1.00  0.00    -0.378 C  
HETATM   18  H2* UNL     1     -10.009  18.132  65.014  1.00  0.00     0.000 HD 
HETATM   19  C3* UNL     1     -11.066  15.671  64.440  1.00  0.00    -0.160 C  
HETATM   20  C2* UNL     1     -10.853  16.449  65.733  1.00  0.00    -0.145 C  
HETATM   21  O3* UNL     1     -12.101  16.291  63.664  1.00  0.00    -1.254 OA 
HETATM   22  H3* UNL     1     -11.853  17.163  63.383  1.00  0.00     0.000 HD 
HETATM   23  O2* UNL     1      -9.860  17.461  65.670  1.00  0.00    -0.544 OA 
BRANCH  17  24
HETATM   24  C5* UNL     1     -10.631  13.157  64.226  1.00  0.00    -0.412 C  
HETATM   25  O5* UNL     1     -11.146  11.874  64.578  1.00  0.00    -0.304 OA 
HETATM   26  H5* UNL     1     -10.630  11.191  64.165  1.00  0.00     0.000 HD 
ENDBRANCH  17  24
ENDBRANCH  14  15
ENDBRANCH   2   3
TORSDOF 3
ENDMDL
MODEL      114
REMARK 921   NORMALIZED FREE ENERGY PREDICTED BY IDOCK:   -4.22 KCAL/MOL
REMARK 922        TOTAL FREE ENERGY PREDICTED BY IDOCK:   -5.18 KCAL/MOL
REMARK 923 INTER-LIGAND FREE ENERGY PREDICTED BY IDOCK:   -5.17 KCAL/MOL
REMARK 924 INTRA-LIGAND FREE ENERGY PREDICTED BY IDOCK:   -0.01 KCAL/MOL
REMARK 927      BINDING AFFINITY PREDICTED BY RF-SCORE:    0.00 PKD
ROOT
HETATM    1  C   UNL     1      -7.373   8.101  63.258  1.00  0.00    -0.103 C  
HETATM    2  O   UNL     1      -7.139   7.975  64.657  1.00  0.00    -0.072 OA 
ENDROOT
BRANCH   2   3
HETATM    3  C   UNL     1      -8.317   7.998  65.376  1.00  0.00    -0.153 A  
HETATM    4  N   UNL     1      -8.804   6.840  65.893  1.00  0.00    -0.142 NA 
HETATM    5  C   UNL     1      -9.915   6.883  66.636  1.00  0.00    -0.143 A  
HETATM    6  N   UNL     1     -10.305   5.702  67.234  1.00  0.00    -0.215 NA 
HETATM    7  N   UNL     1     -10.619   7.974  66.954  1.00  0.00    -0.324 NA 
HETATM    8  H2  UNL     1      -9.535   5.329  67.790  1.00  0.00     0.000 HD 
HETATM    9  C   UNL     1     -10.087   9.103  66.461  1.00  0.00    -0.287 A  
HETATM   10  H1  UNL     1     -11.152   5.735  67.801  1.00  0.00     0.000 HD 
HETATM   11  C   UNL     1      -8.954   9.204  65.668  1.00  0.00    -0.203 A  
HETATM   12  N   UNL     1      -8.691  10.523  65.368  1.00  0.00    -0.178 NA 
HETATM   13  C   UNL     1      -9.622  11.205  65.998  1.00  0.00    -0.217 A  
HETATM   14  N   UNL     1     -10.486  10.389  66.687  1.00  0.00    -0.234 NA 
BRANCH  14  15
HETATM   15  C1* UNL     1     -11.489  10.873  67.610  1.00  0.00    -0.200 C  
HETATM   16  O4* UNL     1     -12.150  11.998  66.990  1.00  0.00    -0.603 OA 
HETATM   17  C4* UNL     1     -11.712  13.217  67.637  1.00  0.00    -0.366 C  
HETATM   18  H2* UNL     1      -9.718  10.917  70.437  1.00  0.00     0.000 HD 
HETATM   19  C3* UNL     1     -10.906  12.835  68.884  1.00  0.00    -0.196 C  
HETATM   20  C2* UNL     1     -11.080  11.326  69.010  1.00  0.00    -0.244 C  
HETATM   21  O3* UNL     1     -11.408  13.483  70.059  1.00  0.00    -0.478 OA 
HETATM   22  H3* UNL     1     -10.908  13.246  70.831  1.00  0.00     0.000 HD 
HETATM   23  O2* UNL     1      -9.971  10.635  69.566  1.00  0.00    -0.197 OA 
BRANCH  17  24
HETATM   24  C5* UNL     1     -10.907  14.064  66.638  1.00  0.00    -0.297 C  
HETATM   25  O5* UNL     1     -11.637  14.213  65.422  1.00  0.00    -0.318 OA 
HETATM   26  H5* UNL     1     -11.140  14.736  64.804  1.00  0.00     0.000 HD 
ENDBRANCH  17  24
ENDBRANCH  14  15
ENDBRANCH   2   3
TORSDOF 3
ENDMDL
MODEL      115
REMARK 921   NORMALIZED FREE ENERGY PREDICTED BY IDOCK:   -4.21 KCAL/MOL
REMARK 922        TOTAL FREE ENERGY PREDICTED BY IDOCK:   -5.18 KCAL/MOL
REMARK 923 INTER-LIGAND FREE ENERGY PREDICTED BY IDOCK:   -5.80 KCAL/MOL
REMARK 924 INTRA-LIGAND FREE ENERGY PREDICTED BY IDOCK:    0.62 KCAL/MOL
REMARK 927      BINDING AFFINITY PREDICTED BY RF-SCORE:    0.00 PKD
ROOT
HETATM    1  C   UNL     1      -8.567   9.082  71.122  1.00  0.00    -0.190 C  
HETATM    2  O   UNL     1      -9.813   8.458  70.829  1.00  0.00    -0.175 OA 
ENDROOT
BRANCH   2   3
HETATM    3  C   UNL     1     -10.846   9.373  70.794  1.00  0.00    -0.305 A  
HETATM    4  N   UNL     1     -11.840   9.291  71.716  1.00  0.00    -0.374 NA 
HETATM    5  C   UNL     1     -12.804  10.218  71.709  1.00  0.00    -0.460 A  
HETATM    6  N   UNL     1     -13.725  10.158  72.735  1.00  0.00    -0.208 NA 
HETATM    7  N   UNL     1     -12.899  11.262  70.881  1.00  0.00    -0.292 NA 
HETATM    8  H2  UNL     1     -13.240  10.175  73.632  1.00  0.00     0.000 HD 
HETATM    9  C   UNL     1     -11.879  11.335  70.011  1.00  0.00    -0.367 A  
HETATM   10  H1  UNL     1     -14.461  10.865  72.729  1.00  0.00     0.000 HD 
HETATM   11  C   UNL     1     -10.826  10.442  69.897  1.00  0.00    -0.298 A  
HETATM   12  N   UNL     1      -9.954  10.847  68.910  1.00  0.00    -0.196 NA 
HETATM   13  C   UNL     1     -10.450  11.981  68.465  1.00  0.00    -0.229 A  
HETATM   14  N   UNL     1     -11.612  12.326  69.111  1.00  0.00    -0.297 NA 
BRANCH  14  15
HETATM   15  C1* UNL     1     -12.271  13.605  68.954  1.00  0.00    -0.186 C  
HETATM   16  O4* UNL     1     -11.640  14.291  67.851  1.00  0.00    -0.299 OA 
HETATM   17  C4* UNL     1     -10.819  15.365  68.372  1.00  0.00    -0.268 C  
HETATM   18  H2* UNL     1     -12.370  14.614  72.132  1.00  0.00     0.000 HD 
HETATM   19  C3* UNL     1     -11.121  15.516  69.867  1.00  0.00    -0.310 C  
HETATM   20  C2* UNL     1     -12.307  14.592  70.118  1.00  0.00    -0.342 C  
HETATM   21  O3* UNL     1     -11.476  16.864  70.202  1.00  0.00    -0.259 OA 
HETATM   22  H3* UNL     1     -11.663  16.957  71.129  1.00  0.00     0.000 HD 
HETATM   23  O2* UNL     1     -12.347  14.000  71.408  1.00  0.00    -0.350 OA 
BRANCH  17  24
HETATM   24  C5* UNL     1      -9.340  15.060  68.086  1.00  0.00    -0.187 C  
HETATM   25  O5* UNL     1      -8.508  15.762  69.009  1.00  0.00    -0.207 OA 
HETATM   26  H5* UNL     1      -7.594  15.574  68.832  1.00  0.00     0.000 HD 
ENDBRANCH  17  24
ENDBRANCH  14  15
ENDBRANCH   2   3
TORSDOF 3
ENDMDL
MODEL      116
REMARK 921   NORMALIZED FREE ENERGY PREDICTED BY IDOCK:   -4.19 KCAL/MOL
REMARK 922        TOTAL FREE ENERGY PREDICTED BY IDOCK:   -5.15 KCAL/MOL
REMARK 923 INTER-LIGAND FREE ENERGY PREDICTED BY IDOCK:   -5.70 KCAL/MOL
REMARK 924 INTRA-LIGAND FREE ENERGY PREDICTED BY IDOCK:    0.55 KCAL/MOL
REMARK 927      BINDING AFFINITY PREDICTED BY RF-SCORE:    0.00 PKD
ROOT
HETATM    1  C   UNL     1     -12.016  13.272  67.944  1.00  0.00    -0.309 C  
HETATM    2  O   UNL     1     -11.560  12.962  69.257  1.00  0.00    -0.279 OA 
ENDROOT
BRANCH   2   3
HETATM    3  C   UNL     1     -11.205  11.633  69.373  1.00  0.00    -0.246 A  
HETATM    4  N   UNL     1     -10.159  11.157  68.649  1.00  0.00    -0.194 NA 
HETATM    5  C   UNL     1      -9.789   9.883  68.812  1.00  0.00    -0.171 A  
HETATM    6  N   UNL     1      -8.651   9.480  68.142  1.00  0.00    -0.120 NA 
HETATM    7  N   UNL     1     -10.336   8.995  69.647  1.00  0.00    -0.206 NA 
HETATM    8  H2  UNL     1      -7.875  10.097  68.383  1.00  0.00     0.000 HD 
HETATM    9  C   UNL     1     -11.339   9.510  70.375  1.00  0.00    -0.264 A  
HETATM   10  H1  UNL     1      -8.369   8.508  68.267  1.00  0.00     0.000 HD 
HETATM   11  C   UNL     1     -11.835  10.802  70.300  1.00  0.00    -0.349 A  
HETATM   12  N   UNL     1     -12.850  10.984  71.214  1.00  0.00    -0.414 NA 
HETATM   13  C   UNL     1     -12.938   9.838  71.853  1.00  0.00    -0.440 A  
HETATM   14  N   UNL     1     -12.032   8.916  71.390  1.00  0.00    -0.295 NA 
BRANCH  14  15
HETATM   15  C1* UNL     1     -11.783   7.641  72.027  1.00  0.00    -0.298 C  
HETATM   16  O4* UNL     1     -10.740   7.836  73.007  1.00  0.00    -0.354 OA 
HETATM   17  C4* UNL     1      -9.514   7.242  72.515  1.00  0.00    -0.147 C  
HETATM   18  H2* UNL     1     -11.653   5.655  69.349  1.00  0.00     0.000 HD 
HETATM   19  C3* UNL     1      -9.848   6.426  71.260  1.00  0.00    -0.181 C  
HETATM   20  C2* UNL     1     -11.371   6.436  71.186  1.00  0.00    -0.319 C  
HETATM   21  O3* UNL     1      -9.375   5.077  71.364  1.00  0.00    -0.142 OA 
HETATM   22  H3* UNL     1      -9.581   4.572  70.587  1.00  0.00     0.000 HD 
HETATM   23  O2* UNL     1     -11.910   6.406  69.873  1.00  0.00    -0.384 OA 
BRANCH  17  24
HETATM   24  C5* UNL     1      -8.480   8.348  72.253  1.00  0.00    -0.177 C  
HETATM   25  O5* UNL     1      -7.872   8.751  73.480  1.00  0.00    -0.408 OA 
HETATM   26  H5* UNL     1      -7.233   9.435  73.318  1.00  0.00     0.000 HD 
ENDBRANCH  17  24
ENDBRANCH  14  15
ENDBRANCH   2   3
TORSDOF 3
ENDMDL
MODEL      117
REMARK 921   NORMALIZED FREE ENERGY PREDICTED BY IDOCK:   -4.18 KCAL/MOL
REMARK 922        TOTAL FREE ENERGY PREDICTED BY IDOCK:   -5.14 KCAL/MOL
REMARK 923 INTER-LIGAND FREE ENERGY PREDICTED BY IDOCK:   -5.36 KCAL/MOL
REMARK 924 INTRA-LIGAND FREE ENERGY PREDICTED BY IDOCK:    0.22 KCAL/MOL
REMARK 927      BINDING AFFINITY PREDICTED BY RF-SCORE:    0.00 PKD
ROOT
HETATM    1  C   UNL     1      -6.812   9.556  70.588  1.00  0.00    -0.115 C  
HETATM    2  O   UNL     1      -7.299   9.758  69.265  1.00  0.00    -0.072 OA 
ENDROOT
BRANCH   2   3
HETATM    3  C   UNL     1      -8.657  10.006  69.254  1.00  0.00    -0.168 A  
HETATM    4  N   UNL     1      -9.504   9.104  69.814  1.00  0.00    -0.172 NA 
HETATM    5  C   UNL     1     -10.811   9.383  69.849  1.00  0.00    -0.236 A  
HETATM    6  N   UNL     1     -11.614   8.490  70.530  1.00  0.00    -0.435 NA 
HETATM    7  N   UNL     1     -11.401  10.492  69.396  1.00  0.00    -0.254 NA 
HETATM    8  H2  UNL     1     -11.264   8.370  71.481  1.00  0.00     0.000 HD 
HETATM    9  C   UNL     1     -10.531  11.378  68.887  1.00  0.00    -0.193 A  
HETATM   10  H1  UNL     1     -12.611   8.703  70.557  1.00  0.00     0.000 HD 
HETATM   11  C   UNL     1      -9.159  11.216  68.775  1.00  0.00    -0.139 A  
HETATM   12  N   UNL     1      -8.584  12.341  68.225  1.00  0.00    -0.178 NA 
HETATM   13  C   UNL     1      -9.582  13.178  68.046  1.00  0.00    -0.220 A  
HETATM   14  N   UNL     1     -10.783  12.645  68.445  1.00  0.00    -0.235 NA 
BRANCH  14  15
HETATM   15  C1* UNL     1     -12.012  13.403  68.533  1.00  0.00    -0.328 C  
HETATM   16  O4* UNL     1     -11.837  14.614  67.764  1.00  0.00    -0.357 OA 
HETATM   17  C4* UNL     1     -11.692  15.732  68.673  1.00  0.00    -0.344 C  
HETATM   18  H2* UNL     1     -12.606  13.194  71.809  1.00  0.00     0.000 HD 
HETATM   19  C3* UNL     1     -12.021  15.244  70.089  1.00  0.00    -0.338 C  
HETATM   20  C2* UNL     1     -12.551  13.827  69.897  1.00  0.00    -0.092 C  
HETATM   21  O3* UNL     1     -13.023  16.058  70.711  1.00  0.00    -0.585 OA 
HETATM   22  H3* UNL     1     -13.226  15.756  71.588  1.00  0.00     0.000 HD 
HETATM   23  O2* UNL     1     -12.270  12.929  70.960  1.00  0.00    -0.309 OA 
BRANCH  17  24
HETATM   24  C5* UNL     1     -10.272  16.307  68.552  1.00  0.00    -0.247 C  
HETATM   25  O5* UNL     1     -10.212  17.598  69.158  1.00  0.00    -0.342 OA 
HETATM   26  H5* UNL     1      -9.335  17.953  69.083  1.00  0.00     0.000 HD 
ENDBRANCH  17  24
ENDBRANCH  14  15
ENDBRANCH   2   3
TORSDOF 3
ENDMDL
MODEL      118
REMARK 921   NORMALIZED FREE ENERGY PREDICTED BY IDOCK:   -4.17 KCAL/MOL
REMARK 922        TOTAL FREE ENERGY PREDICTED BY IDOCK:   -5.13 KCAL/MOL
REMARK 923 INTER-LIGAND FREE ENERGY PREDICTED BY IDOCK:   -5.11 KCAL/MOL
REMARK 924 INTRA-LIGAND FREE ENERGY PREDICTED BY IDOCK:   -0.02 KCAL/MOL
REMARK 927      BINDING AFFINITY PREDICTED BY RF-SCORE:    0.00 PKD
ROOT
HETATM    1  C   UNL     1     -12.247  14.573  64.406  1.00  0.00    -0.458 C  
HETATM    2  O   UNL     1     -12.740  13.487  65.184  1.00  0.00    -0.611 OA 
ENDROOT
BRANCH   2   3
HETATM    3  C   UNL     1     -11.920  13.219  66.262  1.00  0.00    -0.417 A  
HETATM    4  N   UNL     1     -12.219  13.754  67.475  1.00  0.00    -0.308 NA 
HETATM    5  C   UNL     1     -11.451  13.441  68.524  1.00  0.00    -0.310 A  
HETATM    6  N   UNL     1     -11.862  13.915  69.753  1.00  0.00    -0.309 NA 
HETATM    7  N   UNL     1     -10.396  12.622  68.522  1.00  0.00    -0.235 NA 
HETATM    8  H2  UNL     1     -12.822  13.619  69.931  1.00  0.00     0.000 HD 
HETATM    9  C   UNL     1     -10.155  12.081  67.318  1.00  0.00    -0.194 A  
HETATM   10  H1  UNL     1     -11.276  13.676  70.553  1.00  0.00     0.000 HD 
HETATM   11  C   UNL     1     -10.856  12.325  66.148  1.00  0.00    -0.279 A  
HETATM   12  N   UNL     1     -10.343  11.576  65.112  1.00  0.00    -0.266 NA 
HETATM   13  C   UNL     1      -9.377  10.866  65.654  1.00  0.00    -0.207 A  
HETATM   14  N   UNL     1      -9.233  11.127  66.994  1.00  0.00    -0.161 NA 
BRANCH  14  15
HETATM   15  C1* UNL     1      -8.377  10.363  67.876  1.00  0.00    -0.114 C  
HETATM   16  O4* UNL     1      -7.328   9.779  67.073  1.00  0.00    -0.090 OA 
HETATM   17  C4* UNL     1      -7.577   8.359  66.933  1.00  0.00    -0.091 C  
HETATM   18  H2* UNL     1     -10.673   8.719  69.652  1.00  0.00     0.000 HD 
HETATM   19  C3* UNL     1      -8.715   7.977  67.886  1.00  0.00    -0.128 C  
HETATM   20  C2* UNL     1      -8.964   9.231  68.716  1.00  0.00    -0.132 C  
HETATM   21  O3* UNL     1      -8.346   6.891  68.745  1.00  0.00    -0.120 OA 
HETATM   22  H3* UNL     1      -9.051   6.654  69.335  1.00  0.00     0.000 HD 
HETATM   23  O2* UNL     1     -10.309   9.424  69.129  1.00  0.00    -0.198 OA 
BRANCH  17  24
HETATM   24  C5* UNL     1      -7.891   8.038  65.464  1.00  0.00    -0.106 C  
HETATM   25  O5* UNL     1      -9.084   7.261  65.376  1.00  0.00    -0.378 OA 
HETATM   26  H5* UNL     1      -9.278   7.063  64.467  1.00  0.00     0.000 HD 
ENDBRANCH  17  24
ENDBRANCH  14  15
ENDBRANCH   2   3
TORSDOF 3
ENDMDL
MODEL      119
REMARK 921   NORMALIZED FREE ENERGY PREDICTED BY IDOCK:   -4.17 KCAL/MOL
REMARK 922        TOTAL FREE ENERGY PREDICTED BY IDOCK:   -5.12 KCAL/MOL
REMARK 923 INTER-LIGAND FREE ENERGY PREDICTED BY IDOCK:   -5.39 KCAL/MOL
REMARK 924 INTRA-LIGAND FREE ENERGY PREDICTED BY IDOCK:    0.26 KCAL/MOL
REMARK 927      BINDING AFFINITY PREDICTED BY RF-SCORE:    0.00 PKD
ROOT
HETATM    1  C   UNL     1     -12.035   9.931  69.836  1.00  0.00     0.058 C  
HETATM    2  O   UNL     1     -12.435  11.295  69.766  1.00  0.00    -0.232 OA 
ENDROOT
BRANCH   2   3
HETATM    3  C   UNL     1     -11.479  12.076  69.148  1.00  0.00    -0.300 A  
HETATM    4  N   UNL     1     -10.693  11.528  68.184  1.00  0.00    -0.195 NA 
HETATM    5  C   UNL     1      -9.811  12.308  67.551  1.00  0.00    -0.193 A  
HETATM    6  N   UNL     1      -9.119  11.735  66.503  1.00  0.00    -0.200 NA 
HETATM    7  N   UNL     1      -9.615  13.614  67.753  1.00  0.00    -0.217 NA 
HETATM    8  H2  UNL     1      -9.779  11.347  65.829  1.00  0.00     0.000 HD 
HETATM    9  C   UNL     1     -10.435  14.130  68.681  1.00  0.00    -0.250 A  
HETATM   10  H1  UNL     1      -8.446  12.330  66.021  1.00  0.00     0.000 HD 
HETATM   11  C   UNL     1     -11.382  13.440  69.421  1.00  0.00    -0.226 A  
HETATM   12  N   UNL     1     -12.055  14.298  70.263  1.00  0.00    -0.314 NA 
HETATM   13  C   UNL     1     -11.552  15.486  70.009  1.00  0.00    -0.341 A  
HETATM   14  N   UNL     1     -10.574  15.438  69.045  1.00  0.00    -0.236 NA 
BRANCH  14  15
HETATM   15  C1* UNL     1      -9.981  16.612  68.442  1.00  0.00    -0.255 C  
HETATM   16  O4* UNL     1     -10.773  16.958  67.284  1.00  0.00    -0.297 OA 
HETATM   17  C4* UNL     1     -10.036  16.608  66.088  1.00  0.00    -0.337 C  
HETATM   18  H2* UNL     1      -6.765  15.725  68.460  1.00  0.00     0.000 HD 
HETATM   19  C3* UNL     1      -8.608  16.231  66.498  1.00  0.00    -0.297 C  
HETATM   20  C2* UNL     1      -8.526  16.578  67.980  1.00  0.00    -0.186 C  
HETATM   21  O3* UNL     1      -7.631  16.984  65.768  1.00  0.00    -0.306 OA 
HETATM   22  H3* UNL     1      -6.746  16.749  66.022  1.00  0.00     0.000 HD 
HETATM   23  O2* UNL     1      -7.670  15.745  68.748  1.00  0.00    -0.153 OA 
BRANCH  17  24
HETATM   24  C5* UNL     1     -10.768  15.474  65.351  1.00  0.00    -0.405 C  
HETATM   25  O5* UNL     1      -9.831  14.670  64.636  1.00  0.00    -0.508 OA 
HETATM   26  H5* UNL     1     -10.284  13.970  64.181  1.00  0.00     0.000 HD 
ENDBRANCH  17  24
ENDBRANCH  14  15
ENDBRANCH   2   3
TORSDOF 3
ENDMDL
MODEL      120
REMARK 921   NORMALIZED FREE ENERGY PREDICTED BY IDOCK:   -4.17 KCAL/MOL
REMARK 922        TOTAL FREE ENERGY PREDICTED BY IDOCK:   -5.12 KCAL/MOL
REMARK 923 INTER-LIGAND FREE ENERGY PREDICTED BY IDOCK:   -5.53 KCAL/MOL
REMARK 924 INTRA-LIGAND FREE ENERGY PREDICTED BY IDOCK:    0.41 KCAL/MOL
REMARK 927      BINDING AFFINITY PREDICTED BY RF-SCORE:    0.00 PKD
ROOT
HETATM    1  C   UNL     1      -7.739   6.389  69.830  1.00  0.00    -0.109 C  
HETATM    2  O   UNL     1      -7.419   7.457  68.946  1.00  0.00    -0.095 OA 
ENDROOT
BRANCH   2   3
HETATM    3  C   UNL     1      -8.539   7.930  68.292  1.00  0.00    -0.124 A  
HETATM    4  N   UNL     1      -9.410   7.046  67.738  1.00  0.00    -0.126 NA 
HETATM    5  C   UNL     1     -10.521   7.513  67.158  1.00  0.00    -0.336 A  
HETATM    6  N   UNL     1     -11.427   6.572  66.713  1.00  0.00    -0.760 NA 
HETATM    7  N   UNL     1     -10.896   8.792  67.070  1.00  0.00    -0.099 NA 
HETATM    8  H2  UNL     1     -11.677   5.948  67.480  1.00  0.00     0.000 HD 
HETATM    9  C   UNL     1     -10.034   9.633  67.663  1.00  0.00    -0.174 A  
HETATM   10  H1  UNL     1     -12.274   6.928  66.270  1.00  0.00     0.000 HD 
HETATM   11  C   UNL     1      -8.844   9.291  68.286  1.00  0.00    -0.129 A  
HETATM   12  N   UNL     1      -8.231  10.412  68.803  1.00  0.00    -0.120 NA 
HETATM   13  C   UNL     1      -9.052  11.402  68.532  1.00  0.00    -0.169 A  
HETATM   14  N   UNL     1     -10.168  10.978  67.853  1.00  0.00    -0.178 NA 
BRANCH  14  15
HETATM   15  C1* UNL     1     -11.317  11.817  67.588  1.00  0.00    -0.302 C  
HETATM   16  O4* UNL     1     -11.823  11.468  66.281  1.00  0.00    -0.354 OA 
HETATM   17  C4* UNL     1     -11.489  12.524  65.349  1.00  0.00    -0.344 C  
HETATM   18  H2* UNL     1     -10.115  14.783  68.530  1.00  0.00     0.000 HD 
HETATM   19  C3* UNL     1     -10.943  13.713  66.148  1.00  0.00    -0.284 C  
HETATM   20  C2* UNL     1     -11.172  13.336  67.607  1.00  0.00    -0.280 C  
HETATM   21  O3* UNL     1     -11.645  14.925  65.843  1.00  0.00    -0.324 OA 
HETATM   22  H3* UNL     1     -11.307  15.661  66.338  1.00  0.00     0.000 HD 
HETATM   23  O2* UNL     1     -10.205  13.837  68.518  1.00  0.00    -0.233 OA 
BRANCH  17  24
HETATM   24  C5* UNL     1     -10.491  11.991  64.309  1.00  0.00    -0.328 C  
HETATM   25  O5* UNL     1     -11.135  11.054  63.446  1.00  0.00    -0.668 OA 
HETATM   26  H5* UNL     1     -10.518  10.725  62.804  1.00  0.00     0.000 HD 
ENDBRANCH  17  24
ENDBRANCH  14  15
ENDBRANCH   2   3
TORSDOF 3
ENDMDL
MODEL      121
REMARK 921   NORMALIZED FREE ENERGY PREDICTED BY IDOCK:   -4.15 KCAL/MOL
REMARK 922        TOTAL FREE ENERGY PREDICTED BY IDOCK:   -5.11 KCAL/MOL
REMARK 923 INTER-LIGAND FREE ENERGY PREDICTED BY IDOCK:   -5.06 KCAL/MOL
REMARK 924 INTRA-LIGAND FREE ENERGY PREDICTED BY IDOCK:   -0.05 KCAL/MOL
REMARK 927      BINDING AFFINITY PREDICTED BY RF-SCORE:    0.00 PKD
ROOT
HETATM    1  C   UNL     1      -5.908  10.059  67.209  1.00  0.00    -0.050 C  
HETATM    2  O   UNL     1      -6.680  10.689  66.192  1.00  0.00    -0.118 OA 
ENDROOT
BRANCH   2   3
HETATM    3  C   UNL     1      -8.034  10.569  66.432  1.00  0.00    -0.137 A  
HETATM    4  N   UNL     1      -8.622   9.348  66.340  1.00  0.00    -0.132 NA 
HETATM    5  C   UNL     1      -9.922   9.234  66.632  1.00  0.00    -0.264 A  
HETATM    6  N   UNL     1     -10.444   7.957  66.634  1.00  0.00    -0.469 NA 
HETATM    7  N   UNL     1     -10.736  10.214  67.034  1.00  0.00    -0.227 NA 
HETATM    8  H2  UNL     1      -9.899   7.365  67.261  1.00  0.00     0.000 HD 
HETATM    9  C   UNL     1     -10.113  11.397  67.154  1.00  0.00    -0.198 A  
HETATM   10  H1  UNL     1     -11.436   7.870  66.857  1.00  0.00     0.000 HD 
HETATM   11  C   UNL     1      -8.782  11.661  66.874  1.00  0.00    -0.185 A  
HETATM   12  N   UNL     1      -8.486  12.981  67.135  1.00  0.00    -0.191 NA 
HETATM   13  C   UNL     1      -9.605  13.492  67.601  1.00  0.00    -0.222 A  
HETATM   14  N   UNL     1     -10.619  12.566  67.644  1.00  0.00    -0.214 NA 
BRANCH  14  15
HETATM   15  C1* UNL     1     -11.898  12.802  68.278  1.00  0.00    -0.312 C  
HETATM   16  O4* UNL     1     -12.195  14.210  68.158  1.00  0.00    -0.306 OA 
HETATM   17  C4* UNL     1     -12.024  14.839  69.451  1.00  0.00    -0.303 C  
HETATM   18  H2* UNL     1     -11.478  11.090  71.111  1.00  0.00     0.000 HD 
HETATM   19  C3* UNL     1     -11.831  13.737  70.498  1.00  0.00    -0.223 C  
HETATM   20  C2* UNL     1     -12.099  12.438  69.747  1.00  0.00    -0.223 C  
HETATM   21  O3* UNL     1     -12.756  13.870  71.585  1.00  0.00    -0.332 OA 
HETATM   22  H3* UNL     1     -12.636  13.186  72.234  1.00  0.00     0.000 HD 
HETATM   23  O2* UNL     1     -11.353  11.316  70.197  1.00  0.00    -0.265 OA 
BRANCH  17  24
HETATM   24  C5* UNL     1     -10.843  15.821  69.389  1.00  0.00    -0.269 C  
HETATM   25  O5* UNL     1      -9.836  15.436  70.324  1.00  0.00    -0.418 OA 
HETATM   26  H5* UNL     1      -9.106  16.043  70.285  1.00  0.00     0.000 HD 
ENDBRANCH  17  24
ENDBRANCH  14  15
ENDBRANCH   2   3
TORSDOF 3
ENDMDL
MODEL      122
REMARK 921   NORMALIZED FREE ENERGY PREDICTED BY IDOCK:   -4.14 KCAL/MOL
REMARK 922        TOTAL FREE ENERGY PREDICTED BY IDOCK:   -5.09 KCAL/MOL
REMARK 923 INTER-LIGAND FREE ENERGY PREDICTED BY IDOCK:   -5.81 KCAL/MOL
REMARK 924 INTRA-LIGAND FREE ENERGY PREDICTED BY IDOCK:    0.72 KCAL/MOL
REMARK 927      BINDING AFFINITY PREDICTED BY RF-SCORE:    0.00 PKD
ROOT
HETATM    1  C   UNL     1      -6.957  11.005  67.512  1.00  0.00    -0.086 C  
HETATM    2  O   UNL     1      -6.998  10.100  68.610  1.00  0.00    -0.060 OA 
ENDROOT
BRANCH   2   3
HETATM    3  C   UNL     1      -8.276   9.972  69.117  1.00  0.00    -0.137 A  
HETATM    4  N   UNL     1      -9.340  10.252  68.320  1.00  0.00    -0.136 NA 
HETATM    5  C   UNL     1     -10.573  10.069  68.804  1.00  0.00    -0.217 A  
HETATM    6  N   UNL     1     -11.617  10.256  67.920  1.00  0.00    -0.670 NA 
HETATM    7  N   UNL     1     -10.893   9.613  70.018  1.00  0.00    -0.248 NA 
HETATM    8  H2  UNL     1     -11.480   9.666  67.099  1.00  0.00     0.000 HD 
HETATM    9  C   UNL     1      -9.819   9.308  70.763  1.00  0.00    -0.283 A  
HETATM   10  H1  UNL     1     -12.557  10.117  68.289  1.00  0.00     0.000 HD 
HETATM   11  C   UNL     1      -8.491   9.459  70.396  1.00  0.00    -0.214 A  
HETATM   12  N   UNL     1      -7.659   9.022  71.404  1.00  0.00    -0.293 NA 
HETATM   13  C   UNL     1      -8.468   8.581  72.342  1.00  0.00    -0.126 A  
HETATM   14  N   UNL     1      -9.789   8.720  71.994  1.00  0.00    -0.319 NA 
BRANCH  14  15
HETATM   15  C1* UNL     1     -10.886   8.156  72.751  1.00  0.00    -0.320 C  
HETATM   16  O4* UNL     1     -10.841   6.722  72.585  1.00  0.00    -0.227 OA 
HETATM   17  C4* UNL     1     -11.921   6.316  71.709  1.00  0.00    -0.256 C  
HETATM   18  H2* UNL     1     -13.358  10.193  71.819  1.00  0.00     0.000 HD 
HETATM   19  C3* UNL     1     -12.839   7.524  71.489  1.00  0.00    -0.360 C  
HETATM   20  C2* UNL     1     -12.320   8.585  72.451  1.00  0.00    -0.359 C  
HETATM   21  O3* UNL     1     -14.204   7.215  71.796  1.00  0.00    -0.472 OA 
HETATM   22  H3* UNL     1     -14.773   7.963  71.658  1.00  0.00     0.000 HD 
HETATM   23  O2* UNL     1     -12.466   9.926  72.006  1.00  0.00    -0.360 OA 
BRANCH  17  24
HETATM   24  C5* UNL     1     -11.334   5.760  70.401  1.00  0.00    -0.018 C  
HETATM   25  O5* UNL     1     -11.758   6.558  69.297  1.00  0.00    -0.644 OA 
HETATM   26  H5* UNL     1     -11.396   6.215  68.489  1.00  0.00     0.000 HD 
ENDBRANCH  17  24
ENDBRANCH  14  15
ENDBRANCH   2   3
TORSDOF 3
ENDMDL
MODEL      123
REMARK 921   NORMALIZED FREE ENERGY PREDICTED BY IDOCK:   -4.14 KCAL/MOL
REMARK 922        TOTAL FREE ENERGY PREDICTED BY IDOCK:   -5.09 KCAL/MOL
REMARK 923 INTER-LIGAND FREE ENERGY PREDICTED BY IDOCK:   -4.93 KCAL/MOL
REMARK 924 INTRA-LIGAND FREE ENERGY PREDICTED BY IDOCK:   -0.16 KCAL/MOL
REMARK 927      BINDING AFFINITY PREDICTED BY RF-SCORE:    0.00 PKD
ROOT
HETATM    1  C   UNL     1     -11.467  13.019  67.845  1.00  0.00    -0.311 C  
HETATM    2  O   UNL     1     -11.951  11.682  67.763  1.00  0.00    -0.608 OA 
ENDROOT
BRANCH   2   3
HETATM    3  C   UNL     1     -11.782  11.006  68.955  1.00  0.00    -0.330 A  
HETATM    4  N   UNL     1     -12.589  11.301  70.008  1.00  0.00    -0.164 NA 
HETATM    5  C   UNL     1     -12.455  10.599  71.138  1.00  0.00    -0.418 A  
HETATM    6  N   UNL     1     -13.372  10.858  72.137  1.00  0.00    -0.580 NA 
HETATM    7  N   UNL     1     -11.601   9.595  71.356  1.00  0.00    -0.385 NA 
HETATM    8  H2  UNL     1     -14.318  10.743  71.772  1.00  0.00     0.000 HD 
HETATM    9  C   UNL     1     -10.850   9.304  70.283  1.00  0.00    -0.246 A  
HETATM   10  H1  UNL     1     -13.270  10.322  72.999  1.00  0.00     0.000 HD 
HETATM   11  C   UNL     1     -10.873   9.954  69.059  1.00  0.00    -0.215 A  
HETATM   12  N   UNL     1      -9.982   9.369  68.185  1.00  0.00    -0.168 NA 
HETATM   13  C   UNL     1      -9.462   8.363  68.856  1.00  0.00    -0.147 A  
HETATM   14  N   UNL     1      -9.967   8.274  70.130  1.00  0.00    -0.185 NA 
BRANCH  14  15
HETATM   15  C1* UNL     1      -9.712   7.164  71.022  1.00  0.00    -0.165 C  
HETATM   16  O4* UNL     1      -8.317   7.211  71.393  1.00  0.00    -0.111 OA 
HETATM   17  C4* UNL     1      -7.611   6.149  70.708  1.00  0.00    -0.096 C  
HETATM   18  H2* UNL     1     -11.249   4.710  69.365  1.00  0.00     0.000 HD 
HETATM   19  C3* UNL     1      -8.648   5.235  70.044  1.00  0.00    -0.112 C  
HETATM   20  C2* UNL     1      -9.992   5.736  70.560  1.00  0.00    -0.195 C  
HETATM   21  O3* UNL     1      -8.463   3.864  70.419  1.00  0.00    -0.060 OA 
HETATM   22  H3* UNL     1      -9.105   3.298  70.007  1.00  0.00     0.000 HD 
HETATM   23  O2* UNL     1     -11.075   5.598  69.652  1.00  0.00    -0.328 OA 
BRANCH  17  24
HETATM   24  C5* UNL     1      -6.619   6.759  69.705  1.00  0.00    -0.048 C  
HETATM   25  O5* UNL     1      -6.713   6.085  68.451  1.00  0.00    -0.059 OA 
HETATM   26  H5* UNL     1      -6.100   6.463  67.831  1.00  0.00     0.000 HD 
ENDBRANCH  17  24
ENDBRANCH  14  15
ENDBRANCH   2   3
TORSDOF 3
ENDMDL
MODEL      124
REMARK 921   NORMALIZED FREE ENERGY PREDICTED BY IDOCK:   -4.12 KCAL/MOL
REMARK 922        TOTAL FREE ENERGY PREDICTED BY IDOCK:   -5.07 KCAL/MOL
REMARK 923 INTER-LIGAND FREE ENERGY PREDICTED BY IDOCK:   -4.85 KCAL/MOL
REMARK 924 INTRA-LIGAND FREE ENERGY PREDICTED BY IDOCK:   -0.22 KCAL/MOL
REMARK 927      BINDING AFFINITY PREDICTED BY RF-SCORE:    0.00 PKD
ROOT
HETATM    1  C   UNL     1      -8.624   6.086  73.640  1.00  0.00    -0.125 C  
HETATM    2  O   UNL     1      -9.297   5.670  72.456  1.00  0.00    -0.143 OA 
ENDROOT
BRANCH   2   3
HETATM    3  C   UNL     1     -10.102   6.670  71.950  1.00  0.00    -0.181 A  
HETATM    4  N   UNL     1     -11.242   7.006  72.609  1.00  0.00    -0.276 NA 
HETATM    5  C   UNL     1     -11.984   8.015  72.141  1.00  0.00    -0.348 A  
HETATM    6  N   UNL     1     -13.067   8.393  72.908  1.00  0.00    -0.646 NA 
HETATM    7  N   UNL     1     -11.717   8.769  71.070  1.00  0.00    -0.284 NA 
HETATM    8  H2  UNL     1     -12.757   8.606  73.856  1.00  0.00     0.000 HD 
HETATM    9  C   UNL     1     -10.565   8.437  70.469  1.00  0.00    -0.216 A  
HETATM   10  H1  UNL     1     -13.633   9.162  72.551  1.00  0.00     0.000 HD 
HETATM   11  C   UNL     1      -9.709   7.410  70.835  1.00  0.00    -0.169 A  
HETATM   12  N   UNL     1      -8.611   7.377  70.003  1.00  0.00    -0.138 NA 
HETATM   13  C   UNL     1      -8.782   8.387  69.177  1.00  0.00    -0.142 A  
HETATM   14  N   UNL     1      -9.947   9.069  69.428  1.00  0.00    -0.186 NA 
BRANCH  14  15
HETATM   15  C1* UNL     1     -10.298  10.323  68.797  1.00  0.00    -0.195 C  
HETATM   16  O4* UNL     1     -10.928  10.017  67.534  1.00  0.00    -0.288 OA 
HETATM   17  C4* UNL     1     -10.008  10.333  66.461  1.00  0.00    -0.224 C  
HETATM   18  H2* UNL     1      -7.466  12.026  69.250  1.00  0.00     0.000 HD 
HETATM   19  C3* UNL     1      -8.818  11.093  67.059  1.00  0.00    -0.149 C  
HETATM   20  C2* UNL     1      -9.216  11.359  68.506  1.00  0.00    -0.174 C  
HETATM   21  O3* UNL     1      -8.587  12.335  66.381  1.00  0.00    -0.382 OA 
HETATM   22  H3* UNL     1      -7.850  12.805  66.752  1.00  0.00     0.000 HD 
HETATM   23  O2* UNL     1      -8.140  11.381  69.432  1.00  0.00     0.096 OA 
BRANCH  17  24
HETATM   24  C5* UNL     1      -9.594   9.037  65.746  1.00  0.00    -0.217 C  
HETATM   25  O5* UNL     1     -10.381   7.944  66.218  1.00  0.00    -0.461 OA 
HETATM   26  H5* UNL     1     -10.126   7.143  65.776  1.00  0.00     0.000 HD 
ENDBRANCH  17  24
ENDBRANCH  14  15
ENDBRANCH   2   3
TORSDOF 3
ENDMDL
MODEL      125
REMARK 921   NORMALIZED FREE ENERGY PREDICTED BY IDOCK:   -4.11 KCAL/MOL
REMARK 922        TOTAL FREE ENERGY PREDICTED BY IDOCK:   -5.05 KCAL/MOL
REMARK 923 INTER-LIGAND FREE ENERGY PREDICTED BY IDOCK:   -5.71 KCAL/MOL
REMARK 924 INTRA-LIGAND FREE ENERGY PREDICTED BY IDOCK:    0.66 KCAL/MOL
REMARK 927      BINDING AFFINITY PREDICTED BY RF-SCORE:    0.00 PKD
ROOT
HETATM    1  C   UNL     1      -6.926  17.372  66.127  1.00  0.00    -0.263 C  
HETATM    2  O   UNL     1      -8.022  17.464  67.031  1.00  0.00    -0.198 OA 
ENDROOT
BRANCH   2   3
HETATM    3  C   UNL     1      -9.111  16.741  66.587  1.00  0.00    -0.249 A  
HETATM    4  N   UNL     1      -9.787  17.163  65.487  1.00  0.00    -0.514 NA 
HETATM    5  C   UNL     1     -10.804  16.424  65.032  1.00  0.00    -0.273 A  
HETATM    6  N   UNL     1     -11.383  16.833  63.847  1.00  0.00    -1.237 NA 
HETATM    7  N   UNL     1     -11.239  15.268  65.542  1.00  0.00    -0.311 NA 
HETATM    8  H2  UNL     1     -10.666  16.912  63.125  1.00  0.00     0.000 HD 
HETATM    9  C   UNL     1     -10.524  14.861  66.601  1.00  0.00    -0.292 A  
HETATM   10  H1  UNL     1     -12.158  16.268  63.500  1.00  0.00     0.000 HD 
HETATM   11  C   UNL     1      -9.460  15.530  67.185  1.00  0.00    -0.215 A  
HETATM   12  N   UNL     1      -8.952  14.803  68.240  1.00  0.00    -0.175 NA 
HETATM   13  C   UNL     1      -9.670  13.701  68.267  1.00  0.00    -0.231 A  
HETATM   14  N   UNL     1     -10.628  13.683  67.284  1.00  0.00    -0.266 NA 
BRANCH  14  15
HETATM   15  C1* UNL     1     -11.434  12.524  66.965  1.00  0.00    -0.356 C  
HETATM   16  O4* UNL     1     -10.569  11.543  66.354  1.00  0.00    -0.241 OA 
HETATM   17  C4* UNL     1     -10.853  11.483  64.935  1.00  0.00    -0.283 C  
HETATM   18  H2* UNL     1     -14.071  14.006  65.558  1.00  0.00     0.000 HD 
HETATM   19  C3* UNL     1     -12.120  12.303  64.666  1.00  0.00    -0.374 C  
HETATM   20  C2* UNL     1     -12.647  12.668  66.049  1.00  0.00     0.359 C  
HETATM   21  O3* UNL     1     -13.105  11.539  63.957  1.00  0.00    -0.172 OA 
HETATM   22  H3* UNL     1     -13.890  12.047  63.790  1.00  0.00     0.000 HD 
HETATM   23  O2* UNL     1     -13.317  13.917  66.128  1.00  0.00     0.018 OA 
BRANCH  17  24
HETATM   24  C5* UNL     1      -9.633  11.990  64.149  1.00  0.00     0.005 C  
HETATM   25  O5* UNL     1      -9.921  13.257  63.559  1.00  0.00    -0.444 OA 
HETATM   26  H5* UNL     1      -9.167  13.569  63.074  1.00  0.00     0.000 HD 
ENDBRANCH  17  24
ENDBRANCH  14  15
ENDBRANCH   2   3
TORSDOF 3
ENDMDL
MODEL      126
REMARK 921   NORMALIZED FREE ENERGY PREDICTED BY IDOCK:   -4.09 KCAL/MOL
REMARK 922        TOTAL FREE ENERGY PREDICTED BY IDOCK:   -5.03 KCAL/MOL
REMARK 923 INTER-LIGAND FREE ENERGY PREDICTED BY IDOCK:   -5.12 KCAL/MOL
REMARK 924 INTRA-LIGAND FREE ENERGY PREDICTED BY IDOCK:    0.09 KCAL/MOL
REMARK 927      BINDING AFFINITY PREDICTED BY RF-SCORE:    0.00 PKD
ROOT
HETATM    1  C   UNL     1      -6.720   9.943  64.793  1.00  0.00    -0.122 C  
HETATM    2  O   UNL     1      -7.904   9.524  65.464  1.00  0.00    -0.104 OA 
ENDROOT
BRANCH   2   3
HETATM    3  C   UNL     1      -8.434  10.534  66.242  1.00  0.00    -0.150 A  
HETATM    4  N   UNL     1      -7.768  10.936  67.356  1.00  0.00    -0.105 NA 
HETATM    5  C   UNL     1      -8.261  11.954  68.069  1.00  0.00    -0.157 A  
HETATM    6  N   UNL     1      -7.490  12.399  69.124  1.00  0.00    -0.328 NA 
HETATM    7  N   UNL     1      -9.363  12.658  67.795  1.00  0.00    -0.191 NA 
HETATM    8  H2  UNL     1      -6.555  12.636  68.789  1.00  0.00     0.000 HD 
HETATM    9  C   UNL     1      -9.972  12.261  66.667  1.00  0.00    -0.215 A  
HETATM   10  H1  UNL     1      -7.866  13.176  69.667  1.00  0.00     0.000 HD 
HETATM   11  C   UNL     1      -9.582  11.218  65.842  1.00  0.00    -0.221 A  
HETATM   12  N   UNL     1     -10.431  11.114  64.762  1.00  0.00    -0.320 NA 
HETATM   13  C   UNL     1     -11.291  12.098  64.911  1.00  0.00    -0.326 A  
HETATM   14  N   UNL     1     -11.045  12.831  66.046  1.00  0.00    -0.278 NA 
BRANCH  14  15
HETATM   15  C1* UNL     1     -11.716  14.074  66.363  1.00  0.00    -0.391 C  
HETATM   16  O4* UNL     1     -10.930  15.151  65.808  1.00  0.00    -0.336 OA 
HETATM   17  C4* UNL     1     -10.255  15.844  66.885  1.00  0.00    -0.277 C  
HETATM   18  H2* UNL     1     -12.406  13.568  69.588  1.00  0.00     0.000 HD 
HETATM   19  C3* UNL     1     -10.818  15.328  68.215  1.00  0.00    -0.262 C  
HETATM   20  C2* UNL     1     -11.993  14.441  67.819  1.00  0.00    -0.333 C  
HETATM   21  O3* UNL     1     -11.277  16.400  69.048  1.00  0.00    -0.325 OA 
HETATM   22  H3* UNL     1     -11.626  16.080  69.871  1.00  0.00     0.000 HD 
HETATM   23  O2* UNL     1     -12.233  13.339  68.682  1.00  0.00    -0.277 OA 
BRANCH  17  24
HETATM   24  C5* UNL     1      -8.738  15.634  66.755  1.00  0.00    -0.271 C  
HETATM   25  O5* UNL     1      -8.146  15.517  68.048  1.00  0.00    -0.132 OA 
HETATM   26  H5* UNL     1      -7.208  15.387  67.967  1.00  0.00     0.000 HD 
ENDBRANCH  17  24
ENDBRANCH  14  15
ENDBRANCH   2   3
TORSDOF 3
ENDMDL
MODEL      127
REMARK 921   NORMALIZED FREE ENERGY PREDICTED BY IDOCK:   -4.08 KCAL/MOL
REMARK 922        TOTAL FREE ENERGY PREDICTED BY IDOCK:   -5.02 KCAL/MOL
REMARK 923 INTER-LIGAND FREE ENERGY PREDICTED BY IDOCK:   -4.87 KCAL/MOL
REMARK 924 INTRA-LIGAND FREE ENERGY PREDICTED BY IDOCK:   -0.15 KCAL/MOL
REMARK 927      BINDING AFFINITY PREDICTED BY RF-SCORE:    0.00 PKD
ROOT
HETATM    1  C   UNL     1      -8.833   7.244  73.924  1.00  0.00    -0.205 C  
HETATM    2  O   UNL     1      -9.392   5.999  73.519  1.00  0.00    -0.134 OA 
ENDROOT
BRANCH   2   3
HETATM    3  C   UNL     1     -10.251   6.150  72.449  1.00  0.00    -0.188 A  
HETATM    4  N   UNL     1     -11.526   6.563  72.671  1.00  0.00    -0.226 NA 
HETATM    5  C   UNL     1     -12.331   6.762  71.622  1.00  0.00    -0.362 A  
HETATM    6  N   UNL     1     -13.577   7.291  71.892  1.00  0.00    -0.541 NA 
HETATM    7  N   UNL     1     -12.012   6.612  70.333  1.00  0.00    -0.362 NA 
HETATM    8  H2  UNL     1     -13.474   8.161  72.415  1.00  0.00     0.000 HD 
HETATM    9  C   UNL     1     -10.735   6.243  70.150  1.00  0.00    -0.286 A  
HETATM   10  H1  UNL     1     -14.191   7.442  71.092  1.00  0.00     0.000 HD 
HETATM   11  C   UNL     1      -9.798   5.990  71.139  1.00  0.00    -0.179 A  
HETATM   12  N   UNL     1      -8.583   5.657  70.580  1.00  0.00    -0.128 NA 
HETATM   13  C   UNL     1      -8.772   5.746  69.282  1.00  0.00    -0.113 A  
HETATM   14  N   UNL     1     -10.059   6.112  68.970  1.00  0.00    -0.161 NA 
BRANCH  14  15
HETATM   15  C1* UNL     1     -10.497   6.461  67.636  1.00  0.00    -0.228 C  
HETATM   16  O4* UNL     1     -10.747   5.231  66.921  1.00  0.00    -0.253 OA 
HETATM   17  C4* UNL     1      -9.687   5.023  65.957  1.00  0.00    -0.180 C  
HETATM   18  H2* UNL     1      -8.237   8.789  66.862  1.00  0.00     0.000 HD 
HETATM   19  C3* UNL     1      -8.839   6.298  65.894  1.00  0.00    -0.139 C  
HETATM   20  C2* UNL     1      -9.602   7.312  66.739  1.00  0.00    -0.185 C  
HETATM   21  O3* UNL     1      -8.710   6.783  64.552  1.00  0.00    -0.338 OA 
HETATM   22  H3* UNL     1      -8.184   7.573  64.513  1.00  0.00     0.000 HD 
HETATM   23  O2* UNL     1      -8.793   8.259  67.420  1.00  0.00    -0.129 OA 
BRANCH  17  24
HETATM   24  C5* UNL     1      -8.874   3.780  66.354  1.00  0.00    -0.128 C  
HETATM   25  O5* UNL     1      -9.749   2.737  66.780  1.00  0.00    -0.402 OA 
HETATM   26  H5* UNL     1      -9.246   1.969  67.025  1.00  0.00     0.000 HD 
ENDBRANCH  17  24
ENDBRANCH  14  15
ENDBRANCH   2   3
TORSDOF 3
ENDMDL
MODEL      128
REMARK 921   NORMALIZED FREE ENERGY PREDICTED BY IDOCK:   -4.06 KCAL/MOL
REMARK 922        TOTAL FREE ENERGY PREDICTED BY IDOCK:   -5.00 KCAL/MOL
REMARK 923 INTER-LIGAND FREE ENERGY PREDICTED BY IDOCK:   -4.89 KCAL/MOL
REMARK 924 INTRA-LIGAND FREE ENERGY PREDICTED BY IDOCK:   -0.11 KCAL/MOL
REMARK 927      BINDING AFFINITY PREDICTED BY RF-SCORE:    0.00 PKD
ROOT
HETATM    1  C   UNL     1     -12.572  12.050  63.335  1.00  0.00    -0.469 C  
HETATM    2  O   UNL     1     -11.199  12.404  63.201  1.00  0.00    -0.387 OA 
ENDROOT
BRANCH   2   3
HETATM    3  C   UNL     1     -10.656  12.804  64.406  1.00  0.00    -0.379 A  
HETATM    4  N   UNL     1     -10.593  14.128  64.702  1.00  0.00    -0.414 NA 
HETATM    5  C   UNL     1     -10.120  14.501  65.895  1.00  0.00    -0.326 A  
HETATM    6  N   UNL     1     -10.183  15.847  66.192  1.00  0.00    -0.304 NA 
HETATM    7  N   UNL     1      -9.700  13.693  66.873  1.00  0.00    -0.254 NA 
HETATM    8  H2  UNL     1     -11.143  16.176  66.086  1.00  0.00     0.000 HD 
HETATM    9  C   UNL     1      -9.815  12.392  66.563  1.00  0.00    -0.235 A  
HETATM   10  H1  UNL     1      -9.822  16.131  67.102  1.00  0.00     0.000 HD 
HETATM   11  C   UNL     1     -10.273  11.866  65.366  1.00  0.00    -0.263 A  
HETATM   12  N   UNL     1     -10.275  10.489  65.412  1.00  0.00    -0.286 NA 
HETATM   13  C   UNL     1      -9.864  10.191  66.625  1.00  0.00    -0.200 A  
HETATM   14  N   UNL     1      -9.585  11.313  67.367  1.00  0.00    -0.169 NA 
BRANCH  14  15
HETATM   15  C1* UNL     1      -9.291  11.290  68.784  1.00  0.00    -0.128 C  
HETATM   16  O4* UNL     1      -7.858  11.389  68.937  1.00  0.00    -0.138 OA 
HETATM   17  C4* UNL     1      -7.337  10.098  69.336  1.00  0.00    -0.106 C  
HETATM   18  H2* UNL     1     -11.224   8.747  69.747  1.00  0.00     0.000 HD 
HETATM   19  C3* UNL     1      -8.522   9.188  69.678  1.00  0.00    -0.133 C  
HETATM   20  C2* UNL     1      -9.739  10.105  69.635  1.00  0.00    -0.221 C  
HETATM   21  O3* UNL     1      -8.390   8.615  70.985  1.00  0.00    -0.129 OA 
HETATM   22  H3* UNL     1      -9.124   8.050  71.197  1.00  0.00     0.000 HD 
HETATM   23  O2* UNL     1     -10.946   9.485  69.217  1.00  0.00    -0.219 OA 
BRANCH  17  24
HETATM   24  C5* UNL     1      -6.452   9.536  68.212  1.00  0.00    -0.053 C  
HETATM   25  O5* UNL     1      -6.967   8.283  67.764  1.00  0.00    -0.075 OA 
HETATM   26  H5* UNL     1      -6.421   7.935  67.069  1.00  0.00     0.000 HD 
ENDBRANCH  17  24
ENDBRANCH  14  15
ENDBRANCH   2   3
TORSDOF 3
ENDMDL
MODEL      129
REMARK 921   NORMALIZED FREE ENERGY PREDICTED BY IDOCK:   -4.06 KCAL/MOL
REMARK 922        TOTAL FREE ENERGY PREDICTED BY IDOCK:   -4.99 KCAL/MOL
REMARK 923 INTER-LIGAND FREE ENERGY PREDICTED BY IDOCK:   -4.99 KCAL/MOL
REMARK 924 INTRA-LIGAND FREE ENERGY PREDICTED BY IDOCK:   -0.01 KCAL/MOL
REMARK 927      BINDING AFFINITY PREDICTED BY RF-SCORE:    0.00 PKD
ROOT
HETATM    1  C   UNL     1     -12.579  13.269  65.343  1.00  0.00    -0.468 C  
HETATM    2  O   UNL     1     -11.321  13.450  65.985  1.00  0.00    -0.301 OA 
ENDROOT
BRANCH   2   3
HETATM    3  C   UNL     1     -11.207  12.663  67.113  1.00  0.00    -0.300 A  
HETATM    4  N   UNL     1     -11.610  13.156  68.313  1.00  0.00    -0.312 NA 
HETATM    5  C   UNL     1     -11.549  12.364  69.389  1.00  0.00    -0.307 A  
HETATM    6  N   UNL     1     -12.075  12.871  70.560  1.00  0.00    -0.497 NA 
HETATM    7  N   UNL     1     -11.139  11.092  69.419  1.00  0.00    -0.244 NA 
HETATM    8  H2  UNL     1     -13.040  13.163  70.403  1.00  0.00     0.000 HD 
HETATM    9  C   UNL     1     -10.788  10.626  68.211  1.00  0.00    -0.241 A  
HETATM   10  H1  UNL     1     -12.029  12.266  71.380  1.00  0.00     0.000 HD 
HETATM   11  C   UNL     1     -10.788  11.335  67.020  1.00  0.00    -0.280 A  
HETATM   12  N   UNL     1     -10.391  10.528  65.977  1.00  0.00    -0.237 NA 
HETATM   13  C   UNL     1     -10.193   9.346  66.520  1.00  0.00    -0.238 A  
HETATM   14  N   UNL     1     -10.434   9.352  67.873  1.00  0.00    -0.233 NA 
BRANCH  14  15
HETATM   15  C1* UNL     1     -10.473   8.157  68.688  1.00  0.00    -0.165 C  
HETATM   16  O4* UNL     1      -9.248   8.108  69.452  1.00  0.00    -0.154 OA 
HETATM   17  C4* UNL     1      -8.391   7.077  68.903  1.00  0.00    -0.125 C  
HETATM   18  H2* UNL     1     -11.500   5.929  66.428  1.00  0.00     0.000 HD 
HETATM   19  C3* UNL     1      -9.204   6.274  67.881  1.00  0.00    -0.116 C  
HETATM   20  C2* UNL     1     -10.631   6.789  68.030  1.00  0.00    -0.231 C  
HETATM   21  O3* UNL     1      -9.163   4.868  68.159  1.00  0.00    -0.114 OA 
HETATM   22  H3* UNL     1      -9.667   4.370  67.526  1.00  0.00     0.000 HD 
HETATM   23  O2* UNL     1     -11.402   6.781  66.838  1.00  0.00    -0.318 OA 
BRANCH  17  24
HETATM   24  C5* UNL     1      -7.138   7.727  68.295  1.00  0.00    -0.084 C  
HETATM   25  O5* UNL     1      -6.016   6.857  68.441  1.00  0.00    -0.023 OA 
HETATM   26  H5* UNL     1      -5.241   7.258  68.065  1.00  0.00     0.000 HD 
ENDBRANCH  17  24
ENDBRANCH  14  15
ENDBRANCH   2   3
TORSDOF 3
ENDMDL
MODEL      130
REMARK 921   NORMALIZED FREE ENERGY PREDICTED BY IDOCK:   -4.04 KCAL/MOL
REMARK 922        TOTAL FREE ENERGY PREDICTED BY IDOCK:   -4.97 KCAL/MOL
REMARK 923 INTER-LIGAND FREE ENERGY PREDICTED BY IDOCK:   -5.16 KCAL/MOL
REMARK 924 INTRA-LIGAND FREE ENERGY PREDICTED BY IDOCK:    0.19 KCAL/MOL
REMARK 927      BINDING AFFINITY PREDICTED BY RF-SCORE:    0.00 PKD
ROOT
HETATM    1  C   UNL     1      -8.904   5.147  65.413  1.00  0.00    -0.153 C  
HETATM    2  O   UNL     1      -8.799   6.556  65.591  1.00  0.00    -0.133 OA 
ENDROOT
BRANCH   2   3
HETATM    3  C   UNL     1      -8.837   6.905  66.926  1.00  0.00    -0.120 A  
HETATM    4  N   UNL     1      -7.985   6.304  67.797  1.00  0.00    -0.112 NA 
HETATM    5  C   UNL     1      -7.991   6.691  69.077  1.00  0.00    -0.112 A  
HETATM    6  N   UNL     1      -7.029   6.134  69.895  1.00  0.00    -0.068 NA 
HETATM    7  N   UNL     1      -8.754   7.647  69.616  1.00  0.00    -0.136 NA 
HETATM    8  H2  UNL     1      -6.104   6.291  69.493  1.00  0.00     0.000 HD 
HETATM    9  C   UNL     1      -9.553   8.246  68.720  1.00  0.00    -0.150 A  
HETATM   10  H1  UNL     1      -7.034   6.430  70.871  1.00  0.00     0.000 HD 
HETATM   11  C   UNL     1      -9.660   7.939  67.373  1.00  0.00    -0.152 A  
HETATM   12  N   UNL     1     -10.564   8.777  66.757  1.00  0.00    -0.217 NA 
HETATM   13  C   UNL     1     -10.964   9.598  67.704  1.00  0.00    -0.124 A  
HETATM   14  N   UNL     1     -10.368   9.325  68.911  1.00  0.00    -0.210 NA 
BRANCH  14  15
HETATM   15  C1* UNL     1     -10.482  10.175  70.076  1.00  0.00    -0.274 C  
HETATM   16  O4* UNL     1     -10.370   9.335  71.246  1.00  0.00    -0.302 OA 
HETATM   17  C4* UNL     1     -11.676   9.203  71.858  1.00  0.00    -0.366 C  
HETATM   18  H2* UNL     1     -13.114  12.029  69.201  1.00  0.00     0.000 HD 
HETATM   19  C3* UNL     1     -12.626  10.195  71.176  1.00  0.00    -0.386 C  
HETATM   20  C2* UNL     1     -11.728  11.034  70.274  1.00  0.00    -0.355 C  
HETATM   21  O3* UNL     1     -13.283  11.039  72.130  1.00  0.00    -0.591 OA 
HETATM   22  H3* UNL     1     -13.872  11.653  71.708  1.00  0.00     0.000 HD 
HETATM   23  O2* UNL     1     -12.338  11.494  69.078  1.00  0.00    -0.360 OA 
BRANCH  17  24
HETATM   24  C5* UNL     1     -12.148   7.745  71.743  1.00  0.00    -0.298 C  
HETATM   25  O5* UNL     1     -12.335   7.396  70.373  1.00  0.00    -0.537 OA 
HETATM   26  H5* UNL     1     -12.626   6.495  70.302  1.00  0.00     0.000 HD 
ENDBRANCH  17  24
ENDBRANCH  14  15
ENDBRANCH   2   3
TORSDOF 3
ENDMDL
MODEL      131
REMARK 921   NORMALIZED FREE ENERGY PREDICTED BY IDOCK:   -4.03 KCAL/MOL
REMARK 922        TOTAL FREE ENERGY PREDICTED BY IDOCK:   -4.96 KCAL/MOL
REMARK 923 INTER-LIGAND FREE ENERGY PREDICTED BY IDOCK:   -4.94 KCAL/MOL
REMARK 924 INTRA-LIGAND FREE ENERGY PREDICTED BY IDOCK:   -0.02 KCAL/MOL
REMARK 927      BINDING AFFINITY PREDICTED BY RF-SCORE:    0.00 PKD
ROOT
HETATM    1  C   UNL     1     -12.860  15.350  71.321  1.00  0.00    -0.452 C  
HETATM    2  O   UNL     1     -12.882  13.976  70.948  1.00  0.00    -0.331 OA 
ENDROOT
BRANCH   2   3
HETATM    3  C   UNL     1     -12.269  13.770  69.728  1.00  0.00    -0.310 A  
HETATM    4  N   UNL     1     -11.940  14.840  68.958  1.00  0.00    -0.295 NA 
HETATM    5  C   UNL     1     -11.295  14.631  67.806  1.00  0.00    -0.322 A  
HETATM    6  N   UNL     1     -10.881  15.754  67.118  1.00  0.00    -0.315 NA 
HETATM    7  N   UNL     1     -10.909  13.451  67.312  1.00  0.00    -0.266 NA 
HETATM    8  H2  UNL     1     -10.310  16.339  67.729  1.00  0.00     0.000 HD 
HETATM    9  C   UNL     1     -11.214  12.422  68.117  1.00  0.00    -0.265 A  
HETATM   10  H1  UNL     1     -10.389  15.594  66.239  1.00  0.00     0.000 HD 
HETATM   11  C   UNL     1     -11.888  12.490  69.325  1.00  0.00    -0.304 A  
HETATM   12  N   UNL     1     -12.003  11.237  69.886  1.00  0.00    -0.336 NA 
HETATM   13  C   UNL     1     -11.376  10.435  69.053  1.00  0.00    -0.219 A  
HETATM   14  N   UNL     1     -10.868  11.109  67.969  1.00  0.00    -0.207 NA 
BRANCH  14  15
HETATM   15  C1* UNL     1      -9.982  10.513  66.993  1.00  0.00    -0.201 C  
HETATM   16  O4* UNL     1     -10.307   9.108  66.905  1.00  0.00    -0.254 OA 
HETATM   17  C4* UNL     1      -9.264   8.342  67.553  1.00  0.00    -0.137 C  
HETATM   18  H2* UNL     1      -7.071  11.825  67.958  1.00  0.00     0.000 HD 
HETATM   19  C3* UNL     1      -8.100   9.289  67.869  1.00  0.00    -0.104 C  
HETATM   20  C2* UNL     1      -8.470  10.599  67.184  1.00  0.00    -0.128 C  
HETATM   21  O3* UNL     1      -6.860   8.798  67.345  1.00  0.00    -0.069 OA 
HETATM   22  H3* UNL     1      -6.139   9.385  67.542  1.00  0.00     0.000 HD 
HETATM   23  O2* UNL     1      -8.012  11.772  67.840  1.00  0.00    -0.125 OA 
BRANCH  17  24
HETATM   24  C5* UNL     1      -9.837   7.656  68.803  1.00  0.00    -0.164 C  
HETATM   25  O5* UNL     1      -8.840   7.580  69.821  1.00  0.00    -0.140 OA 
HETATM   26  H5* UNL     1      -9.194   7.156  70.594  1.00  0.00     0.000 HD 
ENDBRANCH  17  24
ENDBRANCH  14  15
ENDBRANCH   2   3
TORSDOF 3
ENDMDL
MODEL      132
REMARK 921   NORMALIZED FREE ENERGY PREDICTED BY IDOCK:   -4.02 KCAL/MOL
REMARK 922        TOTAL FREE ENERGY PREDICTED BY IDOCK:   -4.95 KCAL/MOL
REMARK 923 INTER-LIGAND FREE ENERGY PREDICTED BY IDOCK:   -4.85 KCAL/MOL
REMARK 924 INTRA-LIGAND FREE ENERGY PREDICTED BY IDOCK:   -0.10 KCAL/MOL
REMARK 927      BINDING AFFINITY PREDICTED BY RF-SCORE:    0.00 PKD
ROOT
HETATM    1  C   UNL     1      -8.785   9.981  62.886  1.00  0.00    -0.211 C  
HETATM    2  O   UNL     1     -10.004  10.385  63.501  1.00  0.00    -0.277 OA 
ENDROOT
BRANCH   2   3
HETATM    3  C   UNL     1      -9.822  10.704  64.832  1.00  0.00    -0.302 A  
HETATM    4  N   UNL     1      -9.469   9.727  65.708  1.00  0.00    -0.219 NA 
HETATM    5  C   UNL     1      -9.239  10.058  66.983  1.00  0.00    -0.146 A  
HETATM    6  N   UNL     1      -8.773   9.053  67.807  1.00  0.00    -0.125 NA 
HETATM    7  N   UNL     1      -9.301  11.283  67.512  1.00  0.00    -0.161 NA 
HETATM    8  H2  UNL     1      -7.932   8.641  67.402  1.00  0.00     0.000 HD 
HETATM    9  C   UNL     1      -9.611  12.227  66.610  1.00  0.00    -0.223 A  
HETATM   10  H1  UNL     1      -8.597   9.306  68.779  1.00  0.00     0.000 HD 
HETATM   11  C   UNL     1      -9.888  12.027  65.267  1.00  0.00    -0.213 A  
HETATM   12  N   UNL     1     -10.142  13.229  64.642  1.00  0.00    -0.283 NA 
HETATM   13  C   UNL     1      -9.984  14.138  65.580  1.00  0.00    -0.295 A  
HETATM   14  N   UNL     1      -9.648  13.580  66.789  1.00  0.00    -0.260 NA 
BRANCH  14  15
HETATM   15  C1* UNL     1      -9.238  14.349  67.944  1.00  0.00    -0.195 C  
HETATM   16  O4* UNL     1     -10.249  15.352  68.186  1.00  0.00    -0.226 OA 
HETATM   17  C4* UNL     1      -9.735  16.646  67.790  1.00  0.00    -0.240 C  
HETATM   18  H2* UNL     1      -6.036  14.897  67.184  1.00  0.00     0.000 HD 
HETATM   19  C3* UNL     1      -8.238  16.496  67.495  1.00  0.00    -0.154 C  
HETATM   20  C2* UNL     1      -7.896  15.078  67.937  1.00  0.00    -0.138 C  
HETATM   21  O3* UNL     1      -7.454  17.439  68.237  1.00  0.00    -0.209 OA 
HETATM   22  H3* UNL     1      -6.527  17.346  68.053  1.00  0.00     0.000 HD 
HETATM   23  O2* UNL     1      -6.871  14.443  67.188  1.00  0.00    -0.190 OA 
BRANCH  17  24
HETATM   24  C5* UNL     1     -10.535  17.166  66.585  1.00  0.00    -0.259 C  
HETATM   25  O5* UNL     1      -9.728  18.046  65.804  1.00  0.00    -0.521 OA 
HETATM   26  H5* UNL     1     -10.222  18.367  65.059  1.00  0.00     0.000 HD 
ENDBRANCH  17  24
ENDBRANCH  14  15
ENDBRANCH   2   3
TORSDOF 3
ENDMDL
MODEL      133
REMARK 921   NORMALIZED FREE ENERGY PREDICTED BY IDOCK:   -4.01 KCAL/MOL
REMARK 922        TOTAL FREE ENERGY PREDICTED BY IDOCK:   -4.94 KCAL/MOL
REMARK 923 INTER-LIGAND FREE ENERGY PREDICTED BY IDOCK:   -5.06 KCAL/MOL
REMARK 924 INTRA-LIGAND FREE ENERGY PREDICTED BY IDOCK:    0.12 KCAL/MOL
REMARK 927      BINDING AFFINITY PREDICTED BY RF-SCORE:    0.00 PKD
ROOT
HETATM    1  C   UNL     1      -9.097   9.256  65.276  1.00  0.00    -0.215 C  
HETATM    2  O   UNL     1     -10.158   9.798  66.056  1.00  0.00    -0.276 OA 
ENDROOT
BRANCH   2   3
HETATM    3  C   UNL     1     -10.455   8.995  67.139  1.00  0.00    -0.263 A  
HETATM    4  N   UNL     1     -10.356   7.646  67.015  1.00  0.00    -0.305 NA 
HETATM    5  C   UNL     1     -10.591   6.881  68.087  1.00  0.00    -0.216 A  
HETATM    6  N   UNL     1     -10.365   5.527  67.941  1.00  0.00    -0.191 NA 
HETATM    7  N   UNL     1     -10.907   7.305  69.314  1.00  0.00    -0.197 NA 
HETATM    8  H2  UNL     1      -9.412   5.372  67.611  1.00  0.00     0.000 HD 
HETATM    9  C   UNL     1     -10.955   8.643  69.410  1.00  0.00    -0.019 A  
HETATM   10  H1  UNL     1     -10.544   4.944  68.758  1.00  0.00     0.000 HD 
HETATM   11  C   UNL     1     -10.750   9.552  68.384  1.00  0.00    -0.186 A  
HETATM   12  N   UNL     1     -10.855  10.843  68.854  1.00  0.00    -0.203 NA 
HETATM   13  C   UNL     1     -11.081  10.715  70.143  1.00  0.00    -0.268 A  
HETATM   14  N   UNL     1     -11.137   9.399  70.532  1.00  0.00    -0.255 NA 
BRANCH  14  15
HETATM   15  C1* UNL     1     -11.190   8.968  71.912  1.00  0.00    -0.368 C  
HETATM   16  O4* UNL     1      -9.837   8.700  72.340  1.00  0.00    -0.297 OA 
HETATM   17  C4* UNL     1      -9.650   7.268  72.443  1.00  0.00    -0.150 C  
HETATM   18  H2* UNL     1     -13.697   6.773  71.750  1.00  0.00     0.000 HD 
HETATM   19  C3* UNL     1     -11.019   6.594  72.294  1.00  0.00    -0.246 C  
HETATM   20  C2* UNL     1     -12.019   7.745  72.297  1.00  0.00    -0.309 C  
HETATM   21  O3* UNL     1     -11.295   5.708  73.386  1.00  0.00    -0.472 OA 
HETATM   22  H3* UNL     1     -12.143   5.290  73.293  1.00  0.00     0.000 HD 
HETATM   23  O2* UNL     1     -13.182   7.534  71.510  1.00  0.00    -0.353 OA 
BRANCH  17  24
HETATM   24  C5* UNL     1      -8.636   6.809  71.382  1.00  0.00    -0.124 C  
HETATM   25  O5* UNL     1      -9.086   5.604  70.764  1.00  0.00    -0.144 OA 
HETATM   26  H5* UNL     1      -8.459   5.320  70.109  1.00  0.00     0.000 HD 
ENDBRANCH  17  24
ENDBRANCH  14  15
ENDBRANCH   2   3
TORSDOF 3
ENDMDL
MODEL      134
REMARK 921   NORMALIZED FREE ENERGY PREDICTED BY IDOCK:   -3.99 KCAL/MOL
REMARK 922        TOTAL FREE ENERGY PREDICTED BY IDOCK:   -4.92 KCAL/MOL
REMARK 923 INTER-LIGAND FREE ENERGY PREDICTED BY IDOCK:   -4.75 KCAL/MOL
REMARK 924 INTRA-LIGAND FREE ENERGY PREDICTED BY IDOCK:   -0.17 KCAL/MOL
REMARK 927      BINDING AFFINITY PREDICTED BY RF-SCORE:    0.00 PKD
ROOT
HETATM    1  C   UNL     1      -6.990  15.707  68.271  1.00  0.00    -0.114 C  
HETATM    2  O   UNL     1      -7.975  15.468  67.270  1.00  0.00    -0.167 OA 
ENDROOT
BRANCH   2   3
HETATM    3  C   UNL     1      -9.033  14.730  67.762  1.00  0.00    -0.182 A  
HETATM    4  N   UNL     1     -10.173  15.367  68.134  1.00  0.00    -0.228 NA 
HETATM    5  C   UNL     1     -11.212  14.637  68.554  1.00  0.00    -0.271 A  
HETATM    6  N   UNL     1     -12.383  15.320  68.811  1.00  0.00    -0.585 NA 
HETATM    7  N   UNL     1     -11.267  13.305  68.638  1.00  0.00    -0.258 NA 
HETATM    8  H2  UNL     1     -12.653  15.859  67.987  1.00  0.00     0.000 HD 
HETATM    9  C   UNL     1     -10.139  12.707  68.224  1.00  0.00    -0.233 A  
HETATM   10  H1  UNL     1     -13.175  14.763  69.131  1.00  0.00     0.000 HD 
HETATM   11  C   UNL     1      -8.987  13.336  67.779  1.00  0.00    -0.196 A  
HETATM   12  N   UNL     1      -8.039  12.405  67.414  1.00  0.00    -0.169 NA 
HETATM   13  C   UNL     1      -8.621  11.240  67.597  1.00  0.00    -0.124 A  
HETATM   14  N   UNL     1      -9.902  11.371  68.075  1.00  0.00    -0.179 NA 
BRANCH  14  15
HETATM   15  C1* UNL     1     -10.833  10.270  68.194  1.00  0.00    -0.265 C  
HETATM   16  O4* UNL     1     -10.820   9.831  69.570  1.00  0.00    -0.226 OA 
HETATM   17  C4* UNL     1     -10.120   8.567  69.654  1.00  0.00    -0.202 C  
HETATM   18  H2* UNL     1      -9.968   8.470  65.522  1.00  0.00     0.000 HD 
HETATM   19  C3* UNL     1      -9.873   8.060  68.228  1.00  0.00    -0.170 C  
HETATM   20  C2* UNL     1     -10.651   9.021  67.336  1.00  0.00    -0.239 C  
HETATM   21  O3* UNL     1     -10.362   6.725  68.048  1.00  0.00    -0.162 OA 
HETATM   22  H3* UNL     1     -10.209   6.411  67.164  1.00  0.00     0.000 HD 
HETATM   23  O2* UNL     1     -10.082   9.248  66.055  1.00  0.00    -0.297 OA 
BRANCH  17  24
HETATM   24  C5* UNL     1      -8.822   8.754  70.457  1.00  0.00    -0.176 C  
HETATM   25  O5* UNL     1      -8.540  10.144  70.613  1.00  0.00    -0.308 OA 
HETATM   26  H5* UNL     1      -7.738  10.260  71.109  1.00  0.00     0.000 HD 
ENDBRANCH  17  24
ENDBRANCH  14  15
ENDBRANCH   2   3
TORSDOF 3
ENDMDL
MODEL      135
REMARK 921   NORMALIZED FREE ENERGY PREDICTED BY IDOCK:   -3.98 KCAL/MOL
REMARK 922        TOTAL FREE ENERGY PREDICTED BY IDOCK:   -4.90 KCAL/MOL
REMARK 923 INTER-LIGAND FREE ENERGY PREDICTED BY IDOCK:   -5.99 KCAL/MOL
REMARK 924 INTRA-LIGAND FREE ENERGY PREDICTED BY IDOCK:    1.08 KCAL/MOL
REMARK 927      BINDING AFFINITY PREDICTED BY RF-SCORE:    0.00 PKD
ROOT
HETATM    1  C   UNL     1     -11.826  12.979  63.555  1.00  0.00    -0.516 C  
HETATM    2  O   UNL     1     -12.383  14.280  63.708  1.00  0.00    -0.735 OA 
ENDROOT
BRANCH   2   3
HETATM    3  C   UNL     1     -11.593  15.081  64.508  1.00  0.00    -0.343 A  
HETATM    4  N   UNL     1     -11.602  16.427  64.319  1.00  0.00    -0.907 NA 
HETATM    5  C   UNL     1     -10.878  17.198  65.137  1.00  0.00     0.001 A  
HETATM    6  N   UNL     1     -11.011  18.562  64.978  1.00  0.00    -0.372 NA 
HETATM    7  N   UNL     1     -10.131  16.786  66.166  1.00  0.00    -0.334 NA 
HETATM    8  H2  UNL     1     -11.995  18.821  65.046  1.00  0.00     0.000 HD 
HETATM    9  C   UNL     1     -10.178  15.457  66.348  1.00  0.00    -0.286 A  
HETATM   10  H1  UNL     1     -10.458  19.150  65.603  1.00  0.00     0.000 HD 
HETATM   11  C   UNL     1     -10.872  14.541  65.573  1.00  0.00    -0.336 A  
HETATM   12  N   UNL     1     -10.709  13.266  66.070  1.00  0.00    -0.275 NA 
HETATM   13  C   UNL     1      -9.966  13.415  67.145  1.00  0.00    -0.242 A  
HETATM   14  N   UNL     1      -9.628  14.728  67.363  1.00  0.00    -0.208 NA 
BRANCH  14  15
HETATM   15  C1* UNL     1      -8.975  15.203  68.564  1.00  0.00    -0.186 C  
HETATM   16  O4* UNL     1      -8.648  16.595  68.364  1.00  0.00    -0.204 OA 
HETATM   17  C4* UNL     1      -7.219  16.719  68.162  1.00  0.00    -0.164 C  
HETATM   18  H2* UNL     1      -6.824  12.708  69.092  1.00  0.00     0.000 HD 
HETATM   19  C3* UNL     1      -6.572  15.365  68.476  1.00  0.00    -0.109 C  
HETATM   20  C2* UNL     1      -7.701  14.522  69.058  1.00  0.00    -0.113 C  
HETATM   21  O3* UNL     1      -5.516  15.493  69.436  1.00  0.00    -0.104 OA 
HETATM   22  H3* UNL     1      -5.114  14.654  69.631  1.00  0.00     0.000 HD 
HETATM   23  O2* UNL     1      -7.617  13.131  68.785  1.00  0.00    -0.110 OA 
BRANCH  17  24
HETATM   24  C5* UNL     1      -6.947  17.196  66.726  1.00  0.00    -0.225 C  
HETATM   25  O5* UNL     1      -7.511  18.491  66.524  1.00  0.00    -0.222 OA 
HETATM   26  H5* UNL     1      -7.343  18.785  65.637  1.00  0.00     0.000 HD 
ENDBRANCH  17  24
ENDBRANCH  14  15
ENDBRANCH   2   3
TORSDOF 3
ENDMDL
MODEL      136
REMARK 921   NORMALIZED FREE ENERGY PREDICTED BY IDOCK:   -3.96 KCAL/MOL
REMARK 922        TOTAL FREE ENERGY PREDICTED BY IDOCK:   -4.87 KCAL/MOL
REMARK 923 INTER-LIGAND FREE ENERGY PREDICTED BY IDOCK:   -5.04 KCAL/MOL
REMARK 924 INTRA-LIGAND FREE ENERGY PREDICTED BY IDOCK:    0.16 KCAL/MOL
REMARK 927      BINDING AFFINITY PREDICTED BY RF-SCORE:    0.00 PKD
ROOT
HETATM    1  C   UNL     1     -11.144  14.327  65.647  1.00  0.00    -0.316 C  
HETATM    2  O   UNL     1     -11.745  13.055  65.429  1.00  0.00    -0.331 OA 
ENDROOT
BRANCH   2   3
HETATM    3  C   UNL     1     -11.308  12.121  66.346  1.00  0.00    -0.356 A  
HETATM    4  N   UNL     1     -12.006  11.942  67.498  1.00  0.00    -0.588 NA 
HETATM    5  C   UNL     1     -11.608  10.995  68.353  1.00  0.00    -0.302 A  
HETATM    6  N   UNL     1     -12.415  10.774  69.451  1.00  0.00    -0.649 NA 
HETATM    7  N   UNL     1     -10.575  10.162  68.194  1.00  0.00    -0.207 NA 
HETATM    8  H2  UNL     1     -13.367  10.579  69.142  1.00  0.00     0.000 HD 
HETATM    9  C   UNL     1      -9.934  10.339  67.028  1.00  0.00    -0.201 A  
HETATM   10  H1  UNL     1     -12.111  10.051  70.103  1.00  0.00     0.000 HD 
HETATM   11  C   UNL     1     -10.228  11.286  66.060  1.00  0.00    -0.247 A  
HETATM   12  N   UNL     1      -9.375  11.159  64.986  1.00  0.00    -0.221 NA 
HETATM   13  C   UNL     1      -8.609  10.132  65.282  1.00  0.00    -0.158 A  
HETATM   14  N   UNL     1      -8.918   9.592  66.506  1.00  0.00    -0.144 NA 
BRANCH  14  15
HETATM   15  C1* UNL     1      -8.363   8.351  67.002  1.00  0.00    -0.114 C  
HETATM   16  O4* UNL     1      -7.068   8.172  66.387  1.00  0.00    -0.072 OA 
HETATM   17  C4* UNL     1      -7.161   7.128  65.388  1.00  0.00    -0.070 C  
HETATM   18  H2* UNL     1     -11.012   6.348  66.682  1.00  0.00     0.000 HD 
HETATM   19  C3* UNL     1      -8.527   6.447  65.533  1.00  0.00    -0.139 C  
HETATM   20  C2* UNL     1      -9.124   7.042  66.803  1.00  0.00    -0.143 C  
HETATM   21  O3* UNL     1      -8.400   5.027  65.674  1.00  0.00    -0.113 OA 
HETATM   22  H3* UNL     1      -9.246   4.605  65.763  1.00  0.00     0.000 HD 
HETATM   23  O2* UNL     1     -10.539   7.163  66.805  1.00  0.00    -0.288 OA 
BRANCH  17  24
HETATM   24  C5* UNL     1      -6.937   7.734  63.994  1.00  0.00    -0.066 C  
HETATM   25  O5* UNL     1      -8.179   7.835  63.298  1.00  0.00    -0.311 OA 
HETATM   26  H5* UNL     1      -8.040   8.210  62.436  1.00  0.00     0.000 HD 
ENDBRANCH  17  24
ENDBRANCH  14  15
ENDBRANCH   2   3
TORSDOF 3
ENDMDL
MODEL      137
REMARK 921   NORMALIZED FREE ENERGY PREDICTED BY IDOCK:   -3.92 KCAL/MOL
REMARK 922        TOTAL FREE ENERGY PREDICTED BY IDOCK:   -4.84 KCAL/MOL
REMARK 923 INTER-LIGAND FREE ENERGY PREDICTED BY IDOCK:   -4.91 KCAL/MOL
REMARK 924 INTRA-LIGAND FREE ENERGY PREDICTED BY IDOCK:    0.07 KCAL/MOL
REMARK 927      BINDING AFFINITY PREDICTED BY RF-SCORE:    0.00 PKD
ROOT
HETATM    1  C   UNL     1     -12.383  13.157  65.136  1.00  0.00    -0.473 C  
HETATM    2  O   UNL     1     -11.155  13.003  65.839  1.00  0.00    -0.276 OA 
ENDROOT
BRANCH   2   3
HETATM    3  C   UNL     1     -10.832  11.672  66.014  1.00  0.00    -0.289 A  
HETATM    4  N   UNL     1     -10.169  11.012  65.029  1.00  0.00    -0.280 NA 
HETATM    5  C   UNL     1      -9.810   9.740  65.234  1.00  0.00    -0.265 A  
HETATM    6  N   UNL     1      -9.039   9.150  64.253  1.00  0.00    -0.427 NA 
HETATM    7  N   UNL     1     -10.021   9.021  66.341  1.00  0.00    -0.294 NA 
HETATM    8  H2  UNL     1      -8.208   9.718  64.082  1.00  0.00     0.000 HD 
HETATM    9  C   UNL     1     -10.641   9.717  67.307  1.00  0.00    -0.247 A  
HETATM   10  H1  UNL     1      -8.765   8.180  64.409  1.00  0.00     0.000 HD 
HETATM   11  C   UNL     1     -11.079  11.029  67.227  1.00  0.00    -0.294 A  
HETATM   12  N   UNL     1     -11.651  11.420  68.418  1.00  0.00    -0.356 NA 
HETATM   13  C   UNL     1     -11.524  10.379  69.212  1.00  0.00    -0.215 A  
HETATM   14  N   UNL     1     -10.905   9.324  68.587  1.00  0.00    -0.136 NA 
BRANCH  14  15
HETATM   15  C1* UNL     1     -10.474   8.124  69.270  1.00  0.00    -0.214 C  
HETATM   16  O4* UNL     1      -9.141   8.360  69.774  1.00  0.00    -0.150 OA 
HETATM   17  C4* UNL     1      -8.194   7.617  68.968  1.00  0.00    -0.127 C  
HETATM   18  H2* UNL     1     -11.378   5.815  67.038  1.00  0.00     0.000 HD 
HETATM   19  C3* UNL     1      -8.982   6.679  68.047  1.00  0.00    -0.117 C  
HETATM   20  C2* UNL     1     -10.427   6.795  68.520  1.00  0.00    -0.204 C  
HETATM   21  O3* UNL     1      -8.538   5.321  68.168  1.00  0.00    -0.100 OA 
HETATM   22  H3* UNL     1      -9.026   4.740  67.597  1.00  0.00     0.000 HD 
HETATM   23  O2* UNL     1     -11.407   6.642  67.505  1.00  0.00    -0.271 OA 
BRANCH  17  24
HETATM   24  C5* UNL     1      -7.298   8.601  68.198  1.00  0.00    -0.091 C  
HETATM   25  O5* UNL     1      -7.237   8.233  66.820  1.00  0.00    -0.079 OA 
HETATM   26  H5* UNL     1      -6.683   8.841  66.345  1.00  0.00     0.000 HD 
ENDBRANCH  17  24
ENDBRANCH  14  15
ENDBRANCH   2   3
TORSDOF 3
ENDMDL
MODEL      138
REMARK 921   NORMALIZED FREE ENERGY PREDICTED BY IDOCK:   -3.91 KCAL/MOL
REMARK 922        TOTAL FREE ENERGY PREDICTED BY IDOCK:   -4.82 KCAL/MOL
REMARK 923 INTER-LIGAND FREE ENERGY PREDICTED BY IDOCK:   -4.89 KCAL/MOL
REMARK 924 INTRA-LIGAND FREE ENERGY PREDICTED BY IDOCK:    0.06 KCAL/MOL
REMARK 927      BINDING AFFINITY PREDICTED BY RF-SCORE:    0.00 PKD
ROOT
HETATM    1  C   UNL     1     -12.672  11.848  63.345  1.00  0.00    -0.366 C  
HETATM    2  O   UNL     1     -11.281  12.134  63.450  1.00  0.00    -0.427 OA 
ENDROOT
BRANCH   2   3
HETATM    3  C   UNL     1     -10.694  11.437  64.487  1.00  0.00    -0.327 A  
HETATM    4  N   UNL     1     -11.120  11.652  65.759  1.00  0.00    -0.287 NA 
HETATM    5  C   UNL     1     -10.585  10.930  66.749  1.00  0.00    -0.259 A  
HETATM    6  N   UNL     1     -11.132  11.103  68.004  1.00  0.00    -0.252 NA 
HETATM    7  N   UNL     1      -9.658   9.975  66.627  1.00  0.00    -0.178 NA 
HETATM    8  H2  UNL     1     -12.138  10.939  67.965  1.00  0.00     0.000 HD 
HETATM    9  C   UNL     1      -9.291   9.761  65.354  1.00  0.00    -0.252 A  
HETATM   10  H1  UNL     1     -10.723  10.552  68.759  1.00  0.00     0.000 HD 
HETATM   11  C   UNL     1      -9.750  10.442  64.237  1.00  0.00    -0.326 A  
HETATM   12  N   UNL     1      -9.171   9.937  63.093  1.00  0.00    -0.272 NA 
HETATM   13  C   UNL     1      -8.409   8.949  63.507  1.00  0.00    -0.167 A  
HETATM   14  N   UNL     1      -8.458   8.793  64.871  1.00  0.00    -0.173 NA 
BRANCH  14  15
HETATM   15  C1* UNL     1      -7.868   7.677  65.576  1.00  0.00    -0.112 C  
HETATM   16  O4* UNL     1      -8.857   6.627  65.644  1.00  0.00    -0.130 OA 
HETATM   17  C4* UNL     1      -9.364   6.544  66.998  1.00  0.00    -0.139 C  
HETATM   18  H2* UNL     1      -6.481   9.274  68.156  1.00  0.00     0.000 HD 
HETATM   19  C3* UNL     1      -8.489   7.430  67.892  1.00  0.00    -0.122 C  
HETATM   20  C2* UNL     1      -7.336   7.867  66.995  1.00  0.00    -0.091 C  
HETATM   21  O3* UNL     1      -7.980   6.707  69.020  1.00  0.00    -0.109 OA 
HETATM   22  H3* UNL     1      -7.439   7.257  69.574  1.00  0.00     0.000 HD 
HETATM   23  O2* UNL     1      -6.812   9.156  67.273  1.00  0.00    -0.075 OA 
BRANCH  17  24
HETATM   24  C5* UNL     1     -10.846   6.951  67.014  1.00  0.00    -0.366 C  
HETATM   25  O5* UNL     1     -11.085   7.888  68.064  1.00  0.00    -0.457 OA 
HETATM   26  H5* UNL     1     -12.000   8.140  68.074  1.00  0.00     0.000 HD 
ENDBRANCH  17  24
ENDBRANCH  14  15
ENDBRANCH   2   3
TORSDOF 3
ENDMDL
MODEL      139
REMARK 921   NORMALIZED FREE ENERGY PREDICTED BY IDOCK:   -3.90 KCAL/MOL
REMARK 922        TOTAL FREE ENERGY PREDICTED BY IDOCK:   -4.81 KCAL/MOL
REMARK 923 INTER-LIGAND FREE ENERGY PREDICTED BY IDOCK:   -5.05 KCAL/MOL
REMARK 924 INTRA-LIGAND FREE ENERGY PREDICTED BY IDOCK:    0.24 KCAL/MOL
REMARK 927      BINDING AFFINITY PREDICTED BY RF-SCORE:    0.00 PKD
ROOT
HETATM    1  C   UNL     1      -9.959  15.135  67.168  1.00  0.00    -0.237 C  
HETATM    2  O   UNL     1     -10.448  14.096  68.010  1.00  0.00    -0.233 OA 
ENDROOT
BRANCH   2   3
HETATM    3  C   UNL     1      -9.705  12.940  67.878  1.00  0.00    -0.218 A  
HETATM    4  N   UNL     1      -8.505  12.989  67.243  1.00  0.00    -0.196 NA 
HETATM    5  C   UNL     1      -7.768  11.875  67.172  1.00  0.00    -0.163 A  
HETATM    6  N   UNL     1      -6.509  12.002  66.621  1.00  0.00    -0.423 NA 
HETATM    7  N   UNL     1      -8.078  10.681  67.684  1.00  0.00    -0.107 NA 
HETATM    8  H2  UNL     1      -5.989  12.726  67.117  1.00  0.00     0.000 HD 
HETATM    9  C   UNL     1      -9.250  10.680  68.338  1.00  0.00    -0.159 A  
HETATM   10  H1  UNL     1      -5.947  11.153  66.566  1.00  0.00     0.000 HD 
HETATM   11  C   UNL     1     -10.118  11.751  68.478  1.00  0.00    -0.207 A  
HETATM   12  N   UNL     1     -11.213  11.390  69.233  1.00  0.00    -0.258 NA 
HETATM   13  C   UNL     1     -10.991  10.139  69.573  1.00  0.00    -0.256 A  
HETATM   14  N   UNL     1      -9.805   9.667  69.066  1.00  0.00    -0.175 NA 
BRANCH  14  15
HETATM   15  C1* UNL     1      -9.224   8.393  69.429  1.00  0.00    -0.154 C  
HETATM   16  O4* UNL     1      -8.957   7.668  68.209  1.00  0.00    -0.129 OA 
HETATM   17  C4* UNL     1      -9.925   6.599  68.074  1.00  0.00    -0.142 C  
HETATM   18  H2* UNL     1     -11.295   7.474  71.877  1.00  0.00     0.000 HD 
HETATM   19  C3* UNL     1     -10.707   6.493  69.388  1.00  0.00    -0.277 C  
HETATM   20  C2* UNL     1      -9.988   7.439  70.344  1.00  0.00    -0.188 C  
HETATM   21  O3* UNL     1     -10.683   5.160  69.914  1.00  0.00    -0.237 OA 
HETATM   22  H3* UNL     1     -11.168   5.095  70.728  1.00  0.00     0.000 HD 
HETATM   23  O2* UNL     1     -10.820   8.067  71.308  1.00  0.00    -0.227 OA 
BRANCH  17  24
HETATM   24  C5* UNL     1     -10.826   6.877  66.860  1.00  0.00    -0.310 C  
HETATM   25  O5* UNL     1     -11.200   5.650  66.236  1.00  0.00    -0.759 OA 
HETATM   26  H5* UNL     1     -11.757   5.822  65.486  1.00  0.00     0.000 HD 
ENDBRANCH  17  24
ENDBRANCH  14  15
ENDBRANCH   2   3
TORSDOF 3
ENDMDL
MODEL      140
REMARK 921   NORMALIZED FREE ENERGY PREDICTED BY IDOCK:   -3.90 KCAL/MOL
REMARK 922        TOTAL FREE ENERGY PREDICTED BY IDOCK:   -4.81 KCAL/MOL
REMARK 923 INTER-LIGAND FREE ENERGY PREDICTED BY IDOCK:   -4.89 KCAL/MOL
REMARK 924 INTRA-LIGAND FREE ENERGY PREDICTED BY IDOCK:    0.07 KCAL/MOL
REMARK 927      BINDING AFFINITY PREDICTED BY RF-SCORE:    0.00 PKD
ROOT
HETATM    1  C   UNL     1     -11.333  16.446  64.691  1.00  0.00    -0.161 C  
HETATM    2  O   UNL     1     -10.773  17.483  65.491  1.00  0.00    -0.551 OA 
ENDROOT
BRANCH   2   3
HETATM    3  C   UNL     1      -9.994  16.975  66.511  1.00  0.00    -0.310 A  
HETATM    4  N   UNL     1     -10.567  16.190  67.460  1.00  0.00    -0.311 NA 
HETATM    5  C   UNL     1      -9.792  15.657  68.410  1.00  0.00    -0.206 A  
HETATM    6  N   UNL     1     -10.401  14.776  69.282  1.00  0.00    -0.302 NA 
HETATM    7  N   UNL     1      -8.469  15.796  68.530  1.00  0.00    -0.173 NA 
HETATM    8  H2  UNL     1     -10.858  14.032  68.754  1.00  0.00     0.000 HD 
HETATM    9  C   UNL     1      -7.930  16.542  67.553  1.00  0.00    -0.158 A  
HETATM   10  H1  UNL     1      -9.810  14.369  70.006  1.00  0.00     0.000 HD 
HETATM   11  C   UNL     1      -8.612  17.165  66.519  1.00  0.00    -0.271 A  
HETATM   12  N   UNL     1      -7.732  17.826  65.690  1.00  0.00    -0.499 NA 
HETATM   13  C   UNL     1      -6.542  17.575  66.191  1.00  0.00    -0.247 A  
HETATM   14  N   UNL     1      -6.609  16.788  67.315  1.00  0.00    -0.154 NA 
BRANCH  14  15
HETATM   15  C1* UNL     1      -5.452  16.209  67.963  1.00  0.00    -0.116 C  
HETATM   16  O4* UNL     1      -5.265  14.883  67.422  1.00  0.00    -0.335 OA 
HETATM   17  C4* UNL     1      -5.662  13.908  68.417  1.00  0.00    -0.103 C  
HETATM   18  H2* UNL     1      -6.100  16.990  71.140  1.00  0.00     0.000 HD 
HETATM   19  C3* UNL     1      -5.898  14.645  69.741  1.00  0.00    -0.111 C  
HETATM   20  C2* UNL     1      -5.420  16.069  69.482  1.00  0.00    -0.122 C  
HETATM   21  O3* UNL     1      -5.143  14.065  70.812  1.00  0.00    -0.100 OA 
HETATM   22  H3* UNL     1      -5.290  14.521  71.632  1.00  0.00     0.000 HD 
HETATM   23  O2* UNL     1      -6.120  17.078  70.195  1.00  0.00    -0.201 OA 
BRANCH  17  24
HETATM   24  C5* UNL     1      -6.905  13.151  67.921  1.00  0.00    -0.135 C  
HETATM   25  O5* UNL     1      -7.766  12.852  69.019  1.00  0.00    -0.321 OA 
HETATM   26  H5* UNL     1      -8.534  12.384  68.713  1.00  0.00     0.000 HD 
ENDBRANCH  17  24
ENDBRANCH  14  15
ENDBRANCH   2   3
TORSDOF 3
ENDMDL
MODEL      141
REMARK 921   NORMALIZED FREE ENERGY PREDICTED BY IDOCK:   -3.90 KCAL/MOL
REMARK 922        TOTAL FREE ENERGY PREDICTED BY IDOCK:   -4.81 KCAL/MOL
REMARK 923 INTER-LIGAND FREE ENERGY PREDICTED BY IDOCK:   -4.65 KCAL/MOL
REMARK 924 INTRA-LIGAND FREE ENERGY PREDICTED BY IDOCK:   -0.16 KCAL/MOL
REMARK 927      BINDING AFFINITY PREDICTED BY RF-SCORE:    0.00 PKD
ROOT
HETATM    1  C   UNL     1     -11.257  13.611  66.699  1.00  0.00    -0.313 C  
HETATM    2  O   UNL     1     -10.565  13.284  67.900  1.00  0.00    -0.229 OA 
ENDROOT
BRANCH   2   3
HETATM    3  C   UNL     1      -9.793  12.150  67.750  1.00  0.00    -0.199 A  
HETATM    4  N   UNL     1      -8.829  12.121  66.793  1.00  0.00    -0.201 NA 
HETATM    5  C   UNL     1      -8.049  11.040  66.696  1.00  0.00    -0.155 A  
HETATM    6  N   UNL     1      -7.012  11.106  65.787  1.00  0.00    -0.373 NA 
HETATM    7  N   UNL     1      -8.098   9.950  67.467  1.00  0.00    -0.110 NA 
HETATM    8  H2  UNL     1      -6.438  11.926  65.982  1.00  0.00     0.000 HD 
HETATM    9  C   UNL     1      -9.034  10.029  68.426  1.00  0.00    -0.121 A  
HETATM   10  H1  UNL     1      -6.417  10.281  65.713  1.00  0.00     0.000 HD 
HETATM   11  C   UNL     1      -9.916  11.078  68.634  1.00  0.00    -0.199 A  
HETATM   12  N   UNL     1     -10.719  10.824  69.725  1.00  0.00    -0.225 NA 
HETATM   13  C   UNL     1     -10.303   9.666  70.189  1.00  0.00    -0.266 A  
HETATM   14  N   UNL     1      -9.272   9.149  69.443  1.00  0.00    -0.152 NA 
BRANCH  14  15
HETATM   15  C1* UNL     1      -8.504   7.985  69.827  1.00  0.00    -0.127 C  
HETATM   16  O4* UNL     1      -9.319   6.819  69.575  1.00  0.00    -0.147 OA 
HETATM   17  C4* UNL     1      -9.783   6.287  70.840  1.00  0.00    -0.176 C  
HETATM   18  H2* UNL     1      -7.335   8.996  72.783  1.00  0.00     0.000 HD 
HETATM   19  C3* UNL     1      -9.040   7.013  71.966  1.00  0.00    -0.131 C  
HETATM   20  C2* UNL     1      -7.984   7.852  71.256  1.00  0.00    -0.092 C  
HETATM   21  O3* UNL     1      -8.406   6.092  72.863  1.00  0.00    -0.116 OA 
HETATM   22  H3* UNL     1      -7.946   6.543  73.562  1.00  0.00     0.000 HD 
HETATM   23  O2* UNL     1      -7.659   9.079  71.894  1.00  0.00    -0.334 OA 
BRANCH  17  24
HETATM   24  C5* UNL     1     -11.309   6.443  70.930  1.00  0.00    -0.338 C  
HETATM   25  O5* UNL     1     -11.866   6.577  69.623  1.00  0.00    -0.645 OA 
HETATM   26  H5* UNL     1     -12.809   6.673  69.678  1.00  0.00     0.000 HD 
ENDBRANCH  17  24
ENDBRANCH  14  15
ENDBRANCH   2   3
TORSDOF 3
ENDMDL
MODEL      142
REMARK 921   NORMALIZED FREE ENERGY PREDICTED BY IDOCK:   -3.89 KCAL/MOL
REMARK 922        TOTAL FREE ENERGY PREDICTED BY IDOCK:   -4.80 KCAL/MOL
REMARK 923 INTER-LIGAND FREE ENERGY PREDICTED BY IDOCK:   -5.35 KCAL/MOL
REMARK 924 INTRA-LIGAND FREE ENERGY PREDICTED BY IDOCK:    0.55 KCAL/MOL
REMARK 927      BINDING AFFINITY PREDICTED BY RF-SCORE:    0.00 PKD
ROOT
HETATM    1  C   UNL     1     -10.629  16.851  67.200  1.00  0.00    -0.249 C  
HETATM    2  O   UNL     1      -9.876  15.968  66.375  1.00  0.00    -0.254 OA 
ENDROOT
BRANCH   2   3
HETATM    3  C   UNL     1     -10.264  14.655  66.547  1.00  0.00    -0.278 A  
HETATM    4  N   UNL     1     -11.376  14.200  65.911  1.00  0.00    -0.317 NA 
HETATM    5  C   UNL     1     -11.710  12.912  66.038  1.00  0.00    -0.404 A  
HETATM    6  N   UNL     1     -12.778  12.473  65.283  1.00  0.00    -0.590 NA 
HETATM    7  N   UNL     1     -11.045  11.981  66.730  1.00  0.00    -0.288 NA 
HETATM    8  H2  UNL     1     -12.614  12.690  64.299  1.00  0.00     0.000 HD 
HETATM    9  C   UNL     1      -9.932  12.455  67.310  1.00  0.00    -0.206 A  
HETATM   10  H1  UNL     1     -13.033  11.491  65.380  1.00  0.00     0.000 HD 
HETATM   11  C   UNL     1      -9.475  13.763  67.273  1.00  0.00    -0.236 A  
HETATM   12  N   UNL     1      -8.286  13.879  67.961  1.00  0.00    -0.154 NA 
HETATM   13  C   UNL     1      -8.013  12.659  68.370  1.00  0.00    -0.134 A  
HETATM   14  N   UNL     1      -8.975  11.757  67.988  1.00  0.00    -0.169 NA 
BRANCH  14  15
HETATM   15  C1* UNL     1      -8.843  10.324  68.142  1.00  0.00    -0.123 C  
HETATM   16  O4* UNL     1      -8.265   9.803  66.925  1.00  0.00    -0.116 OA 
HETATM   17  C4* UNL     1      -9.290   9.105  66.178  1.00  0.00    -0.228 C  
HETATM   18  H2* UNL     1     -11.844   9.584  69.396  1.00  0.00     0.000 HD 
HETATM   19  C3* UNL     1     -10.530   8.977  67.071  1.00  0.00    -0.246 C  
HETATM   20  C2* UNL     1     -10.074   9.472  68.439  1.00  0.00    -0.175 C  
HETATM   21  O3* UNL     1     -10.973   7.617  67.169  1.00  0.00    -0.516 OA 
HETATM   22  H3* UNL     1     -11.741   7.538  67.722  1.00  0.00     0.000 HD 
HETATM   23  O2* UNL     1     -11.078  10.114  69.212  1.00  0.00    -0.225 OA 
BRANCH  17  24
HETATM   24  C5* UNL     1      -9.570   9.860  64.868  1.00  0.00    -0.288 C  
HETATM   25  O5* UNL     1      -8.470   9.710  63.972  1.00  0.00    -0.157 OA 
HETATM   26  H5* UNL     1      -8.643  10.176  63.163  1.00  0.00     0.000 HD 
ENDBRANCH  17  24
ENDBRANCH  14  15
ENDBRANCH   2   3
TORSDOF 3
ENDMDL
MODEL      143
REMARK 921   NORMALIZED FREE ENERGY PREDICTED BY IDOCK:   -3.88 KCAL/MOL
REMARK 922        TOTAL FREE ENERGY PREDICTED BY IDOCK:   -4.79 KCAL/MOL
REMARK 923 INTER-LIGAND FREE ENERGY PREDICTED BY IDOCK:   -6.63 KCAL/MOL
REMARK 924 INTRA-LIGAND FREE ENERGY PREDICTED BY IDOCK:    1.84 KCAL/MOL
REMARK 927      BINDING AFFINITY PREDICTED BY RF-SCORE:    0.00 PKD
ROOT
HETATM    1  C   UNL     1      -9.889  19.845  65.893  1.00  0.00    -0.352 C  
HETATM    2  O   UNL     1     -10.741  18.989  65.140  1.00  0.00    -0.408 OA 
ENDROOT
BRANCH   2   3
HETATM    3  C   UNL     1     -10.772  17.712  65.663  1.00  0.00    -0.084 A  
HETATM    4  N   UNL     1     -10.716  16.646  64.822  1.00  0.00    -0.730 NA 
HETATM    5  C   UNL     1     -10.688  15.415  65.343  1.00  0.00    -0.400 A  
HETATM    6  N   UNL     1     -10.515  14.373  64.455  1.00  0.00    -0.553 NA 
HETATM    7  N   UNL     1     -10.693  15.100  66.642  1.00  0.00    -0.306 NA 
HETATM    8  H2  UNL     1      -9.672  14.530  63.903  1.00  0.00     0.000 HD 
HETATM    9  C   UNL     1     -10.707  16.176  67.442  1.00  0.00    -0.291 A  
HETATM   10  H1  UNL     1     -10.493  13.434  64.853  1.00  0.00     0.000 HD 
HETATM   11  C   UNL     1     -10.751  17.502  67.042  1.00  0.00    -0.157 A  
HETATM   12  N   UNL     1     -10.730  18.339  68.137  1.00  0.00    -0.279 NA 
HETATM   13  C   UNL     1     -10.636  17.535  69.174  1.00  0.00    -0.091 A  
HETATM   14  N   UNL     1     -10.605  16.213  68.803  1.00  0.00    -0.262 NA 
BRANCH  14  15
HETATM   15  C1* UNL     1     -10.324  15.127  69.717  1.00  0.00    -0.210 C  
HETATM   16  O4* UNL     1     -10.163  13.924  68.933  1.00  0.00    -0.213 OA 
HETATM   17  C4* UNL     1     -11.329  13.085  69.113  1.00  0.00    -0.273 C  
HETATM   18  H2* UNL     1     -12.650  15.691  72.041  1.00  0.00     0.000 HD 
HETATM   19  C3* UNL     1     -12.173  13.675  70.248  1.00  0.00    -0.353 C  
HETATM   20  C2* UNL     1     -11.313  14.791  70.830  1.00  0.00    -0.173 C  
HETATM   21  O3* UNL     1     -12.456  12.701  71.261  1.00  0.00    -0.309 OA 
HETATM   22  H3* UNL     1     -12.980  13.067  71.964  1.00  0.00     0.000 HD 
HETATM   23  O2* UNL     1     -12.034  15.900  71.348  1.00  0.00    -0.390 OA 
BRANCH  17  24
HETATM   24  C5* UNL     1     -12.096  12.984  67.785  1.00  0.00    -0.193 C  
HETATM   25  O5* UNL     1     -11.788  11.752  67.134  1.00  0.00    -0.599 OA 
HETATM   26  H5* UNL     1     -12.262  11.690  66.313  1.00  0.00     0.000 HD 
ENDBRANCH  17  24
ENDBRANCH  14  15
ENDBRANCH   2   3
TORSDOF 3
ENDMDL
MODEL      144
REMARK 921   NORMALIZED FREE ENERGY PREDICTED BY IDOCK:   -3.87 KCAL/MOL
REMARK 922        TOTAL FREE ENERGY PREDICTED BY IDOCK:   -4.78 KCAL/MOL
REMARK 923 INTER-LIGAND FREE ENERGY PREDICTED BY IDOCK:   -5.06 KCAL/MOL
REMARK 924 INTRA-LIGAND FREE ENERGY PREDICTED BY IDOCK:    0.28 KCAL/MOL
REMARK 927      BINDING AFFINITY PREDICTED BY RF-SCORE:    0.00 PKD
ROOT
HETATM    1  C   UNL     1      -9.716  16.964  68.516  1.00  0.00    -0.264 C  
HETATM    2  O   UNL     1      -8.486  16.558  67.924  1.00  0.00    -0.177 OA 
ENDROOT
BRANCH   2   3
HETATM    3  C   UNL     1      -8.445  15.193  67.720  1.00  0.00    -0.150 A  
HETATM    4  N   UNL     1      -7.762  14.409  68.596  1.00  0.00    -0.133 NA 
HETATM    5  C   UNL     1      -7.777  13.084  68.421  1.00  0.00    -0.137 A  
HETATM    6  N   UNL     1      -7.167  12.325  69.400  1.00  0.00    -0.327 NA 
HETATM    7  N   UNL     1      -8.422  12.414  67.461  1.00  0.00    -0.164 NA 
HETATM    8  H2  UNL     1      -7.566  12.556  70.310  1.00  0.00     0.000 HD 
HETATM    9  C   UNL     1      -9.118  13.216  66.640  1.00  0.00    -0.173 A  
HETATM   10  H1  UNL     1      -7.179  11.314  69.267  1.00  0.00     0.000 HD 
HETATM   11  C   UNL     1      -9.180  14.599  66.695  1.00  0.00    -0.267 A  
HETATM   12  N   UNL     1     -10.010  15.084  65.708  1.00  0.00    -0.323 NA 
HETATM   13  C   UNL     1     -10.469  14.014  65.096  1.00  0.00    -0.397 A  
HETATM   14  N   UNL     1      -9.967  12.855  65.634  1.00  0.00    -0.264 NA 
BRANCH  14  15
HETATM   15  C1* UNL     1     -10.437  11.533  65.281  1.00  0.00    -0.283 C  
HETATM   16  O4* UNL     1      -9.493  10.576  65.809  1.00  0.00    -0.181 OA 
HETATM   17  C4* UNL     1      -8.719  10.026  64.716  1.00  0.00    -0.187 C  
HETATM   18  H2* UNL     1     -11.197  12.014  62.068  1.00  0.00     0.000 HD 
HETATM   19  C3* UNL     1      -9.355  10.485  63.399  1.00  0.00    -0.305 C  
HETATM   20  C2* UNL     1     -10.653  11.168  63.814  1.00  0.00    -0.356 C  
HETATM   21  O3* UNL     1      -9.643   9.378  62.535  1.00  0.00    -0.552 OA 
HETATM   22  H3* UNL     1     -10.037   9.663  61.719  1.00  0.00     0.000 HD 
HETATM   23  O2* UNL     1     -11.063  12.242  62.981  1.00  0.00    -0.265 OA 
BRANCH  17  24
HETATM   24  C5* UNL     1      -7.252  10.464  64.859  1.00  0.00    -0.051 C  
HETATM   25  O5* UNL     1      -6.864  10.438  66.231  1.00  0.00    -0.102 OA 
HETATM   26  H5* UNL     1      -5.958  10.709  66.319  1.00  0.00     0.000 HD 
ENDBRANCH  17  24
ENDBRANCH  14  15
ENDBRANCH   2   3
TORSDOF 3
ENDMDL
MODEL      145
REMARK 921   NORMALIZED FREE ENERGY PREDICTED BY IDOCK:   -3.87 KCAL/MOL
REMARK 922        TOTAL FREE ENERGY PREDICTED BY IDOCK:   -4.77 KCAL/MOL
REMARK 923 INTER-LIGAND FREE ENERGY PREDICTED BY IDOCK:   -4.83 KCAL/MOL
REMARK 924 INTRA-LIGAND FREE ENERGY PREDICTED BY IDOCK:    0.06 KCAL/MOL
REMARK 927      BINDING AFFINITY PREDICTED BY RF-SCORE:    0.00 PKD
ROOT
HETATM    1  C   UNL     1     -10.964  17.026  64.755  1.00  0.00     0.219 C  
HETATM    2  O   UNL     1     -10.891  18.357  65.253  1.00  0.00    -0.624 OA 
ENDROOT
BRANCH   2   3
HETATM    3  C   UNL     1     -10.141  18.428  66.410  1.00  0.00    -0.403 A  
HETATM    4  N   UNL     1     -10.658  17.943  67.570  1.00  0.00    -0.392 NA 
HETATM    5  C   UNL     1      -9.901  17.964  68.672  1.00  0.00    -0.374 A  
HETATM    6  N   UNL     1     -10.427  17.357  69.794  1.00  0.00    -0.167 NA 
HETATM    7  N   UNL     1      -8.644  18.407  68.766  1.00  0.00    -0.272 NA 
HETATM    8  H2  UNL     1     -10.685  16.395  69.573  1.00  0.00     0.000 HD 
HETATM    9  C   UNL     1      -8.152  18.839  67.594  1.00  0.00    -0.251 A  
HETATM   10  H1  UNL     1      -9.849  17.372  70.634  1.00  0.00     0.000 HD 
HETATM   11  C   UNL     1      -8.825  18.888  66.384  1.00  0.00    -0.306 A  
HETATM   12  N   UNL     1      -7.998  19.368  65.391  1.00  0.00    -0.192 NA 
HETATM   13  C   UNL     1      -6.840  19.567  65.982  1.00  0.00    -0.251 A  
HETATM   14  N   UNL     1      -6.879  19.248  67.317  1.00  0.00    -0.195 NA 
BRANCH  14  15
HETATM   15  C1* UNL     1      -5.709  19.195  68.167  1.00  0.00    -0.204 C  
HETATM   16  O4* UNL     1      -5.152  17.866  68.065  1.00  0.00    -0.143 OA 
HETATM   17  C4* UNL     1      -5.432  17.143  69.288  1.00  0.00    -0.168 C  
HETATM   18  H2* UNL     1      -6.912  20.644  70.921  1.00  0.00     0.000 HD 
HETATM   19  C3* UNL     1      -5.996  18.135  70.312  1.00  0.00    -0.064 C  
HETATM   20  C2* UNL     1      -5.835  19.502  69.657  1.00  0.00    -0.257 C  
HETATM   21  O3* UNL     1      -5.266  18.097  71.545  1.00  0.00    -0.469 OA 
HETATM   22  H3* UNL     1      -5.616  18.711  72.179  1.00  0.00     0.000 HD 
HETATM   23  O2* UNL     1      -6.834  20.453  69.993  1.00  0.00    -0.145 OA 
BRANCH  17  24
HETATM   24  C5* UNL     1      -6.392  15.982  68.985  1.00  0.00    -0.140 C  
HETATM   25  O5* UNL     1      -7.440  15.947  69.953  1.00  0.00    -0.035 OA 
HETATM   26  H5* UNL     1      -8.034  15.230  69.765  1.00  0.00     0.000 HD 
ENDBRANCH  17  24
ENDBRANCH  14  15
ENDBRANCH   2   3
TORSDOF 3
ENDMDL
MODEL      146
REMARK 921   NORMALIZED FREE ENERGY PREDICTED BY IDOCK:   -3.86 KCAL/MOL
REMARK 922        TOTAL FREE ENERGY PREDICTED BY IDOCK:   -4.76 KCAL/MOL
REMARK 923 INTER-LIGAND FREE ENERGY PREDICTED BY IDOCK:   -4.71 KCAL/MOL
REMARK 924 INTRA-LIGAND FREE ENERGY PREDICTED BY IDOCK:   -0.05 KCAL/MOL
REMARK 927      BINDING AFFINITY PREDICTED BY RF-SCORE:    0.00 PKD
ROOT
HETATM    1  C   UNL     1      -9.470   9.958  64.807  1.00  0.00    -0.291 C  
HETATM    2  O   UNL     1      -9.402   8.871  65.725  1.00  0.00    -0.229 OA 
ENDROOT
BRANCH   2   3
HETATM    3  C   UNL     1      -9.868   9.230  66.974  1.00  0.00    -0.198 A  
HETATM    4  N   UNL     1     -10.755  10.253  67.086  1.00  0.00    -0.257 NA 
HETATM    5  C   UNL     1     -11.243  10.553  68.294  1.00  0.00    -0.291 A  
HETATM    6  N   UNL     1     -12.226  11.521  68.339  1.00  0.00    -0.483 NA 
HETATM    7  N   UNL     1     -10.963   9.933  69.443  1.00  0.00    -0.236 NA 
HETATM    8  H2  UNL     1     -12.991  11.262  67.715  1.00  0.00     0.000 HD 
HETATM    9  C   UNL     1     -10.116   8.903  69.290  1.00  0.00    -0.203 A  
HETATM   10  H1  UNL     1     -12.599  11.750  69.260  1.00  0.00     0.000 HD 
HETATM   11  C   UNL     1      -9.525   8.490  68.106  1.00  0.00    -0.141 A  
HETATM   12  N   UNL     1      -8.731   7.385  68.323  1.00  0.00    -0.123 NA 
HETATM   13  C   UNL     1      -8.872   7.113  69.602  1.00  0.00    -0.141 A  
HETATM   14  N   UNL     1      -9.713   7.999  70.230  1.00  0.00    -0.175 NA 
BRANCH  14  15
HETATM   15  C1* UNL     1     -10.190   7.833  71.586  1.00  0.00    -0.186 C  
HETATM   16  O4* UNL     1      -9.080   7.379  72.389  1.00  0.00    -0.128 OA 
HETATM   17  C4* UNL     1      -9.269   5.978  72.704  1.00  0.00    -0.143 C  
HETATM   18  H2* UNL     1     -13.038   6.192  71.015  1.00  0.00     0.000 HD 
HETATM   19  C3* UNL     1     -10.684   5.577  72.274  1.00  0.00    -0.231 C  
HETATM   20  C2* UNL     1     -11.353   6.887  71.874  1.00  0.00    -0.263 C  
HETATM   21  O3* UNL     1     -11.412   4.967  73.347  1.00  0.00    -0.395 OA 
HETATM   22  H3* UNL     1     -12.289   4.718  73.080  1.00  0.00     0.000 HD 
HETATM   23  O2* UNL     1     -12.315   6.780  70.835  1.00  0.00    -0.381 OA 
BRANCH  17  24
HETATM   24  C5* UNL     1      -8.174   5.148  72.015  1.00  0.00    -0.117 C  
HETATM   25  O5* UNL     1      -8.698   3.882  71.615  1.00  0.00    -0.094 OA 
HETATM   26  H5* UNL     1      -8.021   3.369  71.189  1.00  0.00     0.000 HD 
ENDBRANCH  17  24
ENDBRANCH  14  15
ENDBRANCH   2   3
TORSDOF 3
ENDMDL
MODEL      147
REMARK 921   NORMALIZED FREE ENERGY PREDICTED BY IDOCK:   -3.85 KCAL/MOL
REMARK 922        TOTAL FREE ENERGY PREDICTED BY IDOCK:   -4.75 KCAL/MOL
REMARK 923 INTER-LIGAND FREE ENERGY PREDICTED BY IDOCK:   -4.73 KCAL/MOL
REMARK 924 INTRA-LIGAND FREE ENERGY PREDICTED BY IDOCK:   -0.03 KCAL/MOL
REMARK 927      BINDING AFFINITY PREDICTED BY RF-SCORE:    0.00 PKD
ROOT
HETATM    1  C   UNL     1     -12.676   7.201  71.449  1.00  0.00    -0.391 C  
HETATM    2  O   UNL     1     -11.508   6.453  71.129  1.00  0.00    -0.304 OA 
ENDROOT
BRANCH   2   3
HETATM    3  C   UNL     1     -11.007   6.796  69.889  1.00  0.00    -0.291 A  
HETATM    4  N   UNL     1     -11.237   5.979  68.828  1.00  0.00    -0.266 NA 
HETATM    5  C   UNL     1     -10.797   6.351  67.621  1.00  0.00    -0.339 A  
HETATM    6  N   UNL     1     -11.156   5.546  66.559  1.00  0.00    -0.650 NA 
HETATM    7  N   UNL     1     -10.147   7.480  67.323  1.00  0.00    -0.206 NA 
HETATM    8  H2  UNL     1     -12.170   5.441  66.536  1.00  0.00     0.000 HD 
HETATM    9  C   UNL     1      -9.973   8.280  68.386  1.00  0.00    -0.190 A  
HETATM   10  H1  UNL     1     -10.820   5.830  65.638  1.00  0.00     0.000 HD 
HETATM   11  C   UNL     1     -10.363   8.017  69.690  1.00  0.00    -0.220 A  
HETATM   12  N   UNL     1     -10.042   9.075  70.513  1.00  0.00    -0.200 NA 
HETATM   13  C   UNL     1      -9.505   9.973  69.715  1.00  0.00    -0.207 A  
HETATM   14  N   UNL     1      -9.454   9.542  68.412  1.00  0.00    -0.137 NA 
BRANCH  14  15
HETATM   15  C1* UNL     1      -9.084  10.388  67.298  1.00  0.00    -0.135 C  
HETATM   16  O4* UNL     1      -7.719  10.075  66.942  1.00  0.00    -0.095 OA 
HETATM   17  C4* UNL     1      -6.859  11.155  67.376  1.00  0.00    -0.089 C  
HETATM   18  H2* UNL     1     -10.233  13.327  68.380  1.00  0.00     0.000 HD 
HETATM   19  C3* UNL     1      -7.746  12.322  67.827  1.00  0.00    -0.139 C  
HETATM   20  C2* UNL     1      -9.160  11.907  67.436  1.00  0.00    -0.178 C  
HETATM   21  O3* UNL     1      -7.396  13.542  67.160  1.00  0.00    -0.354 OA 
HETATM   22  H3* UNL     1      -7.945  14.265  67.440  1.00  0.00     0.000 HD 
HETATM   23  O2* UNL     1     -10.186  12.382  68.294  1.00  0.00    -0.218 OA 
BRANCH  17  24
HETATM   24  C5* UNL     1      -5.924  10.649  68.486  1.00  0.00    -0.039 C  
HETATM   25  O5* UNL     1      -5.978  11.526  69.610  1.00  0.00    -0.077 OA 
HETATM   26  H5* UNL     1      -5.400  11.213  70.296  1.00  0.00     0.000 HD 
ENDBRANCH  17  24
ENDBRANCH  14  15
ENDBRANCH   2   3
TORSDOF 3
ENDMDL
MODEL      148
REMARK 921   NORMALIZED FREE ENERGY PREDICTED BY IDOCK:   -3.84 KCAL/MOL
REMARK 922        TOTAL FREE ENERGY PREDICTED BY IDOCK:   -4.74 KCAL/MOL
REMARK 923 INTER-LIGAND FREE ENERGY PREDICTED BY IDOCK:   -4.67 KCAL/MOL
REMARK 924 INTRA-LIGAND FREE ENERGY PREDICTED BY IDOCK:   -0.07 KCAL/MOL
REMARK 927      BINDING AFFINITY PREDICTED BY RF-SCORE:    0.00 PKD
ROOT
HETATM    1  C   UNL     1      -6.694  11.265  67.170  1.00  0.00    -0.113 C  
HETATM    2  O   UNL     1      -6.638  10.170  68.078  1.00  0.00    -0.058 OA 
ENDROOT
BRANCH   2   3
HETATM    3  C   UNL     1      -7.678   9.285  67.875  1.00  0.00    -0.088 A  
HETATM    4  N   UNL     1      -7.870   8.755  66.639  1.00  0.00    -0.099 NA 
HETATM    5  C   UNL     1      -8.844   7.855  66.467  1.00  0.00    -0.152 A  
HETATM    6  N   UNL     1      -8.924   7.261  65.224  1.00  0.00    -0.357 NA 
HETATM    7  N   UNL     1      -9.671   7.388  67.407  1.00  0.00    -0.145 NA 
HETATM    8  H2  UNL     1      -8.025   6.842  64.986  1.00  0.00     0.000 HD 
HETATM    9  C   UNL     1      -9.427   7.903  68.622  1.00  0.00    -0.149 A  
HETATM   10  H1  UNL     1      -9.667   6.575  65.094  1.00  0.00     0.000 HD 
HETATM   11  C   UNL     1      -8.465   8.848  68.941  1.00  0.00    -0.131 A  
HETATM   12  N   UNL     1      -8.487   9.123  70.290  1.00  0.00    -0.170 NA 
HETATM   13  C   UNL     1      -9.416   8.333  70.782  1.00  0.00    -0.161 A  
HETATM   14  N   UNL     1     -10.007   7.562  69.811  1.00  0.00    -0.184 NA 
BRANCH  14  15
HETATM   15  C1* UNL     1     -10.926   6.480  70.089  1.00  0.00    -0.317 C  
HETATM   16  O4* UNL     1     -12.247   7.049  70.221  1.00  0.00    -0.182 OA 
HETATM   17  C4* UNL     1     -12.626   7.039  71.619  1.00  0.00    -0.380 C  
HETATM   18  H2* UNL     1      -9.218   4.844  72.443  1.00  0.00     0.000 HD 
HETATM   19  C3* UNL     1     -11.591   6.212  72.390  1.00  0.00    -0.292 C  
HETATM   20  C2* UNL     1     -10.710   5.592  71.312  1.00  0.00    -0.244 C  
HETATM   21  O3* UNL     1     -12.210   5.179  73.167  1.00  0.00    -0.481 OA 
HETATM   22  H3* UNL     1     -11.568   4.667  73.645  1.00  0.00     0.000 HD 
HETATM   23  O2* UNL     1      -9.353   5.397  71.682  1.00  0.00    -0.144 OA 
BRANCH  17  24
HETATM   24  C5* UNL     1     -12.739   8.485  72.127  1.00  0.00    -0.373 C  
HETATM   25  O5* UNL     1     -14.111   8.849  72.270  1.00  0.00    -0.449 OA 
HETATM   26  H5* UNL     1     -14.181   9.743  72.584  1.00  0.00     0.000 HD 
ENDBRANCH  17  24
ENDBRANCH  14  15
ENDBRANCH   2   3
TORSDOF 3
ENDMDL
MODEL      149
REMARK 921   NORMALIZED FREE ENERGY PREDICTED BY IDOCK:   -3.84 KCAL/MOL
REMARK 922        TOTAL FREE ENERGY PREDICTED BY IDOCK:   -4.73 KCAL/MOL
REMARK 923 INTER-LIGAND FREE ENERGY PREDICTED BY IDOCK:   -4.85 KCAL/MOL
REMARK 924 INTRA-LIGAND FREE ENERGY PREDICTED BY IDOCK:    0.12 KCAL/MOL
REMARK 927      BINDING AFFINITY PREDICTED BY RF-SCORE:    0.00 PKD
ROOT
HETATM    1  C   UNL     1     -12.845  14.172  65.409  1.00  0.00    -0.368 C  
HETATM    2  O   UNL     1     -12.357  13.561  66.599  1.00  0.00    -0.376 OA 
ENDROOT
BRANCH   2   3
HETATM    3  C   UNL     1     -11.622  12.425  66.323  1.00  0.00    -0.393 A  
HETATM    4  N   UNL     1     -11.335  12.114  65.032  1.00  0.00    -0.325 NA 
HETATM    5  C   UNL     1     -10.574  11.044  64.781  1.00  0.00    -0.280 A  
HETATM    6  N   UNL     1     -10.215  10.837  63.465  1.00  0.00    -0.507 NA 
HETATM    7  N   UNL     1     -10.031  10.223  65.685  1.00  0.00    -0.269 NA 
HETATM    8  H2  UNL     1      -9.761  11.674  63.098  1.00  0.00     0.000 HD 
HETATM    9  C   UNL     1     -10.301  10.583  66.949  1.00  0.00    -0.239 A  
HETATM   10  H1  UNL     1      -9.635  10.020  63.273  1.00  0.00     0.000 HD 
HETATM   11  C   UNL     1     -11.082  11.654  67.353  1.00  0.00    -0.281 A  
HETATM   12  N   UNL     1     -11.120  11.733  68.728  1.00  0.00    -0.224 NA 
HETATM   13  C   UNL     1     -10.346  10.754  69.144  1.00  0.00    -0.217 A  
HETATM   14  N   UNL     1      -9.815  10.035  68.101  1.00  0.00    -0.140 NA 
BRANCH  14  15
HETATM   15  C1* UNL     1      -8.792   9.024  68.258  1.00  0.00    -0.134 C  
HETATM   16  O4* UNL     1      -7.510   9.690  68.237  1.00  0.00    -0.077 OA 
HETATM   17  C4* UNL     1      -6.856   9.415  66.975  1.00  0.00    -0.084 C  
HETATM   18  H2* UNL     1      -9.881   6.737  66.087  1.00  0.00     0.000 HD 
HETATM   19  C3* UNL     1      -7.660   8.332  66.245  1.00  0.00    -0.096 C  
HETATM   20  C2* UNL     1      -8.700   7.872  67.261  1.00  0.00    -0.131 C  
HETATM   21  O3* UNL     1      -6.833   7.227  65.861  1.00  0.00    -0.055 OA 
HETATM   22  H3* UNL     1      -7.331   6.556  65.409  1.00  0.00     0.000 HD 
HETATM   23  O2* UNL     1      -9.939   7.455  66.707  1.00  0.00    -0.217 OA 
BRANCH  17  24
HETATM   24  C5* UNL     1      -6.735  10.718  66.169  1.00  0.00    -0.126 C  
HETATM   25  O5* UNL     1      -7.129  10.495  64.815  1.00  0.00    -0.317 OA 
HETATM   26  H5* UNL     1      -7.054  11.301  64.317  1.00  0.00     0.000 HD 
ENDBRANCH  17  24
ENDBRANCH  14  15
ENDBRANCH   2   3
TORSDOF 3
ENDMDL
MODEL      150
REMARK 921   NORMALIZED FREE ENERGY PREDICTED BY IDOCK:   -3.83 KCAL/MOL
REMARK 922        TOTAL FREE ENERGY PREDICTED BY IDOCK:   -4.72 KCAL/MOL
REMARK 923 INTER-LIGAND FREE ENERGY PREDICTED BY IDOCK:   -5.00 KCAL/MOL
REMARK 924 INTRA-LIGAND FREE ENERGY PREDICTED BY IDOCK:    0.28 KCAL/MOL
REMARK 927      BINDING AFFINITY PREDICTED BY RF-SCORE:    0.00 PKD
ROOT
HETATM    1  C   UNL     1      -5.975  17.703  68.937  1.00  0.00    -0.191 C  
HETATM    2  O   UNL     1      -7.305  17.499  69.403  1.00  0.00    -0.116 OA 
ENDROOT
BRANCH   2   3
HETATM    3  C   UNL     1      -7.951  16.514  68.684  1.00  0.00    -0.232 A  
HETATM    4  N   UNL     1      -7.223  15.522  68.108  1.00  0.00    -0.111 NA 
HETATM    5  C   UNL     1      -7.865  14.543  67.463  1.00  0.00    -0.193 A  
HETATM    6  N   UNL     1      -7.090  13.500  66.996  1.00  0.00    -0.370 NA 
HETATM    7  N   UNL     1      -9.188  14.412  67.327  1.00  0.00    -0.201 NA 
HETATM    8  H2  UNL     1      -6.547  13.106  67.765  1.00  0.00     0.000 HD 
HETATM    9  C   UNL     1      -9.876  15.385  67.942  1.00  0.00    -0.219 A  
HETATM   10  H1  UNL     1      -7.580  12.753  66.504  1.00  0.00     0.000 HD 
HETATM   11  C   UNL     1      -9.345  16.464  68.631  1.00  0.00    -0.233 A  
HETATM   12  N   UNL     1     -10.351  17.248  69.151  1.00  0.00    -0.328 NA 
HETATM   13  C   UNL     1     -11.465  16.635  68.817  1.00  0.00    -0.042 A  
HETATM   14  N   UNL     1     -11.229  15.491  68.093  1.00  0.00    -0.330 NA 
BRANCH  14  15
HETATM   15  C1* UNL     1     -12.253  14.528  67.752  1.00  0.00    -0.113 C  
HETATM   16  O4* UNL     1     -12.137  13.420  68.671  1.00  0.00    -0.346 OA 
HETATM   17  C4* UNL     1     -11.569  12.286  67.972  1.00  0.00    -0.349 C  
HETATM   18  H2* UNL     1     -11.880  14.414  64.439  1.00  0.00     0.000 HD 
HETATM   19  C3* UNL     1     -11.534  12.615  66.475  1.00  0.00    -0.353 C  
HETATM   20  C2* UNL     1     -12.298  13.928  66.349  1.00  0.00    -0.426 C  
HETATM   21  O3* UNL     1     -12.179  11.600  65.694  1.00  0.00    -0.134 OA 
HETATM   22  H3* UNL     1     -12.157  11.804  64.767  1.00  0.00     0.000 HD 
HETATM   23  O2* UNL     1     -11.851  14.788  65.312  1.00  0.00    -0.340 OA 
BRANCH  17  24
HETATM   24  C5* UNL     1     -10.180  11.973  68.550  1.00  0.00    -0.212 C  
HETATM   25  O5* UNL     1      -9.335  11.438  67.533  1.00  0.00    -0.161 OA 
HETATM   26  H5* UNL     1      -8.476  11.245  67.891  1.00  0.00     0.000 HD 
ENDBRANCH  17  24
ENDBRANCH  14  15
ENDBRANCH   2   3
TORSDOF 3
ENDMDL
MODEL      151
REMARK 921   NORMALIZED FREE ENERGY PREDICTED BY IDOCK:   -3.82 KCAL/MOL
REMARK 922        TOTAL FREE ENERGY PREDICTED BY IDOCK:   -4.72 KCAL/MOL
REMARK 923 INTER-LIGAND FREE ENERGY PREDICTED BY IDOCK:   -4.86 KCAL/MOL
REMARK 924 INTRA-LIGAND FREE ENERGY PREDICTED BY IDOCK:    0.14 KCAL/MOL
REMARK 927      BINDING AFFINITY PREDICTED BY RF-SCORE:    0.00 PKD
ROOT
HETATM    1  C   UNL     1      -7.229   5.805  69.357  1.00  0.00    -0.066 C  
HETATM    2  O   UNL     1      -7.655   6.421  68.146  1.00  0.00    -0.099 OA 
ENDROOT
BRANCH   2   3
HETATM    3  C   UNL     1      -7.936   7.761  68.327  1.00  0.00    -0.122 A  
HETATM    4  N   UNL     1      -7.476   8.394  69.438  1.00  0.00    -0.087 NA 
HETATM    5  C   UNL     1      -7.705   9.704  69.574  1.00  0.00    -0.109 A  
HETATM    6  N   UNL     1      -7.120  10.323  70.660  1.00  0.00    -0.425 NA 
HETATM    7  N   UNL     1      -8.342  10.496  68.707  1.00  0.00    -0.128 NA 
HETATM    8  H2  UNL     1      -6.115  10.149  70.653  1.00  0.00     0.000 HD 
HETATM    9  C   UNL     1      -8.746   9.846  67.604  1.00  0.00    -0.121 A  
HETATM   10  H1  UNL     1      -7.295  11.322  70.764  1.00  0.00     0.000 HD 
HETATM   11  C   UNL     1      -8.589   8.495  67.338  1.00  0.00    -0.127 A  
HETATM   12  N   UNL     1      -9.106   8.184  66.098  1.00  0.00    -0.184 NA 
HETATM   13  C   UNL     1      -9.529   9.330  65.611  1.00  0.00    -0.256 A  
HETATM   14  N   UNL     1      -9.320  10.372  66.483  1.00  0.00    -0.160 NA 
BRANCH  14  15
HETATM   15  C1* UNL     1      -9.520  11.763  66.138  1.00  0.00    -0.226 C  
HETATM   16  O4* UNL     1      -9.801  12.482  67.358  1.00  0.00    -0.197 OA 
HETATM   17  C4* UNL     1     -11.208  12.826  67.388  1.00  0.00    -0.294 C  
HETATM   18  H2* UNL     1     -11.545  11.436  63.507  1.00  0.00     0.000 HD 
HETATM   19  C3* UNL     1     -11.807  12.513  66.012  1.00  0.00    -0.418 C  
HETATM   20  C2* UNL     1     -10.609  12.153  65.141  1.00  0.00    -0.286 C  
HETATM   21  O3* UNL     1     -12.487  13.647  65.459  1.00  0.00    -0.450 OA 
HETATM   22  H3* UNL     1     -12.858  13.452  64.607  1.00  0.00     0.000 HD 
HETATM   23  O2* UNL     1     -10.868  11.193  64.127  1.00  0.00    -0.370 OA 
BRANCH  17  24
HETATM   24  C5* UNL     1     -11.896  12.062  68.531  1.00  0.00    -0.311 C  
HETATM   25  O5* UNL     1     -10.960  11.794  69.574  1.00  0.00    -0.420 OA 
HETATM   26  H5* UNL     1     -11.386  11.322  70.280  1.00  0.00     0.000 HD 
ENDBRANCH  17  24
ENDBRANCH  14  15
ENDBRANCH   2   3
TORSDOF 3
ENDMDL
MODEL      152
REMARK 921   NORMALIZED FREE ENERGY PREDICTED BY IDOCK:   -3.82 KCAL/MOL
REMARK 922        TOTAL FREE ENERGY PREDICTED BY IDOCK:   -4.72 KCAL/MOL
REMARK 923 INTER-LIGAND FREE ENERGY PREDICTED BY IDOCK:   -4.70 KCAL/MOL
REMARK 924 INTRA-LIGAND FREE ENERGY PREDICTED BY IDOCK:   -0.02 KCAL/MOL
REMARK 927      BINDING AFFINITY PREDICTED BY RF-SCORE:    0.00 PKD
ROOT
HETATM    1  C   UNL     1     -11.577  12.337  68.554  1.00  0.00    -0.310 C  
HETATM    2  O   UNL     1     -12.338  11.134  68.530  1.00  0.00    -0.561 OA 
ENDROOT
BRANCH   2   3
HETATM    3  C   UNL     1     -11.527  10.018  68.532  1.00  0.00     0.045 A  
HETATM    4  N   UNL     1     -11.071   9.523  67.352  1.00  0.00    -0.027 NA 
HETATM    5  C   UNL     1     -10.239   8.477  67.369  1.00  0.00    -0.261 A  
HETATM    6  N   UNL     1      -9.713   8.085  66.155  1.00  0.00    -0.447 NA 
HETATM    7  N   UNL     1      -9.774   7.848  68.452  1.00  0.00    -0.157 NA 
HETATM    8  H2  UNL     1      -9.256   8.880  65.707  1.00  0.00     0.000 HD 
HETATM    9  C   UNL     1     -10.211   8.387  69.600  1.00  0.00    -0.209 A  
HETATM   10  H1  UNL     1      -9.079   7.287  66.168  1.00  0.00     0.000 HD 
HETATM   11  C   UNL     1     -11.082   9.457  69.730  1.00  0.00    -0.172 A  
HETATM   12  N   UNL     1     -11.290   9.752  71.060  1.00  0.00    -0.359 NA 
HETATM   13  C   UNL     1     -10.531   8.903  71.717  1.00  0.00    -0.360 A  
HETATM   14  N   UNL     1      -9.845   8.062  70.875  1.00  0.00    -0.175 NA 
BRANCH  14  15
HETATM   15  C1* UNL     1      -8.805   7.157  71.312  1.00  0.00    -0.129 C  
HETATM   16  O4* UNL     1      -9.325   5.812  71.217  1.00  0.00    -0.146 OA 
HETATM   17  C4* UNL     1      -9.597   5.318  72.551  1.00  0.00    -0.149 C  
HETATM   18  H2* UNL     1      -7.795   8.710  74.087  1.00  0.00     0.000 HD 
HETATM   19  C3* UNL     1      -9.005   6.309  73.559  1.00  0.00    -0.124 C  
HETATM   20  C2* UNL     1      -8.211   7.296  72.711  1.00  0.00    -0.106 C  
HETATM   21  O3* UNL     1      -8.133   5.659  74.493  1.00  0.00    -0.103 OA 
HETATM   22  H3* UNL     1      -7.767   6.274  75.118  1.00  0.00     0.000 HD 
HETATM   23  O2* UNL     1      -8.165   8.623  73.216  1.00  0.00    -0.411 OA 
BRANCH  17  24
HETATM   24  C5* UNL     1     -11.111   5.118  72.723  1.00  0.00    -0.266 C  
HETATM   25  O5* UNL     1     -11.494   5.409  74.066  1.00  0.00    -0.272 OA 
HETATM   26  H5* UNL     1     -12.430   5.286  74.172  1.00  0.00     0.000 HD 
ENDBRANCH  17  24
ENDBRANCH  14  15
ENDBRANCH   2   3
TORSDOF 3
ENDMDL
MODEL      153
REMARK 921   NORMALIZED FREE ENERGY PREDICTED BY IDOCK:   -3.81 KCAL/MOL
REMARK 922        TOTAL FREE ENERGY PREDICTED BY IDOCK:   -4.70 KCAL/MOL
REMARK 923 INTER-LIGAND FREE ENERGY PREDICTED BY IDOCK:   -4.88 KCAL/MOL
REMARK 924 INTRA-LIGAND FREE ENERGY PREDICTED BY IDOCK:    0.18 KCAL/MOL
REMARK 927      BINDING AFFINITY PREDICTED BY RF-SCORE:    0.00 PKD
ROOT
HETATM    1  C   UNL     1      -9.067  11.187  66.872  1.00  0.00    -0.159 C  
HETATM    2  O   UNL     1      -8.759  11.247  68.260  1.00  0.00    -0.144 OA 
ENDROOT
BRANCH   2   3
HETATM    3  C   UNL     1      -9.606  10.451  69.005  1.00  0.00    -0.204 A  
HETATM    4  N   UNL     1     -10.730  10.993  69.541  1.00  0.00    -0.219 NA 
HETATM    5  C   UNL     1     -11.572  10.200  70.212  1.00  0.00    -0.302 A  
HETATM    6  N   UNL     1     -12.754  10.772  70.637  1.00  0.00    -0.343 NA 
HETATM    7  N   UNL     1     -11.440   8.885  70.410  1.00  0.00    -0.210 NA 
HETATM    8  H2  UNL     1     -13.237  11.191  69.841  1.00  0.00     0.000 HD 
HETATM    9  C   UNL     1     -10.340   8.376  69.833  1.00  0.00    -0.210 A  
HETATM   10  H1  UNL     1     -13.396  10.167  71.148  1.00  0.00     0.000 HD 
HETATM   11  C   UNL     1      -9.379   9.080  69.124  1.00  0.00    -0.148 A  
HETATM   12  N   UNL     1      -8.404   8.227  68.656  1.00  0.00    -0.124 NA 
HETATM   13  C   UNL     1      -8.789   7.029  69.040  1.00  0.00    -0.134 A  
HETATM   14  N   UNL     1      -9.966   7.066  69.747  1.00  0.00    -0.172 NA 
BRANCH  14  15
HETATM   15  C1* UNL     1     -10.712   5.888  70.132  1.00  0.00    -0.318 C  
HETATM   16  O4* UNL     1     -11.638   6.274  71.171  1.00  0.00    -0.318 OA 
HETATM   17  C4* UNL     1     -11.167   5.755  72.438  1.00  0.00    -0.290 C  
HETATM   18  H2* UNL     1      -8.228   3.677  70.400  1.00  0.00     0.000 HD 
HETATM   19  C3* UNL     1     -10.005   4.795  72.160  1.00  0.00    -0.179 C  
HETATM   20  C2* UNL     1      -9.974   4.652  70.643  1.00  0.00    -0.223 C  
HETATM   21  O3* UNL     1     -10.220   3.513  72.764  1.00  0.00    -0.156 OA 
HETATM   22  H3* UNL     1      -9.499   2.918  72.592  1.00  0.00     0.000 HD 
HETATM   23  O2* UNL     1      -8.686   4.446  70.082  1.00  0.00    -0.072 OA 
BRANCH  17  24
HETATM   24  C5* UNL     1     -10.773   6.925  73.354  1.00  0.00    -0.324 C  
HETATM   25  O5* UNL     1     -11.782   7.933  73.322  1.00  0.00    -0.632 OA 
HETATM   26  H5* UNL     1     -11.539   8.656  73.889  1.00  0.00     0.000 HD 
ENDBRANCH  17  24
ENDBRANCH  14  15
ENDBRANCH   2   3
TORSDOF 3
ENDMDL
MODEL      154
REMARK 921   NORMALIZED FREE ENERGY PREDICTED BY IDOCK:   -3.80 KCAL/MOL
REMARK 922        TOTAL FREE ENERGY PREDICTED BY IDOCK:   -4.70 KCAL/MOL
REMARK 923 INTER-LIGAND FREE ENERGY PREDICTED BY IDOCK:   -5.02 KCAL/MOL
REMARK 924 INTRA-LIGAND FREE ENERGY PREDICTED BY IDOCK:    0.32 KCAL/MOL
REMARK 927      BINDING AFFINITY PREDICTED BY RF-SCORE:    0.00 PKD
ROOT
HETATM    1  C   UNL     1     -12.375   7.505  72.055  1.00  0.00    -0.271 C  
HETATM    2  O   UNL     1     -12.041   8.874  72.257  1.00  0.00    -0.358 OA 
ENDROOT
BRANCH   2   3
HETATM    3  C   UNL     1     -11.034   9.284  71.406  1.00  0.00    -0.359 A  
HETATM    4  N   UNL     1      -9.848   8.622  71.410  1.00  0.00    -0.230 NA 
HETATM    5  C   UNL     1      -8.901   8.992  70.541  1.00  0.00    -0.208 A  
HETATM    6  N   UNL     1      -7.760   8.216  70.504  1.00  0.00    -0.082 NA 
HETATM    7  N   UNL     1      -8.994   9.960  69.625  1.00  0.00    -0.205 NA 
HETATM    8  H2  UNL     1      -8.013   7.241  70.342  1.00  0.00     0.000 HD 
HETATM    9  C   UNL     1     -10.193  10.564  69.622  1.00  0.00    -0.168 A  
HETATM   10  H1  UNL     1      -7.038   8.498  69.841  1.00  0.00     0.000 HD 
HETATM   11  C   UNL     1     -11.255  10.295  70.471  1.00  0.00    -0.330 A  
HETATM   12  N   UNL     1     -12.334  11.095  70.162  1.00  0.00    -0.305 NA 
HETATM   13  C   UNL     1     -11.944  11.803  69.125  1.00  0.00    -0.293 A  
HETATM   14  N   UNL     1     -10.656  11.508  68.751  1.00  0.00    -0.206 NA 
BRANCH  14  15
HETATM   15  C1* UNL     1     -10.036  11.999  67.539  1.00  0.00    -0.192 C  
HETATM   16  O4* UNL     1     -10.418  11.117  66.462  1.00  0.00    -0.238 OA 
HETATM   17  C4* UNL     1      -9.280  10.301  66.095  1.00  0.00    -0.158 C  
HETATM   18  H2* UNL     1      -6.940  12.565  68.646  1.00  0.00     0.000 HD 
HETATM   19  C3* UNL     1      -8.044  10.849  66.819  1.00  0.00    -0.142 C  
HETATM   20  C2* UNL     1      -8.518  12.146  67.465  1.00  0.00    -0.169 C  
HETATM   21  O3* UNL     1      -6.973  11.123  65.907  1.00  0.00    -0.350 OA 
HETATM   22  H3* UNL     1      -6.208  11.462  66.356  1.00  0.00     0.000 HD 
HETATM   23  O2* UNL     1      -7.885  12.474  68.693  1.00  0.00    -0.120 OA 
BRANCH  17  24
HETATM   24  C5* UNL     1      -9.573   8.831  66.438  1.00  0.00    -0.249 C  
HETATM   25  O5* UNL     1     -10.766   8.739  67.216  1.00  0.00    -0.383 OA 
HETATM   26  H5* UNL     1     -10.947   7.831  67.428  1.00  0.00     0.000 HD 
ENDBRANCH  17  24
ENDBRANCH  14  15
ENDBRANCH   2   3
TORSDOF 3
ENDMDL
MODEL      155
REMARK 921   NORMALIZED FREE ENERGY PREDICTED BY IDOCK:   -3.79 KCAL/MOL
REMARK 922        TOTAL FREE ENERGY PREDICTED BY IDOCK:   -4.68 KCAL/MOL
REMARK 923 INTER-LIGAND FREE ENERGY PREDICTED BY IDOCK:   -5.36 KCAL/MOL
REMARK 924 INTRA-LIGAND FREE ENERGY PREDICTED BY IDOCK:    0.68 KCAL/MOL
REMARK 927      BINDING AFFINITY PREDICTED BY RF-SCORE:    0.00 PKD
ROOT
HETATM    1  C   UNL     1      -7.197   7.906  69.137  1.00  0.00    -0.081 C  
HETATM    2  O   UNL     1      -8.385   7.905  68.352  1.00  0.00    -0.123 OA 
ENDROOT
BRANCH   2   3
HETATM    3  C   UNL     1      -8.571   9.112  67.708  1.00  0.00    -0.121 A  
HETATM    4  N   UNL     1      -7.627   9.555  66.837  1.00  0.00    -0.094 NA 
HETATM    5  C   UNL     1      -7.845  10.697  66.176  1.00  0.00    -0.152 A  
HETATM    6  N   UNL     1      -6.912  11.044  65.220  1.00  0.00    -0.341 NA 
HETATM    7  N   UNL     1      -8.929  11.473  66.263  1.00  0.00    -0.197 NA 
HETATM    8  H2  UNL     1      -6.802  10.279  64.555  1.00  0.00     0.000 HD 
HETATM    9  C   UNL     1      -9.857  10.984  67.100  1.00  0.00    -0.184 A  
HETATM   10  H1  UNL     1      -7.079  11.915  64.716  1.00  0.00     0.000 HD 
HETATM   11  C   UNL     1      -9.760   9.827  67.857  1.00  0.00    -0.144 A  
HETATM   12  N   UNL     1     -10.913   9.626  68.583  1.00  0.00    -0.160 NA 
HETATM   13  C   UNL     1     -11.705  10.619  68.241  1.00  0.00    -0.057 A  
HETATM   14  N   UNL     1     -11.114  11.464  67.334  1.00  0.00    -0.272 NA 
BRANCH  14  15
HETATM   15  C1* UNL     1     -11.815  12.530  66.651  1.00  0.00    -0.352 C  
HETATM   16  O4* UNL     1     -12.064  12.094  65.296  1.00  0.00    -0.435 OA 
HETATM   17  C4* UNL     1     -11.176  12.807  64.401  1.00  0.00    -0.347 C  
HETATM   18  H2* UNL     1      -9.973  15.147  67.593  1.00  0.00     0.000 HD 
HETATM   19  C3* UNL     1     -10.485  13.919  65.198  1.00  0.00    -0.393 C  
HETATM   20  C2* UNL     1     -11.183  13.916  66.553  1.00  0.00    -0.321 C  
HETATM   21  O3* UNL     1     -10.645  15.198  64.571  1.00  0.00    -0.573 OA 
HETATM   22  H3* UNL     1     -10.216  15.888  65.065  1.00  0.00     0.000 HD 
HETATM   23  O2* UNL     1     -10.365  14.284  67.654  1.00  0.00    -0.245 OA 
BRANCH  17  24
HETATM   24  C5* UNL     1     -10.185  11.816  63.770  1.00  0.00    -0.399 C  
HETATM   25  O5* UNL     1     -10.770  10.517  63.697  1.00  0.00    -0.366 OA 
HETATM   26  H5* UNL     1     -10.157   9.905  63.307  1.00  0.00     0.000 HD 
ENDBRANCH  17  24
ENDBRANCH  14  15
ENDBRANCH   2   3
TORSDOF 3
ENDMDL
MODEL      156
REMARK 921   NORMALIZED FREE ENERGY PREDICTED BY IDOCK:   -3.78 KCAL/MOL
REMARK 922        TOTAL FREE ENERGY PREDICTED BY IDOCK:   -4.67 KCAL/MOL
REMARK 923 INTER-LIGAND FREE ENERGY PREDICTED BY IDOCK:   -5.56 KCAL/MOL
REMARK 924 INTRA-LIGAND FREE ENERGY PREDICTED BY IDOCK:    0.88 KCAL/MOL
REMARK 927      BINDING AFFINITY PREDICTED BY RF-SCORE:    0.00 PKD
ROOT
HETATM    1  C   UNL     1     -12.298  12.907  63.633  1.00  0.00    -0.434 C  
HETATM    2  O   UNL     1     -12.627  14.222  64.070  1.00  0.00    -0.724 OA 
ENDROOT
BRANCH   2   3
HETATM    3  C   UNL     1     -11.752  14.671  65.038  1.00  0.00    -0.385 A  
HETATM    4  N   UNL     1     -10.993  15.771  64.792  1.00  0.00    -0.488 NA 
HETATM    5  C   UNL     1     -10.191  16.230  65.759  1.00  0.00    -0.367 A  
HETATM    6  N   UNL     1      -9.529  17.414  65.501  1.00  0.00    -0.215 NA 
HETATM    7  N   UNL     1     -10.056  15.726  66.988  1.00  0.00    -0.255 NA 
HETATM    8  H2  UNL     1     -10.204  18.134  65.243  1.00  0.00     0.000 HD 
HETATM    9  C   UNL     1     -10.850  14.666  67.210  1.00  0.00    -0.305 A  
HETATM   10  H1  UNL     1      -8.918  17.764  66.238  1.00  0.00     0.000 HD 
HETATM   11  C   UNL     1     -11.714  14.078  66.301  1.00  0.00    -0.387 A  
HETATM   12  N   UNL     1     -12.386  13.025  66.884  1.00  0.00    -0.334 NA 
HETATM   13  C   UNL     1     -11.964  13.004  68.129  1.00  0.00    -0.280 A  
HETATM   14  N   UNL     1     -11.040  13.989  68.380  1.00  0.00    -0.243 NA 
BRANCH  14  15
HETATM   15  C1* UNL     1     -10.547  14.314  69.701  1.00  0.00     0.064 C  
HETATM   16  O4* UNL     1     -11.145  13.386  70.633  1.00  0.00     0.706 OA 
HETATM   17  C4* UNL     1     -12.154  14.080  71.406  1.00  0.00    -0.168 C  
HETATM   18  H2* UNL     1     -10.922  17.629  69.675  1.00  0.00     0.000 HD 
HETATM   19  C3* UNL     1     -12.035  15.580  71.113  1.00  0.00    -0.382 C  
HETATM   20  C2* UNL     1     -10.768  15.711  70.275  1.00  0.00    -0.338 C  
HETATM   21  O3* UNL     1     -11.903  16.347  72.317  1.00  0.00    -0.534 OA 
HETATM   22  H3* UNL     1     -11.830  17.276  72.135  1.00  0.00     0.000 HD 
HETATM   23  O2* UNL     1     -10.785  16.759  69.318  1.00  0.00    -0.334 OA 
BRANCH  17  24
HETATM   24  C5* UNL     1     -13.540  13.510  71.065  1.00  0.00     0.212 C  
HETATM   25  O5* UNL     1     -14.116  12.898  72.218  1.00  0.00    -0.366 OA 
HETATM   26  H5* UNL     1     -14.973  12.546  72.007  1.00  0.00     0.000 HD 
ENDBRANCH  17  24
ENDBRANCH  14  15
ENDBRANCH   2   3
TORSDOF 3
ENDMDL
MODEL      157
REMARK 921   NORMALIZED FREE ENERGY PREDICTED BY IDOCK:   -3.76 KCAL/MOL
REMARK 922        TOTAL FREE ENERGY PREDICTED BY IDOCK:   -4.65 KCAL/MOL
REMARK 923 INTER-LIGAND FREE ENERGY PREDICTED BY IDOCK:   -5.07 KCAL/MOL
REMARK 924 INTRA-LIGAND FREE ENERGY PREDICTED BY IDOCK:    0.42 KCAL/MOL
REMARK 927      BINDING AFFINITY PREDICTED BY RF-SCORE:    0.00 PKD
ROOT
HETATM    1  C   UNL     1      -8.195   5.671  65.265  1.00  0.00    -0.134 C  
HETATM    2  O   UNL     1      -8.163   7.008  64.778  1.00  0.00    -0.121 OA 
ENDROOT
BRANCH   2   3
HETATM    3  C   UNL     1      -8.319   7.926  65.797  1.00  0.00    -0.136 A  
HETATM    4  N   UNL     1      -7.782   7.665  67.017  1.00  0.00    -0.106 NA 
HETATM    5  C   UNL     1      -7.890   8.586  67.979  1.00  0.00    -0.103 A  
HETATM    6  N   UNL     1      -7.229   8.324  69.163  1.00  0.00    -0.070 NA 
HETATM    7  N   UNL     1      -8.471   9.785  67.873  1.00  0.00    -0.124 NA 
HETATM    8  H2  UNL     1      -6.244   8.140  68.972  1.00  0.00     0.000 HD 
HETATM    9  C   UNL     1      -8.953  10.026  66.644  1.00  0.00    -0.139 A  
HETATM   10  H1  UNL     1      -7.311   9.027  69.897  1.00  0.00     0.000 HD 
HETATM   11  C   UNL     1      -8.924   9.161  65.562  1.00  0.00    -0.205 A  
HETATM   12  N   UNL     1      -9.491   9.753  64.455  1.00  0.00    -0.238 NA 
HETATM   13  C   UNL     1      -9.820  10.964  64.850  1.00  0.00    -0.284 A  
HETATM   14  N   UNL     1      -9.501  11.182  66.168  1.00  0.00    -0.197 NA 
BRANCH  14  15
HETATM   15  C1* UNL     1      -9.582  12.475  66.813  1.00  0.00    -0.231 C  
HETATM   16  O4* UNL     1      -9.441  12.265  68.235  1.00  0.00    -0.210 OA 
HETATM   17  C4* UNL     1     -10.730  12.449  68.869  1.00  0.00    -0.164 C  
HETATM   18  H2* UNL     1     -12.232  13.756  65.243  1.00  0.00     0.000 HD 
HETATM   19  C3* UNL     1     -11.696  13.029  67.829  1.00  0.00    -0.359 C  
HETATM   20  C2* UNL     1     -10.820  13.346  66.622  1.00  0.00    -0.282 C  
HETATM   21  O3* UNL     1     -12.325  14.227  68.301  1.00  0.00    -0.592 OA 
HETATM   22  H3* UNL     1     -12.924  14.586  67.657  1.00  0.00     0.000 HD 
HETATM   23  O2* UNL     1     -11.461  13.213  65.362  1.00  0.00    -0.295 OA 
BRANCH  17  24
HETATM   24  C5* UNL     1     -11.208  11.108  69.449  1.00  0.00    -0.270 C  
HETATM   25  O5* UNL     1     -12.351  10.644  68.733  1.00  0.00    -0.814 OA 
HETATM   26  H5* UNL     1     -12.647   9.815  69.092  1.00  0.00     0.000 HD 
ENDBRANCH  17  24
ENDBRANCH  14  15
ENDBRANCH   2   3
TORSDOF 3
ENDMDL
MODEL      158
REMARK 921   NORMALIZED FREE ENERGY PREDICTED BY IDOCK:   -3.75 KCAL/MOL
REMARK 922        TOTAL FREE ENERGY PREDICTED BY IDOCK:   -4.63 KCAL/MOL
REMARK 923 INTER-LIGAND FREE ENERGY PREDICTED BY IDOCK:   -4.64 KCAL/MOL
REMARK 924 INTRA-LIGAND FREE ENERGY PREDICTED BY IDOCK:    0.01 KCAL/MOL
REMARK 927      BINDING AFFINITY PREDICTED BY RF-SCORE:    0.00 PKD
ROOT
HETATM    1  C   UNL     1     -10.558   6.582  67.879  1.00  0.00    -0.252 C  
HETATM    2  O   UNL     1     -10.523   7.916  68.377  1.00  0.00    -0.205 OA 
ENDROOT
BRANCH   2   3
HETATM    3  C   UNL     1     -10.035   8.799  67.436  1.00  0.00    -0.208 A  
HETATM    4  N   UNL     1      -9.387   8.317  66.343  1.00  0.00    -0.200 NA 
HETATM    5  C   UNL     1      -8.969   9.178  65.409  1.00  0.00    -0.207 A  
HETATM    6  N   UNL     1      -8.421   8.632  64.267  1.00  0.00    -0.330 NA 
HETATM    7  N   UNL     1      -9.135  10.504  65.418  1.00  0.00    -0.177 NA 
HETATM    8  H2  UNL     1      -9.078   7.971  63.853  1.00  0.00     0.000 HD 
HETATM    9  C   UNL     1      -9.814  10.940  66.490  1.00  0.00    -0.204 A  
HETATM   10  H1  UNL     1      -8.103   9.289  63.554  1.00  0.00     0.000 HD 
HETATM   11  C   UNL     1     -10.291  10.167  67.536  1.00  0.00    -0.230 A  
HETATM   12  N   UNL     1     -10.961  10.950  68.450  1.00  0.00    -0.217 NA 
HETATM   13  C   UNL     1     -10.923  12.165  67.947  1.00  0.00    -0.229 A  
HETATM   14  N   UNL     1     -10.249  12.208  66.750  1.00  0.00    -0.202 NA 
BRANCH  14  15
HETATM   15  C1* UNL     1     -10.210  13.371  65.890  1.00  0.00    -0.299 C  
HETATM   16  O4* UNL     1      -8.892  13.952  65.997  1.00  0.00     0.214 OA 
HETATM   17  C4* UNL     1      -8.977  15.173  66.771  1.00  0.00    -0.264 C  
HETATM   18  H2* UNL     1     -13.098  14.819  66.720  1.00  0.00     0.000 HD 
HETATM   19  C3* UNL     1     -10.459  15.508  66.974  1.00  0.00    -0.304 C  
HETATM   20  C2* UNL     1     -11.206  14.508  66.099  1.00  0.00    -0.339 C  
HETATM   21  O3* UNL     1     -10.763  16.844  66.552  1.00  0.00    -0.222 OA 
HETATM   22  H3* UNL     1     -11.681  17.052  66.679  1.00  0.00     0.000 HD 
HETATM   23  O2* UNL     1     -12.478  14.111  66.589  1.00  0.00    -0.426 OA 
BRANCH  17  24
HETATM   24  C5* UNL     1      -8.217  14.992  68.095  1.00  0.00    -0.140 C  
HETATM   25  O5* UNL     1      -8.076  16.249  68.755  1.00  0.00    -0.200 OA 
HETATM   26  H5* UNL     1      -7.606  16.137  69.573  1.00  0.00     0.000 HD 
ENDBRANCH  17  24
ENDBRANCH  14  15
ENDBRANCH   2   3
TORSDOF 3
ENDMDL
MODEL      159
REMARK 921   NORMALIZED FREE ENERGY PREDICTED BY IDOCK:   -3.73 KCAL/MOL
REMARK 922        TOTAL FREE ENERGY PREDICTED BY IDOCK:   -4.61 KCAL/MOL
REMARK 923 INTER-LIGAND FREE ENERGY PREDICTED BY IDOCK:   -4.57 KCAL/MOL
REMARK 924 INTRA-LIGAND FREE ENERGY PREDICTED BY IDOCK:   -0.04 KCAL/MOL
REMARK 927      BINDING AFFINITY PREDICTED BY RF-SCORE:    0.00 PKD
ROOT
HETATM    1  C   UNL     1      -8.007   6.589  64.268  1.00  0.00    -0.095 C  
HETATM    2  O   UNL     1      -8.192   6.353  65.659  1.00  0.00    -0.127 OA 
ENDROOT
BRANCH   2   3
HETATM    3  C   UNL     1      -8.201   7.532  66.379  1.00  0.00    -0.122 A  
HETATM    4  N   UNL     1      -7.723   8.666  65.805  1.00  0.00    -0.089 NA 
HETATM    5  C   UNL     1      -7.790   9.813  66.489  1.00  0.00    -0.109 A  
HETATM    6  N   UNL     1      -7.399  10.955  65.820  1.00  0.00    -0.338 NA 
HETATM    7  N   UNL     1      -8.305   9.982  67.710  1.00  0.00    -0.114 NA 
HETATM    8  H2  UNL     1      -7.929  11.042  64.953  1.00  0.00     0.000 HD 
HETATM    9  C   UNL     1      -8.804   8.850  68.230  1.00  0.00    -0.134 A  
HETATM   10  H1  UNL     1      -7.451  11.830  66.343  1.00  0.00     0.000 HD 
HETATM   11  C   UNL     1      -8.790   7.596  67.641  1.00  0.00    -0.125 A  
HETATM   12  N   UNL     1      -9.413   6.674  68.455  1.00  0.00    -0.126 NA 
HETATM   13  C   UNL     1      -9.828   7.365  69.493  1.00  0.00    -0.165 A  
HETATM   14  N   UNL     1      -9.495   8.694  69.397  1.00  0.00    -0.160 NA 
BRANCH  14  15
HETATM   15  C1* UNL     1      -9.980   9.714  70.302  1.00  0.00    -0.270 C  
HETATM   16  O4* UNL     1     -10.062   9.128  71.620  1.00  0.00    -0.327 OA 
HETATM   17  C4* UNL     1     -11.455   8.907  71.951  1.00  0.00    -0.372 C  
HETATM   18  H2* UNL     1     -12.509  10.943  68.508  1.00  0.00     0.000 HD 
HETATM   19  C3* UNL     1     -12.315   9.597  70.886  1.00  0.00    -0.263 C  
HETATM   20  C2* UNL     1     -11.324  10.388  70.040  1.00  0.00    -0.313 C  
HETATM   21  O3* UNL     1     -13.272  10.488  71.474  1.00  0.00    -0.387 OA 
HETATM   22  H3* UNL     1     -13.805  10.915  70.814  1.00  0.00     0.000 HD 
HETATM   23  O2* UNL     1     -11.673  10.523  68.671  1.00  0.00    -0.277 OA 
BRANCH  17  24
HETATM   24  C5* UNL     1     -11.721   7.397  72.051  1.00  0.00    -0.289 C  
HETATM   25  O5* UNL     1     -13.054   7.105  71.633  1.00  0.00    -0.372 OA 
HETATM   26  H5* UNL     1     -13.219   6.172  71.695  1.00  0.00     0.000 HD 
ENDBRANCH  17  24
ENDBRANCH  14  15
ENDBRANCH   2   3
TORSDOF 3
ENDMDL
MODEL      160
REMARK 921   NORMALIZED FREE ENERGY PREDICTED BY IDOCK:   -3.72 KCAL/MOL
REMARK 922        TOTAL FREE ENERGY PREDICTED BY IDOCK:   -4.60 KCAL/MOL
REMARK 923 INTER-LIGAND FREE ENERGY PREDICTED BY IDOCK:   -4.74 KCAL/MOL
REMARK 924 INTRA-LIGAND FREE ENERGY PREDICTED BY IDOCK:    0.14 KCAL/MOL
REMARK 927      BINDING AFFINITY PREDICTED BY RF-SCORE:    0.00 PKD
ROOT
HETATM    1  C   UNL     1     -10.351  12.737  66.015  1.00  0.00    -0.276 C  
HETATM    2  O   UNL     1     -11.459  11.871  66.235  1.00  0.00    -0.350 OA 
ENDROOT
BRANCH   2   3
HETATM    3  C   UNL     1     -11.286  11.101  67.368  1.00  0.00    -0.255 A  
HETATM    4  N   UNL     1     -11.800  11.530  68.550  1.00  0.00    -0.473 NA 
HETATM    5  C   UNL     1     -11.677  10.749  69.628  1.00  0.00    -0.323 A  
HETATM    6  N   UNL     1     -12.314  11.175  70.776  1.00  0.00    -0.382 NA 
HETATM    7  N   UNL     1     -11.101   9.544  69.677  1.00  0.00    -0.211 NA 
HETATM    8  H2  UNL     1     -13.303  11.335  70.579  1.00  0.00     0.000 HD 
HETATM    9  C   UNL     1     -10.642   9.134  68.484  1.00  0.00    -0.169 A  
HETATM   10  H1  UNL     1     -12.220  10.578  71.598  1.00  0.00     0.000 HD 
HETATM   11  C   UNL     1     -10.689   9.843  67.294  1.00  0.00    -0.238 A  
HETATM   12  N   UNL     1     -10.144   9.101  66.269  1.00  0.00    -0.280 NA 
HETATM   13  C   UNL     1      -9.811   7.954  66.821  1.00  0.00    -0.248 A  
HETATM   14  N   UNL     1     -10.105   7.921  68.162  1.00  0.00    -0.184 NA 
BRANCH  14  15
HETATM   15  C1* UNL     1     -10.016   6.729  68.977  1.00  0.00    -0.155 C  
HETATM   16  O4* UNL     1     -10.046   7.140  70.361  1.00  0.00    -0.190 OA 
HETATM   17  C4* UNL     1      -8.720   6.996  70.924  1.00  0.00    -0.143 C  
HETATM   18  H2* UNL     1      -7.526   5.138  67.427  1.00  0.00     0.000 HD 
HETATM   19  C3* UNL     1      -7.850   6.239  69.914  1.00  0.00    -0.110 C  
HETATM   20  C2* UNL     1      -8.820   5.791  68.827  1.00  0.00    -0.110 C  
HETATM   21  O3* UNL     1      -7.223   5.094  70.507  1.00  0.00    -0.057 OA 
HETATM   22  H3* UNL     1      -6.684   4.625  69.882  1.00  0.00     0.000 HD 
HETATM   23  O2* UNL     1      -8.270   5.722  67.520  1.00  0.00    -0.102 OA 
BRANCH  17  24
HETATM   24  C5* UNL     1      -8.161   8.384  71.275  1.00  0.00    -0.127 C  
HETATM   25  O5* UNL     1      -9.191   9.200  71.832  1.00  0.00    -0.354 OA 
HETATM   26  H5* UNL     1      -8.845  10.058  72.049  1.00  0.00     0.000 HD 
ENDBRANCH  17  24
ENDBRANCH  14  15
ENDBRANCH   2   3
TORSDOF 3
ENDMDL
MODEL      161
REMARK 921   NORMALIZED FREE ENERGY PREDICTED BY IDOCK:   -3.72 KCAL/MOL
REMARK 922        TOTAL FREE ENERGY PREDICTED BY IDOCK:   -4.59 KCAL/MOL
REMARK 923 INTER-LIGAND FREE ENERGY PREDICTED BY IDOCK:   -4.80 KCAL/MOL
REMARK 924 INTRA-LIGAND FREE ENERGY PREDICTED BY IDOCK:    0.21 KCAL/MOL
REMARK 927      BINDING AFFINITY PREDICTED BY RF-SCORE:    0.00 PKD
ROOT
HETATM    1  C   UNL     1      -8.357  10.355  62.631  1.00  0.00    -0.175 C  
HETATM    2  O   UNL     1      -9.651  10.944  62.703  1.00  0.00    -0.289 OA 
ENDROOT
BRANCH   2   3
HETATM    3  C   UNL     1     -10.163  10.895  63.984  1.00  0.00    -0.357 A  
HETATM    4  N   UNL     1     -10.046   9.749  64.705  1.00  0.00     0.039 NA 
HETATM    5  C   UNL     1     -10.493   9.732  65.965  1.00  0.00    -0.006 A  
HETATM    6  N   UNL     1     -10.247   8.584  66.691  1.00  0.00    -0.299 NA 
HETATM    7  N   UNL     1     -11.047  10.751  66.628  1.00  0.00    -0.141 NA 
HETATM    8  H2  UNL     1      -9.248   8.378  66.679  1.00  0.00     0.000 HD 
HETATM    9  C   UNL     1     -11.109  11.877  65.900  1.00  0.00    -0.316 A  
HETATM   10  H1  UNL     1     -10.588   8.571  67.653  1.00  0.00     0.000 HD 
HETATM   11  C   UNL     1     -10.699  12.034  64.586  1.00  0.00    -0.309 A  
HETATM   12  N   UNL     1     -10.892  13.334  64.171  1.00  0.00    -0.388 NA 
HETATM   13  C   UNL     1     -11.372  13.956  65.226  1.00  0.00    -0.314 A  
HETATM   14  N   UNL     1     -11.510  13.118  66.304  1.00  0.00    -0.320 NA 
BRANCH  14  15
HETATM   15  C1* UNL     1     -11.840  13.569  67.639  1.00  0.00    -0.363 C  
HETATM   16  O4* UNL     1     -12.378  14.905  67.530  1.00  0.00    -0.019 OA 
HETATM   17  C4* UNL     1     -11.394  15.850  68.015  1.00  0.00    -0.284 C  
HETATM   18  H2* UNL     1      -9.075  12.664  69.271  1.00  0.00     0.000 HD 
HETATM   19  C3* UNL     1     -10.260  15.062  68.680  1.00  0.00    -0.231 C  
HETATM   20  C2* UNL     1     -10.758  13.622  68.715  1.00  0.00    -0.244 C  
HETATM   21  O3* UNL     1     -10.007  15.521  70.014  1.00  0.00    -0.334 OA 
HETATM   22  H3* UNL     1      -9.304  15.033  70.426  1.00  0.00     0.000 HD 
HETATM   23  O2* UNL     1      -9.747  12.631  68.601  1.00  0.00    -0.160 OA 
BRANCH  17  24
HETATM   24  C5* UNL     1     -10.911  16.727  66.849  1.00  0.00    -0.033 C  
HETATM   25  O5* UNL     1      -9.702  17.396  67.206  1.00  0.00    -0.256 OA 
HETATM   26  H5* UNL     1      -9.403  17.937  66.485  1.00  0.00     0.000 HD 
ENDBRANCH  17  24
ENDBRANCH  14  15
ENDBRANCH   2   3
TORSDOF 3
ENDMDL
MODEL      162
REMARK 921   NORMALIZED FREE ENERGY PREDICTED BY IDOCK:   -3.69 KCAL/MOL
REMARK 922        TOTAL FREE ENERGY PREDICTED BY IDOCK:   -4.56 KCAL/MOL
REMARK 923 INTER-LIGAND FREE ENERGY PREDICTED BY IDOCK:   -4.95 KCAL/MOL
REMARK 924 INTRA-LIGAND FREE ENERGY PREDICTED BY IDOCK:    0.38 KCAL/MOL
REMARK 927      BINDING AFFINITY PREDICTED BY RF-SCORE:    0.00 PKD
ROOT
HETATM    1  C   UNL     1     -11.724  13.505  65.132  1.00  0.00    -0.322 C  
HETATM    2  O   UNL     1     -12.405  12.401  65.719  1.00  0.00    -0.644 OA 
ENDROOT
BRANCH   2   3
HETATM    3  C   UNL     1     -11.627  11.767  66.666  1.00  0.00    -0.197 A  
HETATM    4  N   UNL     1     -12.005  11.802  67.971  1.00  0.00    -0.583 NA 
HETATM    5  C   UNL     1     -11.276  11.136  68.872  1.00  0.00    -0.256 A  
HETATM    6  N   UNL     1     -11.765  11.106  70.162  1.00  0.00    -0.331 NA 
HETATM    7  N   UNL     1     -10.187  10.401  68.628  1.00  0.00    -0.172 NA 
HETATM    8  H2  UNL     1     -12.719  10.744  70.158  1.00  0.00     0.000 HD 
HETATM    9  C   UNL     1      -9.866  10.355  67.326  1.00  0.00    -0.178 A  
HETATM   10  H1  UNL     1     -11.208  10.598  70.849  1.00  0.00     0.000 HD 
HETATM   11  C   UNL     1     -10.521  11.004  66.291  1.00  0.00    -0.254 A  
HETATM   12  N   UNL     1      -9.927  10.710  65.084  1.00  0.00    -0.281 NA 
HETATM   13  C   UNL     1      -8.958   9.870  65.379  1.00  0.00    -0.184 A  
HETATM   14  N   UNL     1      -8.890   9.613  66.727  1.00  0.00    -0.134 NA 
BRANCH  14  15
HETATM   15  C1* UNL     1      -8.045   8.594  67.310  1.00  0.00    -0.101 C  
HETATM   16  O4* UNL     1      -8.791   7.357  67.319  1.00  0.00    -0.122 OA 
HETATM   17  C4* UNL     1      -9.198   7.063  68.678  1.00  0.00    -0.131 C  
HETATM   18  H2* UNL     1      -6.884  10.238  69.970  1.00  0.00     0.000 HD 
HETATM   19  C3* UNL     1      -8.479   8.040  69.615  1.00  0.00    -0.131 C  
HETATM   20  C2* UNL     1      -7.490   8.778  68.720  1.00  0.00    -0.084 C  
HETATM   21  O3* UNL     1      -7.774   7.354  70.657  1.00  0.00    -0.088 OA 
HETATM   22  H3* UNL     1      -7.329   7.959  71.238  1.00  0.00     0.000 HD 
HETATM   23  O2* UNL     1      -7.229  10.123  69.093  1.00  0.00    -0.068 OA 
BRANCH  17  24
HETATM   24  C5* UNL     1     -10.729   7.148  68.782  1.00  0.00    -0.169 C  
HETATM   25  O5* UNL     1     -11.283   7.562  67.534  1.00  0.00    -0.516 OA 
HETATM   26  H5* UNL     1     -12.229   7.614  67.598  1.00  0.00     0.000 HD 
ENDBRANCH  17  24
ENDBRANCH  14  15
ENDBRANCH   2   3
TORSDOF 3
ENDMDL
MODEL      163
REMARK 921   NORMALIZED FREE ENERGY PREDICTED BY IDOCK:   -3.69 KCAL/MOL
REMARK 922        TOTAL FREE ENERGY PREDICTED BY IDOCK:   -4.56 KCAL/MOL
REMARK 923 INTER-LIGAND FREE ENERGY PREDICTED BY IDOCK:   -4.83 KCAL/MOL
REMARK 924 INTRA-LIGAND FREE ENERGY PREDICTED BY IDOCK:    0.27 KCAL/MOL
REMARK 927      BINDING AFFINITY PREDICTED BY RF-SCORE:    0.00 PKD
ROOT
HETATM    1  C   UNL     1     -12.699  13.297  63.708  1.00  0.00     0.030 C  
HETATM    2  O   UNL     1     -12.816  14.472  64.504  1.00  0.00    -0.613 OA 
ENDROOT
BRANCH   2   3
HETATM    3  C   UNL     1     -12.035  14.397  65.640  1.00  0.00    -0.354 A  
HETATM    4  N   UNL     1     -12.299  13.442  66.569  1.00  0.00    -0.345 NA 
HETATM    5  C   UNL     1     -11.501  13.342  67.636  1.00  0.00    -0.321 A  
HETATM    6  N   UNL     1     -11.740  12.284  68.490  1.00  0.00    -0.317 NA 
HETATM    7  N   UNL     1     -10.425  14.089  67.898  1.00  0.00    -0.238 NA 
HETATM    8  H2  UNL     1     -11.722  11.409  67.965  1.00  0.00     0.000 HD 
HETATM    9  C   UNL     1     -10.170  14.995  66.941  1.00  0.00    -0.258 A  
HETATM   10  H1  UNL     1     -11.131  12.208  69.304  1.00  0.00     0.000 HD 
HETATM   11  C   UNL     1     -10.917  15.217  65.795  1.00  0.00    -0.349 A  
HETATM   12  N   UNL     1     -10.344  16.209  65.030  1.00  0.00    -0.568 NA 
HETATM   13  C   UNL     1      -9.253  16.551  65.681  1.00  0.00     0.144 A  
HETATM   14  N   UNL     1      -9.097  15.832  66.841  1.00  0.00    -0.220 NA 
BRANCH  14  15
HETATM   15  C1* UNL     1      -7.902  15.870  67.657  1.00  0.00    -0.146 C  
HETATM   16  O4* UNL     1      -6.953  14.941  67.089  1.00  0.00    -0.233 OA 
HETATM   17  C4* UNL     1      -6.870  13.773  67.940  1.00  0.00    -0.155 C  
HETATM   18  H2* UNL     1      -9.259  15.718  70.701  1.00  0.00     0.000 HD 
HETATM   19  C3* UNL     1      -7.633  14.070  69.237  1.00  0.00     0.108 C  
HETATM   20  C2* UNL     1      -7.987  15.550  69.147  1.00  0.00    -0.222 C  
HETATM   21  O3* UNL     1      -6.822  13.833  70.395  1.00  0.00    -0.367 OA 
HETATM   22  H3* UNL     1      -7.295  14.016  71.198  1.00  0.00     0.000 HD 
HETATM   23  O2* UNL     1      -9.207  15.917  69.773  1.00  0.00    -0.181 OA 
BRANCH  17  24
HETATM   24  C5* UNL     1      -7.421  12.552  67.186  1.00  0.00    -0.075 C  
HETATM   25  O5* UNL     1      -8.577  12.046  67.852  1.00  0.00    -0.149 OA 
HETATM   26  H5* UNL     1      -8.918  11.291  67.386  1.00  0.00     0.000 HD 
ENDBRANCH  17  24
ENDBRANCH  14  15
ENDBRANCH   2   3
TORSDOF 3
ENDMDL
MODEL      164
REMARK 921   NORMALIZED FREE ENERGY PREDICTED BY IDOCK:   -3.68 KCAL/MOL
REMARK 922        TOTAL FREE ENERGY PREDICTED BY IDOCK:   -4.55 KCAL/MOL
REMARK 923 INTER-LIGAND FREE ENERGY PREDICTED BY IDOCK:   -5.07 KCAL/MOL
REMARK 924 INTRA-LIGAND FREE ENERGY PREDICTED BY IDOCK:    0.52 KCAL/MOL
REMARK 927      BINDING AFFINITY PREDICTED BY RF-SCORE:    0.00 PKD
ROOT
HETATM    1  C   UNL     1     -11.617  13.457  68.398  1.00  0.00    -0.332 C  
HETATM    2  O   UNL     1     -10.446  13.559  67.596  1.00  0.00    -0.234 OA 
ENDROOT
BRANCH   2   3
HETATM    3  C   UNL     1      -9.730  14.704  67.882  1.00  0.00    -0.216 A  
HETATM    4  N   UNL     1      -8.758  14.662  68.830  1.00  0.00    -0.167 NA 
HETATM    5  C   UNL     1      -8.032  15.762  69.058  1.00  0.00    -0.214 A  
HETATM    6  N   UNL     1      -6.983  15.636  69.947  1.00  0.00    -0.108 NA 
HETATM    7  N   UNL     1      -8.145  16.935  68.429  1.00  0.00    -0.227 NA 
HETATM    8  H2  UNL     1      -6.371  14.877  69.648  1.00  0.00     0.000 HD 
HETATM    9  C   UNL     1      -9.086  16.928  67.472  1.00  0.00    -0.222 A  
HETATM   10  H1  UNL     1      -6.430  16.475  70.120  1.00  0.00     0.000 HD 
HETATM   11  C   UNL     1      -9.916  15.870  67.139  1.00  0.00    -0.240 A  
HETATM   12  N   UNL     1     -10.743  16.215  66.092  1.00  0.00    -0.266 NA 
HETATM   13  C   UNL     1     -10.391  17.442  65.774  1.00  0.00    -0.216 A  
HETATM   14  N   UNL     1      -9.379  17.914  66.575  1.00  0.00    -0.281 NA 
BRANCH  14  15
HETATM   15  C1* UNL     1      -8.675  19.155  66.335  1.00  0.00    -0.328 C  
HETATM   16  O4* UNL     1      -7.424  18.832  65.688  1.00  0.00    -0.488 OA 
HETATM   17  C4* UNL     1      -6.345  19.006  66.637  1.00  0.00    -0.186 C  
HETATM   18  H2* UNL     1      -9.059  20.635  69.300  1.00  0.00     0.000 HD 
HETATM   19  C3* UNL     1      -6.910  19.695  67.885  1.00  0.00    -0.244 C  
HETATM   20  C2* UNL     1      -8.336  20.077  67.504  1.00  0.00    -0.334 C  
HETATM   21  O3* UNL     1      -6.166  20.872  68.223  1.00  0.00    -0.326 OA 
HETATM   22  H3* UNL     1      -6.516  21.299  68.997  1.00  0.00     0.000 HD 
HETATM   23  O2* UNL     1      -9.270  20.061  68.573  1.00  0.00    -0.227 OA 
BRANCH  17  24
HETATM   24  C5* UNL     1      -5.708  17.641  66.942  1.00  0.00    -0.152 C  
HETATM   25  O5* UNL     1      -6.343  16.622  66.171  1.00  0.00    -0.066 OA 
HETATM   26  H5* UNL     1      -5.950  15.778  66.360  1.00  0.00     0.000 HD 
ENDBRANCH  17  24
ENDBRANCH  14  15
ENDBRANCH   2   3
TORSDOF 3
ENDMDL
MODEL      165
REMARK 921   NORMALIZED FREE ENERGY PREDICTED BY IDOCK:   -3.67 KCAL/MOL
REMARK 922        TOTAL FREE ENERGY PREDICTED BY IDOCK:   -4.54 KCAL/MOL
REMARK 923 INTER-LIGAND FREE ENERGY PREDICTED BY IDOCK:   -4.78 KCAL/MOL
REMARK 924 INTRA-LIGAND FREE ENERGY PREDICTED BY IDOCK:    0.24 KCAL/MOL
REMARK 927      BINDING AFFINITY PREDICTED BY RF-SCORE:    0.00 PKD
ROOT
HETATM    1  C   UNL     1     -12.665  13.414  65.161  1.00  0.00    -0.399 C  
HETATM    2  O   UNL     1     -11.318  13.319  65.610  1.00  0.00    -0.299 OA 
ENDROOT
BRANCH   2   3
HETATM    3  C   UNL     1     -11.093  12.147  66.303  1.00  0.00    -0.310 A  
HETATM    4  N   UNL     1     -11.744  11.931  67.475  1.00  0.00    -0.551 NA 
HETATM    5  C   UNL     1     -11.563  10.767  68.109  1.00  0.00    -0.197 A  
HETATM    6  N   UNL     1     -12.334  10.550  69.233  1.00  0.00    -0.711 NA 
HETATM    7  N   UNL     1     -10.801   9.749  67.701  1.00  0.00    -0.279 NA 
HETATM    8  H2  UNL     1     -13.320  10.663  68.999  1.00  0.00     0.000 HD 
HETATM    9  C   UNL     1     -10.205   9.980  66.521  1.00  0.00    -0.224 A  
HETATM   10  H1  UNL     1     -12.195   9.662  69.716  1.00  0.00     0.000 HD 
HETATM   11  C   UNL     1     -10.292  11.138  65.765  1.00  0.00    -0.260 A  
HETATM   12  N   UNL     1      -9.568  11.011  64.600  1.00  0.00    -0.240 NA 
HETATM   13  C   UNL     1      -9.087   9.787  64.633  1.00  0.00    -0.245 A  
HETATM   14  N   UNL     1      -9.457   9.116  65.773  1.00  0.00    -0.255 NA 
BRANCH  14  15
HETATM   15  C1* UNL     1      -9.225   7.705  65.989  1.00  0.00    -0.063 C  
HETATM   16  O4* UNL     1      -9.131   7.488  67.414  1.00  0.00    -0.125 OA 
HETATM   17  C4* UNL     1      -7.748   7.238  67.762  1.00  0.00    -0.112 C  
HETATM   18  H2* UNL     1      -6.835   7.147  63.729  1.00  0.00     0.000 HD 
HETATM   19  C3* UNL     1      -6.952   7.059  66.464  1.00  0.00    -0.069 C  
HETATM   20  C2* UNL     1      -8.006   7.029  65.364  1.00  0.00    -0.129 C  
HETATM   21  O3* UNL     1      -6.211   5.832  66.461  1.00  0.00    -0.031 OA 
HETATM   22  H3* UNL     1      -5.717   5.722  65.657  1.00  0.00     0.000 HD 
HETATM   23  O2* UNL     1      -7.593   7.568  64.117  1.00  0.00    -0.095 OA 
BRANCH  17  24
HETATM   24  C5* UNL     1      -7.225   8.392  68.633  1.00  0.00    -0.080 C  
HETATM   25  O5* UNL     1      -8.266   9.339  68.868  1.00  0.00    -0.108 OA 
HETATM   26  H5* UNL     1      -7.943  10.052  69.406  1.00  0.00     0.000 HD 
ENDBRANCH  17  24
ENDBRANCH  14  15
ENDBRANCH   2   3
TORSDOF 3
ENDMDL
MODEL      166
REMARK 921   NORMALIZED FREE ENERGY PREDICTED BY IDOCK:   -3.67 KCAL/MOL
REMARK 922        TOTAL FREE ENERGY PREDICTED BY IDOCK:   -4.54 KCAL/MOL
REMARK 923 INTER-LIGAND FREE ENERGY PREDICTED BY IDOCK:   -4.51 KCAL/MOL
REMARK 924 INTRA-LIGAND FREE ENERGY PREDICTED BY IDOCK:   -0.03 KCAL/MOL
REMARK 927      BINDING AFFINITY PREDICTED BY RF-SCORE:    0.00 PKD
ROOT
HETATM    1  C   UNL     1      -6.829  12.436  67.210  1.00  0.00    -0.127 C  
HETATM    2  O   UNL     1      -7.561  12.585  68.421  1.00  0.00    -0.118 OA 
ENDROOT
BRANCH   2   3
HETATM    3  C   UNL     1      -8.710  11.819  68.420  1.00  0.00    -0.155 A  
HETATM    4  N   UNL     1      -9.785  12.232  67.699  1.00  0.00    -0.190 NA 
HETATM    5  C   UNL     1     -10.871  11.453  67.658  1.00  0.00    -0.237 A  
HETATM    6  N   UNL     1     -11.891  11.859  66.821  1.00  0.00    -0.607 NA 
HETATM    7  N   UNL     1     -11.023  10.266  68.253  1.00  0.00    -0.258 NA 
HETATM    8  H2  UNL     1     -11.527  11.989  65.877  1.00  0.00     0.000 HD 
HETATM    9  C   UNL     1      -9.928   9.872  68.922  1.00  0.00    -0.181 A  
HETATM   10  H1  UNL     1     -12.719  11.264  66.790  1.00  0.00     0.000 HD 
HETATM   11  C   UNL     1      -8.745  10.580  69.059  1.00  0.00    -0.156 A  
HETATM   12  N   UNL     1      -7.831   9.856  69.794  1.00  0.00    -0.147 NA 
HETATM   13  C   UNL     1      -8.437   8.719  70.061  1.00  0.00    -0.133 A  
HETATM   14  N   UNL     1      -9.708   8.676  69.542  1.00  0.00    -0.177 NA 
BRANCH  14  15
HETATM   15  C1* UNL     1     -10.531   7.486  69.525  1.00  0.00    -0.226 C  
HETATM   16  O4* UNL     1     -11.659   7.721  70.396  1.00  0.00    -0.220 OA 
HETATM   17  C4* UNL     1     -11.484   6.954  71.611  1.00  0.00    -0.275 C  
HETATM   18  H2* UNL     1      -8.187   5.140  69.895  1.00  0.00     0.000 HD 
HETATM   19  C3* UNL     1     -10.298   6.003  71.412  1.00  0.00    -0.220 C  
HETATM   20  C2* UNL     1      -9.935   6.142  69.938  1.00  0.00    -0.172 C  
HETATM   21  O3* UNL     1     -10.653   4.645  71.700  1.00  0.00    -0.110 OA 
HETATM   22  H3* UNL     1      -9.918   4.056  71.576  1.00  0.00     0.000 HD 
HETATM   23  O2* UNL     1      -8.557   5.977  69.638  1.00  0.00    -0.123 OA 
BRANCH  17  24
HETATM   24  C5* UNL     1     -11.292   7.913  72.797  1.00  0.00    -0.393 C  
HETATM   25  O5* UNL     1      -9.929   8.332  72.872  1.00  0.00    -0.284 OA 
HETATM   26  H5* UNL     1      -9.811   8.925  73.604  1.00  0.00     0.000 HD 
ENDBRANCH  17  24
ENDBRANCH  14  15
ENDBRANCH   2   3
TORSDOF 3
ENDMDL
MODEL      167
REMARK 921   NORMALIZED FREE ENERGY PREDICTED BY IDOCK:   -3.66 KCAL/MOL
REMARK 922        TOTAL FREE ENERGY PREDICTED BY IDOCK:   -4.53 KCAL/MOL
REMARK 923 INTER-LIGAND FREE ENERGY PREDICTED BY IDOCK:   -4.61 KCAL/MOL
REMARK 924 INTRA-LIGAND FREE ENERGY PREDICTED BY IDOCK:    0.08 KCAL/MOL
REMARK 927      BINDING AFFINITY PREDICTED BY RF-SCORE:    0.00 PKD
ROOT
HETATM    1  C   UNL     1     -14.401   8.371  71.486  1.00  0.00    -0.408 C  
HETATM    2  O   UNL     1     -13.646   9.568  71.644  1.00  0.00    -0.380 OA 
ENDROOT
BRANCH   2   3
HETATM    3  C   UNL     1     -12.290   9.333  71.539  1.00  0.00    -0.360 A  
HETATM    4  N   UNL     1     -11.686   8.509  72.435  1.00  0.00    -0.377 NA 
HETATM    5  C   UNL     1     -10.384   8.243  72.290  1.00  0.00    -0.316 A  
HETATM    6  N   UNL     1      -9.843   7.312  73.154  1.00  0.00    -0.210 NA 
HETATM    7  N   UNL     1      -9.581   8.695  71.322  1.00  0.00    -0.202 NA 
HETATM    8  H2  UNL     1     -10.379   6.445  73.102  1.00  0.00     0.000 HD 
HETATM    9  C   UNL     1     -10.220   9.472  70.433  1.00  0.00    -0.279 A  
HETATM   10  H1  UNL     1      -8.850   7.109  73.043  1.00  0.00     0.000 HD 
HETATM   11  C   UNL     1     -11.555   9.840  70.468  1.00  0.00    -0.292 A  
HETATM   12  N   UNL     1     -11.868  10.625  69.379  1.00  0.00    -0.276 NA 
HETATM   13  C   UNL     1     -10.755  10.695  68.682  1.00  0.00    -0.207 A  
HETATM   14  N   UNL     1      -9.729  10.000  69.274  1.00  0.00    -0.203 NA 
BRANCH  14  15
HETATM   15  C1* UNL     1      -8.451   9.756  68.640  1.00  0.00    -0.116 C  
HETATM   16  O4* UNL     1      -8.577   8.555  67.847  1.00  0.00    -0.132 OA 
HETATM   17  C4* UNL     1      -7.869   7.478  68.508  1.00  0.00    -0.122 C  
HETATM   18  H2* UNL     1      -6.406  10.223  71.234  1.00  0.00     0.000 HD 
HETATM   19  C3* UNL     1      -7.059   8.076  69.663  1.00  0.00    -0.061 C  
HETATM   20  C2* UNL     1      -7.198   9.584  69.494  1.00  0.00    -0.074 C  
HETATM   21  O3* UNL     1      -5.676   7.703  69.589  1.00  0.00    -0.023 OA 
HETATM   22  H3* UNL     1      -5.174   8.073  70.306  1.00  0.00     0.000 HD 
HETATM   23  O2* UNL     1      -7.186  10.329  70.703  1.00  0.00    -0.306 OA 
BRANCH  17  24
HETATM   24  C5* UNL     1      -8.877   6.413  68.969  1.00  0.00    -0.129 C  
HETATM   25  O5* UNL     1      -8.627   6.058  70.328  1.00  0.00    -0.137 OA 
HETATM   26  H5* UNL     1      -9.250   5.400  70.613  1.00  0.00     0.000 HD 
ENDBRANCH  17  24
ENDBRANCH  14  15
ENDBRANCH   2   3
TORSDOF 3
ENDMDL
MODEL      168
REMARK 921   NORMALIZED FREE ENERGY PREDICTED BY IDOCK:   -3.65 KCAL/MOL
REMARK 922        TOTAL FREE ENERGY PREDICTED BY IDOCK:   -4.52 KCAL/MOL
REMARK 923 INTER-LIGAND FREE ENERGY PREDICTED BY IDOCK:   -4.67 KCAL/MOL
REMARK 924 INTRA-LIGAND FREE ENERGY PREDICTED BY IDOCK:    0.15 KCAL/MOL
REMARK 927      BINDING AFFINITY PREDICTED BY RF-SCORE:    0.00 PKD
ROOT
HETATM    1  C   UNL     1     -11.620  11.666  67.054  1.00  0.00    -0.189 C  
HETATM    2  O   UNL     1     -11.529  12.223  68.361  1.00  0.00    -0.258 OA 
ENDROOT
BRANCH   2   3
HETATM    3  C   UNL     1     -11.389  11.243  69.323  1.00  0.00    -0.287 A  
HETATM    4  N   UNL     1     -12.497  10.737  69.925  1.00  0.00    -0.281 NA 
HETATM    5  C   UNL     1     -12.353   9.748  70.814  1.00  0.00    -0.236 A  
HETATM    6  N   UNL     1     -13.514   9.191  71.310  1.00  0.00    -0.532 NA 
HETATM    7  N   UNL     1     -11.207   9.168  71.181  1.00  0.00    -0.296 NA 
HETATM    8  H2  UNL     1     -14.100   8.874  70.537  1.00  0.00     0.000 HD 
HETATM    9  C   UNL     1     -10.139   9.664  70.537  1.00  0.00    -0.274 A  
HETATM   10  H1  UNL     1     -13.404   8.436  71.988  1.00  0.00     0.000 HD 
HETATM   11  C   UNL     1     -10.139  10.692  69.608  1.00  0.00    -0.080 A  
HETATM   12  N   UNL     1      -8.864  10.920  69.138  1.00  0.00    -0.095 NA 
HETATM   13  C   UNL     1      -8.117  10.022  69.742  1.00  0.00    -0.177 A  
HETATM   14  N   UNL     1      -8.847   9.227  70.591  1.00  0.00    -0.231 NA 
BRANCH  14  15
HETATM   15  C1* UNL     1      -8.320   8.047  71.243  1.00  0.00    -0.117 C  
HETATM   16  O4* UNL     1      -8.662   6.905  70.427  1.00  0.00    -0.144 OA 
HETATM   17  C4* UNL     1      -9.717   6.159  71.079  1.00  0.00    -0.177 C  
HETATM   18  H2* UNL     1      -9.301   8.616  74.380  1.00  0.00     0.000 HD 
HETATM   19  C3* UNL     1      -9.900   6.724  72.492  1.00  0.00    -0.164 C  
HETATM   20  C2* UNL     1      -8.749   7.708  72.668  1.00  0.00    -0.136 C  
HETATM   21  O3* UNL     1      -9.819   5.697  73.489  1.00  0.00    -0.157 OA 
HETATM   22  H3* UNL     1      -9.933   6.048  74.364  1.00  0.00     0.000 HD 
HETATM   23  O2* UNL     1      -9.034   8.828  73.493  1.00  0.00    -0.150 OA 
BRANCH  17  24
HETATM   24  C5* UNL     1     -10.997   6.238  70.231  1.00  0.00    -0.337 C  
HETATM   25  O5* UNL     1     -12.128   6.468  71.070  1.00  0.00    -0.352 OA 
HETATM   26  H5* UNL     1     -12.918   6.517  70.545  1.00  0.00     0.000 HD 
ENDBRANCH  17  24
ENDBRANCH  14  15
ENDBRANCH   2   3
TORSDOF 3
ENDMDL
MODEL      169
REMARK 921   NORMALIZED FREE ENERGY PREDICTED BY IDOCK:   -3.64 KCAL/MOL
REMARK 922        TOTAL FREE ENERGY PREDICTED BY IDOCK:   -4.50 KCAL/MOL
REMARK 923 INTER-LIGAND FREE ENERGY PREDICTED BY IDOCK:   -4.53 KCAL/MOL
REMARK 924 INTRA-LIGAND FREE ENERGY PREDICTED BY IDOCK:    0.03 KCAL/MOL
REMARK 927      BINDING AFFINITY PREDICTED BY RF-SCORE:    0.00 PKD
ROOT
HETATM    1  C   UNL     1      -9.968  20.490  69.202  1.00  0.00     0.380 C  
HETATM    2  O   UNL     1     -10.114  19.120  69.563  1.00  0.00    -0.178 OA 
ENDROOT
BRANCH   2   3
HETATM    3  C   UNL     1     -10.224  18.309  68.450  1.00  0.00    -0.380 A  
HETATM    4  N   UNL     1     -10.550  18.862  67.253  1.00  0.00    -0.439 NA 
HETATM    5  C   UNL     1     -10.597  18.077  66.172  1.00  0.00    -0.261 A  
HETATM    6  N   UNL     1     -10.818  18.704  64.962  1.00  0.00    -0.349 NA 
HETATM    7  N   UNL     1     -10.336  16.767  66.127  1.00  0.00    -0.337 NA 
HETATM    8  H2  UNL     1     -10.122  19.436  64.824  1.00  0.00     0.000 HD 
HETATM    9  C   UNL     1      -9.978  16.263  67.318  1.00  0.00    -0.250 A  
HETATM   10  H1  UNL     1     -10.854  18.104  64.138  1.00  0.00     0.000 HD 
HETATM   11  C   UNL     1      -9.901  16.954  68.517  1.00  0.00    -0.267 A  
HETATM   12  N   UNL     1      -9.477  16.120  69.529  1.00  0.00    -0.194 NA 
HETATM   13  C   UNL     1      -9.265  14.961  68.945  1.00  0.00    -0.192 A  
HETATM   14  N   UNL     1      -9.542  15.000  67.600  1.00  0.00    -0.202 NA 
BRANCH  14  15
HETATM   15  C1* UNL     1      -9.228  13.928  66.681  1.00  0.00    -0.236 C  
HETATM   16  O4* UNL     1     -10.474  13.333  66.257  1.00  0.00    -0.278 OA 
HETATM   17  C4* UNL     1     -10.621  12.043  66.897  1.00  0.00    -0.229 C  
HETATM   18  H2* UNL     1      -6.767  12.418  68.352  1.00  0.00     0.000 HD 
HETATM   19  C3* UNL     1      -9.295  11.695  67.585  1.00  0.00    -0.178 C  
HETATM   20  C2* UNL     1      -8.327  12.780  67.128  1.00  0.00    -0.164 C  
HETATM   21  O3* UNL     1      -8.810  10.409  67.180  1.00  0.00    -0.136 OA 
HETATM   22  H3* UNL     1      -7.989  10.193  67.606  1.00  0.00     0.000 HD 
HETATM   23  O2* UNL     1      -7.328  13.133  68.074  1.00  0.00    -0.097 OA 
BRANCH  17  24
HETATM   24  C5* UNL     1     -11.808  12.089  67.872  1.00  0.00    -0.250 C  
HETATM   25  O5* UNL     1     -11.754  10.977  68.764  1.00  0.00    -0.295 OA 
HETATM   26  H5* UNL     1     -12.488  11.006  69.367  1.00  0.00     0.000 HD 
ENDBRANCH  17  24
ENDBRANCH  14  15
ENDBRANCH   2   3
TORSDOF 3
ENDMDL
MODEL      170
REMARK 921   NORMALIZED FREE ENERGY PREDICTED BY IDOCK:   -3.58 KCAL/MOL
REMARK 922        TOTAL FREE ENERGY PREDICTED BY IDOCK:   -4.44 KCAL/MOL
REMARK 923 INTER-LIGAND FREE ENERGY PREDICTED BY IDOCK:   -4.66 KCAL/MOL
REMARK 924 INTRA-LIGAND FREE ENERGY PREDICTED BY IDOCK:    0.23 KCAL/MOL
REMARK 927      BINDING AFFINITY PREDICTED BY RF-SCORE:    0.00 PKD
ROOT
HETATM    1  C   UNL     1      -7.935  11.187  66.777  1.00  0.00    -0.156 C  
HETATM    2  O   UNL     1      -7.840  11.196  68.198  1.00  0.00    -0.107 OA 
ENDROOT
BRANCH   2   3
HETATM    3  C   UNL     1      -8.347  10.037  68.750  1.00  0.00    -0.121 A  
HETATM    4  N   UNL     1      -7.557   8.934  68.827  1.00  0.00    -0.090 NA 
HETATM    5  C   UNL     1      -8.040   7.835  69.416  1.00  0.00    -0.126 A  
HETATM    6  N   UNL     1      -7.162   6.782  69.572  1.00  0.00    -0.079 NA 
HETATM    7  N   UNL     1      -9.246   7.695  69.973  1.00  0.00    -0.151 NA 
HETATM    8  H2  UNL     1      -6.330   7.100  70.069  1.00  0.00     0.000 HD 
HETATM    9  C   UNL     1      -9.983   8.815  69.916  1.00  0.00    -0.187 A  
HETATM   10  H1  UNL     1      -7.530   5.944  70.021  1.00  0.00     0.000 HD 
HETATM   11  C   UNL     1      -9.617  10.015  69.326  1.00  0.00    -0.216 A  
HETATM   12  N   UNL     1     -10.615  10.952  69.479  1.00  0.00    -0.211 NA 
HETATM   13  C   UNL     1     -11.547  10.343  70.180  1.00  0.00    -0.312 A  
HETATM   14  N   UNL     1     -11.204   9.047  70.481  1.00  0.00    -0.259 NA 
BRANCH  14  15
HETATM   15  C1* UNL     1     -11.953   8.206  71.389  1.00  0.00    -0.298 C  
HETATM   16  O4* UNL     1     -11.508   8.504  72.731  1.00  0.00    -0.296 OA 
HETATM   17  C4* UNL     1     -10.693   7.408  73.212  1.00  0.00    -0.391 C  
HETATM   18  H2* UNL     1     -11.710   5.274  69.817  1.00  0.00     0.000 HD 
HETATM   19  C3* UNL     1     -10.813   6.250  72.215  1.00  0.00    -0.240 C  
HETATM   20  C2* UNL     1     -11.900   6.688  71.241  1.00  0.00    -0.350 C  
HETATM   21  O3* UNL     1     -11.202   5.031  72.861  1.00  0.00    -0.270 OA 
HETATM   22  H3* UNL     1     -11.275   4.313  72.243  1.00  0.00     0.000 HD 
HETATM   23  O2* UNL     1     -11.742   6.219  69.910  1.00  0.00    -0.408 OA 
BRANCH  17  24
HETATM   24  C5* UNL     1      -9.246   7.891  73.399  1.00  0.00    -0.286 C  
HETATM   25  O5* UNL     1      -8.334   6.909  72.911  1.00  0.00    -0.108 OA 
HETATM   26  H5* UNL     1      -7.440   7.208  73.027  1.00  0.00     0.000 HD 
ENDBRANCH  17  24
ENDBRANCH  14  15
ENDBRANCH   2   3
TORSDOF 3
ENDMDL
MODEL      171
REMARK 921   NORMALIZED FREE ENERGY PREDICTED BY IDOCK:   -3.55 KCAL/MOL
REMARK 922        TOTAL FREE ENERGY PREDICTED BY IDOCK:   -4.39 KCAL/MOL
REMARK 923 INTER-LIGAND FREE ENERGY PREDICTED BY IDOCK:   -5.12 KCAL/MOL
REMARK 924 INTRA-LIGAND FREE ENERGY PREDICTED BY IDOCK:    0.72 KCAL/MOL
REMARK 927      BINDING AFFINITY PREDICTED BY RF-SCORE:    0.00 PKD
ROOT
HETATM    1  C   UNL     1     -11.881  13.087  66.992  1.00  0.00    -0.377 C  
HETATM    2  O   UNL     1     -10.905  13.103  68.028  1.00  0.00    -0.230 OA 
ENDROOT
BRANCH   2   3
HETATM    3  C   UNL     1     -10.879  11.911  68.723  1.00  0.00    -0.231 A  
HETATM    4  N   UNL     1     -11.992  11.500  69.384  1.00  0.00    -0.326 NA 
HETATM    5  C   UNL     1     -11.973  10.316  70.005  1.00  0.00    -0.197 A  
HETATM    6  N   UNL     1     -13.163   9.892  70.563  1.00  0.00    -0.600 NA 
HETATM    7  N   UNL     1     -10.956   9.450  70.039  1.00  0.00    -0.236 NA 
HETATM    8  H2  UNL     1     -13.895   9.896  69.852  1.00  0.00     0.000 HD 
HETATM    9  C   UNL     1      -9.889   9.870  69.342  1.00  0.00    -0.217 A  
HETATM   10  H1  UNL     1     -13.148   8.989  71.036  1.00  0.00     0.000 HD 
HETATM   11  C   UNL     1      -9.765  11.073  68.666  1.00  0.00    -0.195 A  
HETATM   12  N   UNL     1      -8.538  11.153  68.044  1.00  0.00    -0.135 NA 
HETATM   13  C   UNL     1      -7.950  10.007  68.307  1.00  0.00    -0.097 A  
HETATM   14  N   UNL     1      -8.735   9.188  69.081  1.00  0.00    -0.135 NA 
BRANCH  14  15
HETATM   15  C1* UNL     1      -8.419   7.805  69.368  1.00  0.00    -0.134 C  
HETATM   16  O4* UNL     1      -8.757   7.026  68.199  1.00  0.00    -0.127 OA 
HETATM   17  C4* UNL     1      -9.959   6.266  68.471  1.00  0.00    -0.144 C  
HETATM   18  H2* UNL     1      -9.757   7.511  72.410  1.00  0.00     0.000 HD 
HETATM   19  C3* UNL     1     -10.276   6.390  69.965  1.00  0.00    -0.180 C  
HETATM   20  C2* UNL     1      -9.069   7.106  70.559  1.00  0.00    -0.155 C  
HETATM   21  O3* UNL     1     -10.431   5.105  70.582  1.00  0.00    -0.250 OA 
HETATM   22  H3* UNL     1     -10.628   5.182  71.508  1.00  0.00     0.000 HD 
HETATM   23  O2* UNL     1      -9.352   7.947  71.668  1.00  0.00    -0.139 OA 
BRANCH  17  24
HETATM   24  C5* UNL     1     -11.098   6.774  67.572  1.00  0.00    -0.265 C  
HETATM   25  O5* UNL     1     -11.197   5.964  66.401  1.00  0.00    -0.749 OA 
HETATM   26  H5* UNL     1     -11.900   6.278  65.846  1.00  0.00     0.000 HD 
ENDBRANCH  17  24
ENDBRANCH  14  15
ENDBRANCH   2   3
TORSDOF 3
ENDMDL
MODEL      172
REMARK 921   NORMALIZED FREE ENERGY PREDICTED BY IDOCK:   -3.52 KCAL/MOL
REMARK 922        TOTAL FREE ENERGY PREDICTED BY IDOCK:   -4.36 KCAL/MOL
REMARK 923 INTER-LIGAND FREE ENERGY PREDICTED BY IDOCK:   -4.33 KCAL/MOL
REMARK 924 INTRA-LIGAND FREE ENERGY PREDICTED BY IDOCK:   -0.03 KCAL/MOL
REMARK 927      BINDING AFFINITY PREDICTED BY RF-SCORE:    0.00 PKD
ROOT
HETATM    1  C   UNL     1      -8.172  14.335  67.822  1.00  0.00    -0.174 C  
HETATM    2  O   UNL     1      -6.973  13.602  67.592  1.00  0.00    -0.154 OA 
ENDROOT
BRANCH   2   3
HETATM    3  C   UNL     1      -6.848  12.542  68.466  1.00  0.00    -0.083 A  
HETATM    4  N   UNL     1      -6.082  12.683  69.580  1.00  0.00    -0.111 NA 
HETATM    5  C   UNL     1      -6.015  11.669  70.449  1.00  0.00    -0.131 A  
HETATM    6  N   UNL     1      -5.320  11.902  71.617  1.00  0.00    -0.367 NA 
HETATM    7  N   UNL     1      -6.650  10.496  70.355  1.00  0.00    -0.265 NA 
HETATM    8  H2  UNL     1      -5.698  12.728  72.082  1.00  0.00     0.000 HD 
HETATM    9  C   UNL     1      -7.428  10.408  69.266  1.00  0.00    -0.120 A  
HETATM   10  H1  UNL     1      -5.269  11.129  72.280  1.00  0.00     0.000 HD 
HETATM   11  C   UNL     1      -7.581  11.369  68.280  1.00  0.00    -0.113 A  
HETATM   12  N   UNL     1      -8.478  10.943  67.324  1.00  0.00    -0.124 NA 
HETATM   13  C   UNL     1      -8.887   9.767  67.746  1.00  0.00    -0.129 A  
HETATM   14  N   UNL     1      -8.289   9.403  68.927  1.00  0.00    -0.118 NA 
BRANCH  14  15
HETATM   15  C1* UNL     1      -8.683   8.251  69.709  1.00  0.00    -0.134 C  
HETATM   16  O4* UNL     1      -8.569   7.086  68.862  1.00  0.00    -0.128 OA 
HETATM   17  C4* UNL     1      -9.896   6.640  68.493  1.00  0.00    -0.139 C  
HETATM   18  H2* UNL     1     -11.469   9.419  71.123  1.00  0.00     0.000 HD 
HETATM   19  C3* UNL     1     -10.914   7.421  69.334  1.00  0.00    -0.108 C  
HETATM   20  C2* UNL     1     -10.072   8.196  70.340  1.00  0.00    -0.194 C  
HETATM   21  O3* UNL     1     -11.813   6.545  70.025  1.00  0.00    -0.574 OA 
HETATM   22  H3* UNL     1     -12.444   7.029  70.545  1.00  0.00     0.000 HD 
HETATM   23  O2* UNL     1     -10.605   9.453  70.730  1.00  0.00    -0.254 OA 
BRANCH  17  24
HETATM   24  C5* UNL     1     -10.096   6.828  66.981  1.00  0.00    -0.200 C  
HETATM   25  O5* UNL     1     -11.476   6.680  66.647  1.00  0.00    -0.709 OA 
HETATM   26  H5* UNL     1     -11.599   6.796  65.713  1.00  0.00     0.000 HD 
ENDBRANCH  17  24
ENDBRANCH  14  15
ENDBRANCH   2   3
TORSDOF 3
ENDMDL
MODEL      173
REMARK 921   NORMALIZED FREE ENERGY PREDICTED BY IDOCK:   -3.50 KCAL/MOL
REMARK 922        TOTAL FREE ENERGY PREDICTED BY IDOCK:   -4.34 KCAL/MOL
REMARK 923 INTER-LIGAND FREE ENERGY PREDICTED BY IDOCK:   -4.50 KCAL/MOL
REMARK 924 INTRA-LIGAND FREE ENERGY PREDICTED BY IDOCK:    0.16 KCAL/MOL
REMARK 927      BINDING AFFINITY PREDICTED BY RF-SCORE:    0.00 PKD
ROOT
HETATM    1  C   UNL     1      -7.311   9.744  67.855  1.00  0.00    -0.085 C  
HETATM    2  O   UNL     1      -6.725  10.793  67.091  1.00  0.00    -0.076 OA 
ENDROOT
BRANCH   2   3
HETATM    3  C   UNL     1      -7.543  11.904  67.039  1.00  0.00    -0.134 A  
HETATM    4  N   UNL     1      -8.860  11.748  66.743  1.00  0.00    -0.187 NA 
HETATM    5  C   UNL     1      -9.654  12.824  66.752  1.00  0.00    -0.244 A  
HETATM    6  N   UNL     1     -11.002  12.597  66.559  1.00  0.00    -0.261 NA 
HETATM    7  N   UNL     1      -9.295  14.077  67.045  1.00  0.00    -0.240 NA 
HETATM    8  H2  UNL     1     -11.337  11.918  67.242  1.00  0.00     0.000 HD 
HETATM    9  C   UNL     1      -7.998  14.187  67.373  1.00  0.00    -0.184 A  
HETATM   10  H1  UNL     1     -11.608  13.418  66.566  1.00  0.00     0.000 HD 
HETATM   11  C   UNL     1      -7.062  13.165  67.391  1.00  0.00    -0.106 A  
HETATM   12  N   UNL     1      -5.835  13.642  67.799  1.00  0.00    -0.242 NA 
HETATM   13  C   UNL     1      -6.036  14.915  68.058  1.00  0.00    -0.152 A  
HETATM   14  N   UNL     1      -7.337  15.291  67.828  1.00  0.00    -0.146 NA 
BRANCH  14  15
HETATM   15  C1* UNL     1      -7.881  16.579  68.200  1.00  0.00    -0.168 C  
HETATM   16  O4* UNL     1      -8.581  16.415  69.452  1.00  0.00    -0.174 OA 
HETATM   17  C4* UNL     1     -10.007  16.465  69.205  1.00  0.00    -0.273 C  
HETATM   18  H2* UNL     1      -9.206  17.525  65.288  1.00  0.00     0.000 HD 
HETATM   19  C3* UNL     1     -10.226  16.914  67.755  1.00  0.00    -0.308 C  
HETATM   20  C2* UNL     1      -8.839  17.303  67.257  1.00  0.00    -0.222 C  
HETATM   21  O3* UNL     1     -11.105  18.043  67.677  1.00  0.00    -0.209 OA 
HETATM   22  H3* UNL     1     -11.241  18.320  66.779  1.00  0.00     0.000 HD 
HETATM   23  O2* UNL     1      -8.610  17.074  65.874  1.00  0.00    -0.521 OA 
BRANCH  17  24
HETATM   24  C5* UNL     1     -10.627  15.092  69.508  1.00  0.00    -0.254 C  
HETATM   25  O5* UNL     1     -11.755  14.866  68.664  1.00  0.00    -0.318 OA 
HETATM   26  H5* UNL     1     -12.137  14.017  68.852  1.00  0.00     0.000 HD 
ENDBRANCH  17  24
ENDBRANCH  14  15
ENDBRANCH   2   3
TORSDOF 3
ENDMDL
MODEL      174
REMARK 921   NORMALIZED FREE ENERGY PREDICTED BY IDOCK:   -3.49 KCAL/MOL
REMARK 922        TOTAL FREE ENERGY PREDICTED BY IDOCK:   -4.33 KCAL/MOL
REMARK 923 INTER-LIGAND FREE ENERGY PREDICTED BY IDOCK:   -4.65 KCAL/MOL
REMARK 924 INTRA-LIGAND FREE ENERGY PREDICTED BY IDOCK:    0.32 KCAL/MOL
REMARK 927      BINDING AFFINITY PREDICTED BY RF-SCORE:    0.00 PKD
ROOT
HETATM    1  C   UNL     1     -10.385  18.701  66.601  1.00  0.00    -0.415 C  
HETATM    2  O   UNL     1      -9.417  18.560  67.635  1.00  0.00    -0.274 OA 
ENDROOT
BRANCH   2   3
HETATM    3  C   UNL     1      -9.662  17.447  68.414  1.00  0.00    -0.304 A  
HETATM    4  N   UNL     1     -10.433  17.569  69.526  1.00  0.00    -0.079 NA 
HETATM    5  C   UNL     1     -10.712  16.473  70.241  1.00  0.00    -0.081 A  
HETATM    6  N   UNL     1     -11.592  16.629  71.293  1.00  0.00    -0.518 NA 
HETATM    7  N   UNL     1     -10.319  15.225  69.970  1.00  0.00    -0.257 NA 
HETATM    8  H2  UNL     1     -12.459  17.048  70.955  1.00  0.00     0.000 HD 
HETATM    9  C   UNL     1      -9.595  15.136  68.844  1.00  0.00    -0.223 A  
HETATM   10  H1  UNL     1     -11.804  15.794  71.837  1.00  0.00     0.000 HD 
HETATM   11  C   UNL     1      -9.221  16.184  68.019  1.00  0.00    -0.195 A  
HETATM   12  N   UNL     1      -8.500  15.717  66.941  1.00  0.00    -0.228 NA 
HETATM   13  C   UNL     1      -8.474  14.411  67.093  1.00  0.00    -0.208 A  
HETATM   14  N   UNL     1      -9.136  14.008  68.227  1.00  0.00    -0.188 NA 
BRANCH  14  15
HETATM   15  C1* UNL     1      -9.421  12.626  68.546  1.00  0.00    -0.091 C  
HETATM   16  O4* UNL     1      -8.676  11.800  67.624  1.00  0.00    -0.148 OA 
HETATM   17  C4* UNL     1      -9.592  11.225  66.661  1.00  0.00    -0.195 C  
HETATM   18  H2* UNL     1     -12.740  12.763  68.860  1.00  0.00     0.000 HD 
HETATM   19  C3* UNL     1     -11.023  11.514  67.129  1.00  0.00    -0.286 C  
HETATM   20  C2* UNL     1     -10.861  12.119  68.519  1.00  0.00    -0.236 C  
HETATM   21  O3* UNL     1     -11.806  10.316  67.208  1.00  0.00    -0.096 OA 
HETATM   22  H3* UNL     1     -12.693  10.496  67.497  1.00  0.00     0.000 HD 
HETATM   23  O2* UNL     1     -11.844  13.079  68.876  1.00  0.00    -0.302 OA 
BRANCH  17  24
HETATM   24  C5* UNL     1      -9.290  11.796  65.266  1.00  0.00    -0.045 C  
HETATM   25  O5* UNL     1     -10.487  12.295  64.671  1.00  0.00    -0.279 OA 
HETATM   26  H5* UNL     1     -10.300  12.648  63.809  1.00  0.00     0.000 HD 
ENDBRANCH  17  24
ENDBRANCH  14  15
ENDBRANCH   2   3
TORSDOF 3
ENDMDL
MODEL      175
REMARK 921   NORMALIZED FREE ENERGY PREDICTED BY IDOCK:   -3.49 KCAL/MOL
REMARK 922        TOTAL FREE ENERGY PREDICTED BY IDOCK:   -4.33 KCAL/MOL
REMARK 923 INTER-LIGAND FREE ENERGY PREDICTED BY IDOCK:   -4.51 KCAL/MOL
REMARK 924 INTRA-LIGAND FREE ENERGY PREDICTED BY IDOCK:    0.18 KCAL/MOL
REMARK 927      BINDING AFFINITY PREDICTED BY RF-SCORE:    0.00 PKD
ROOT
HETATM    1  C   UNL     1      -5.299   9.514  63.995  1.00  0.00    -0.062 C  
HETATM    2  O   UNL     1      -6.233   8.544  64.458  1.00  0.00    -0.064 OA 
ENDROOT
BRANCH   2   3
HETATM    3  C   UNL     1      -7.449   9.117  64.773  1.00  0.00    -0.106 A  
HETATM    4  N   UNL     1      -8.143   9.778  63.810  1.00  0.00    -0.139 NA 
HETATM    5  C   UNL     1      -9.345  10.280  64.112  1.00  0.00    -0.287 A  
HETATM    6  N   UNL     1     -10.059  10.840  63.072  1.00  0.00    -0.662 NA 
HETATM    7  N   UNL     1      -9.974  10.189  65.287  1.00  0.00    -0.317 NA 
HETATM    8  H2  UNL     1     -10.150  10.162  62.315  1.00  0.00     0.000 HD 
HETATM    9  C   UNL     1      -9.278   9.495  66.201  1.00  0.00    -0.177 A  
HETATM   10  H1  UNL     1     -10.977  11.222  63.302  1.00  0.00     0.000 HD 
HETATM   11  C   UNL     1      -8.022   8.935  66.032  1.00  0.00    -0.106 A  
HETATM   12  N   UNL     1      -7.628   8.277  67.176  1.00  0.00    -0.092 NA 
HETATM   13  C   UNL     1      -8.642   8.403  68.005  1.00  0.00    -0.135 A  
HETATM   14  N   UNL     1      -9.673   9.124  67.454  1.00  0.00    -0.154 NA 
BRANCH  14  15
HETATM   15  C1* UNL     1     -10.976   9.262  68.067  1.00  0.00    -0.015 C  
HETATM   16  O4* UNL     1     -11.558  10.495  67.590  1.00  0.00    -0.447 OA 
HETATM   17  C4* UNL     1     -11.527  11.474  68.657  1.00  0.00    -0.293 C  
HETATM   18  H2* UNL     1     -10.226   8.507  71.229  1.00  0.00     0.000 HD 
HETATM   19  C3* UNL     1     -11.115  10.760  69.950  1.00  0.00    -0.271 C  
HETATM   20  C2* UNL     1     -11.105   9.279  69.588  1.00  0.00    -0.116 C  
HETATM   21  O3* UNL     1     -12.053  10.996  71.008  1.00  0.00    -0.340 OA 
HETATM   22  H3* UNL     1     -11.798  10.554  71.809  1.00  0.00     0.000 HD 
HETATM   23  O2* UNL     1     -10.145   8.496  70.282  1.00  0.00    -0.181 OA 
BRANCH  17  24
HETATM   24  C5* UNL     1     -10.574  12.617  68.273  1.00  0.00    -0.237 C  
HETATM   25  O5* UNL     1      -9.225  12.246  68.554  1.00  0.00    -0.311 OA 
HETATM   26  H5* UNL     1      -8.636  12.952  68.316  1.00  0.00     0.000 HD 
ENDBRANCH  17  24
ENDBRANCH  14  15
ENDBRANCH   2   3
TORSDOF 3
ENDMDL
MODEL      176
REMARK 921   NORMALIZED FREE ENERGY PREDICTED BY IDOCK:   -3.48 KCAL/MOL
REMARK 922        TOTAL FREE ENERGY PREDICTED BY IDOCK:   -4.32 KCAL/MOL
REMARK 923 INTER-LIGAND FREE ENERGY PREDICTED BY IDOCK:   -5.50 KCAL/MOL
REMARK 924 INTRA-LIGAND FREE ENERGY PREDICTED BY IDOCK:    1.18 KCAL/MOL
REMARK 927      BINDING AFFINITY PREDICTED BY RF-SCORE:    0.00 PKD
ROOT
HETATM    1  C   UNL     1     -10.787   9.401  67.555  1.00  0.00    -0.138 C  
HETATM    2  O   UNL     1     -10.203  10.622  67.997  1.00  0.00    -0.165 OA 
ENDROOT
BRANCH   2   3
HETATM    3  C   UNL     1     -10.411  11.643  67.091  1.00  0.00    -0.220 A  
HETATM    4  N   UNL     1     -11.509  11.611  66.292  1.00  0.00    -0.388 NA 
HETATM    5  C   UNL     1     -11.731  12.634  65.460  1.00  0.00    -0.402 A  
HETATM    6  N   UNL     1     -12.917  12.610  64.754  1.00  0.00    -0.867 NA 
HETATM    7  N   UNL     1     -10.980  13.731  65.329  1.00  0.00    -0.310 NA 
HETATM    8  H2  UNL     1     -13.700  12.519  65.402  1.00  0.00     0.000 HD 
HETATM    9  C   UNL     1      -9.928  13.748  66.162  1.00  0.00    -0.308 A  
HETATM   10  H1  UNL     1     -13.086  13.390  64.119  1.00  0.00     0.000 HD 
HETATM   11  C   UNL     1      -9.571  12.756  67.062  1.00  0.00    -0.229 A  
HETATM   12  N   UNL     1      -8.447  13.126  67.768  1.00  0.00    -0.171 NA 
HETATM   13  C   UNL     1      -8.155  14.332  67.331  1.00  0.00    -0.196 A  
HETATM   14  N   UNL     1      -9.033  14.759  66.365  1.00  0.00    -0.235 NA 
BRANCH  14  15
HETATM   15  C1* UNL     1      -9.061  16.108  65.842  1.00  0.00    -0.233 C  
HETATM   16  O4* UNL     1      -8.106  16.890  66.592  1.00  0.00    -0.208 OA 
HETATM   17  C4* UNL     1      -8.821  17.777  67.486  1.00  0.00    -0.243 C  
HETATM   18  H2* UNL     1     -12.355  16.611  65.680  1.00  0.00     0.000 HD 
HETATM   19  C3* UNL     1     -10.310  17.722  67.124  1.00  0.00    -0.353 C  
HETATM   20  C2* UNL     1     -10.367  16.899  65.843  1.00  0.00    -0.315 C  
HETATM   21  O3* UNL     1     -10.846  19.030  66.886  1.00  0.00    -0.419 OA 
HETATM   22  H3* UNL     1     -11.768  18.996  66.662  1.00  0.00     0.000 HD 
HETATM   23  O2* UNL     1     -11.543  16.119  65.679  1.00  0.00     0.306 OA 
BRANCH  17  24
HETATM   24  C5* UNL     1      -8.542  17.368  68.941  1.00  0.00    -0.151 C  
HETATM   25  O5* UNL     1      -9.206  16.141  69.242  1.00  0.00    -0.255 OA 
HETATM   26  H5* UNL     1      -9.033  15.889  70.141  1.00  0.00     0.000 HD 
ENDBRANCH  17  24
ENDBRANCH  14  15
ENDBRANCH   2   3
TORSDOF 3
ENDMDL
MODEL      177
REMARK 921   NORMALIZED FREE ENERGY PREDICTED BY IDOCK:   -3.46 KCAL/MOL
REMARK 922        TOTAL FREE ENERGY PREDICTED BY IDOCK:   -4.30 KCAL/MOL
REMARK 923 INTER-LIGAND FREE ENERGY PREDICTED BY IDOCK:   -4.97 KCAL/MOL
REMARK 924 INTRA-LIGAND FREE ENERGY PREDICTED BY IDOCK:    0.67 KCAL/MOL
REMARK 927      BINDING AFFINITY PREDICTED BY RF-SCORE:    0.00 PKD
ROOT
HETATM    1  C   UNL     1      -5.856  17.275  66.425  1.00  0.00    -0.187 C  
HETATM    2  O   UNL     1      -6.044  17.621  67.793  1.00  0.00    -0.147 OA 
ENDROOT
BRANCH   2   3
HETATM    3  C   UNL     1      -7.294  17.249  68.246  1.00  0.00    -0.214 A  
HETATM    4  N   UNL     1      -8.202  18.209  68.561  1.00  0.00    -0.308 NA 
HETATM    5  C   UNL     1      -9.428  17.837  68.943  1.00  0.00    -0.183 A  
HETATM    6  N   UNL     1     -10.347  18.847  69.140  1.00  0.00    -0.452 NA 
HETATM    7  N   UNL     1      -9.886  16.585  69.039  1.00  0.00    -0.259 NA 
HETATM    8  H2  UNL     1     -10.410  19.422  68.299  1.00  0.00     0.000 HD 
HETATM    9  C   UNL     1      -8.977  15.665  68.682  1.00  0.00    -0.202 A  
HETATM   10  H1  UNL     1     -11.282  18.563  69.431  1.00  0.00     0.000 HD 
HETATM   11  C   UNL     1      -7.672  15.906  68.282  1.00  0.00    -0.137 A  
HETATM   12  N   UNL     1      -7.037  14.724  67.969  1.00  0.00    -0.123 NA 
HETATM   13  C   UNL     1      -7.951  13.794  68.139  1.00  0.00    -0.150 A  
HETATM   14  N   UNL     1      -9.150  14.317  68.559  1.00  0.00    -0.197 NA 
BRANCH  14  15
HETATM   15  C1* UNL     1     -10.374  13.552  68.650  1.00  0.00    -0.214 C  
HETATM   16  O4* UNL     1     -10.046  12.167  68.401  1.00  0.00    -0.206 OA 
HETATM   17  C4* UNL     1     -10.525  11.799  67.085  1.00  0.00    -0.220 C  
HETATM   18  H2* UNL     1     -12.409  15.473  66.834  1.00  0.00     0.000 HD 
HETATM   19  C3* UNL     1     -11.405  12.939  66.559  1.00  0.00    -0.318 C  
HETATM   20  C2* UNL     1     -11.554  13.890  67.741  1.00  0.00    -0.347 C  
HETATM   21  O3* UNL     1     -12.696  12.468  66.150  1.00  0.00    -0.222 OA 
HETATM   22  H3* UNL     1     -13.241  13.174  65.824  1.00  0.00     0.000 HD 
HETATM   23  O2* UNL     1     -11.674  15.263  67.399  1.00  0.00    -0.268 OA 
BRANCH  17  24
HETATM   24  C5* UNL     1      -9.327  11.497  66.171  1.00  0.00    -0.215 C  
HETATM   25  O5* UNL     1      -9.634  11.854  64.825  1.00  0.00    -0.399 OA 
HETATM   26  H5* UNL     1      -8.893  11.668  64.261  1.00  0.00     0.000 HD 
ENDBRANCH  17  24
ENDBRANCH  14  15
ENDBRANCH   2   3
TORSDOF 3
ENDMDL
MODEL      178
REMARK 921   NORMALIZED FREE ENERGY PREDICTED BY IDOCK:   -3.46 KCAL/MOL
REMARK 922        TOTAL FREE ENERGY PREDICTED BY IDOCK:   -4.29 KCAL/MOL
REMARK 923 INTER-LIGAND FREE ENERGY PREDICTED BY IDOCK:   -5.14 KCAL/MOL
REMARK 924 INTRA-LIGAND FREE ENERGY PREDICTED BY IDOCK:    0.85 KCAL/MOL
REMARK 927      BINDING AFFINITY PREDICTED BY RF-SCORE:    0.00 PKD
ROOT
HETATM    1  C   UNL     1     -10.884  11.592  63.668  1.00  0.00    -0.432 C  
HETATM    2  O   UNL     1     -11.238  11.015  64.920  1.00  0.00    -0.055 OA 
ENDROOT
BRANCH   2   3
HETATM    3  C   UNL     1     -10.632  11.670  65.974  1.00  0.00    -0.258 A  
HETATM    4  N   UNL     1      -9.934  10.952  66.892  1.00  0.00    -0.189 NA 
HETATM    5  C   UNL     1      -9.303  11.602  67.874  1.00  0.00    -0.174 A  
HETATM    6  N   UNL     1      -8.514  10.840  68.712  1.00  0.00    -0.142 NA 
HETATM    7  N   UNL     1      -9.264  12.925  68.057  1.00  0.00    -0.206 NA 
HETATM    8  H2  UNL     1      -7.837  10.313  68.160  1.00  0.00     0.000 HD 
HETATM    9  C   UNL     1      -9.929  13.605  67.110  1.00  0.00    -0.247 A  
HETATM   10  H1  UNL     1      -8.032  11.337  69.462  1.00  0.00     0.000 HD 
HETATM   11  C   UNL     1     -10.636  13.063  66.048  1.00  0.00    -0.279 A  
HETATM   12  N   UNL     1     -11.171  14.061  65.264  1.00  0.00    -0.309 NA 
HETATM   13  C   UNL     1     -10.763  15.182  65.819  1.00  0.00    -0.351 A  
HETATM   14  N   UNL     1      -9.995  14.957  66.935  1.00  0.00    -0.239 NA 
BRANCH  14  15
HETATM   15  C1* UNL     1      -9.266  15.994  67.634  1.00  0.00    -0.205 C  
HETATM   16  O4* UNL     1      -9.067  15.549  68.994  1.00  0.00    -0.200 OA 
HETATM   17  C4* UNL     1      -9.945  16.300  69.868  1.00  0.00     0.065 C  
HETATM   18  H2* UNL     1     -10.975  18.684  66.649  1.00  0.00     0.000 HD 
HETATM   19  C3* UNL     1     -10.570  17.439  69.055  1.00  0.00    -0.207 C  
HETATM   20  C2* UNL     1      -9.841  17.405  67.717  1.00  0.00    -0.283 C  
HETATM   21  O3* UNL     1     -10.371  18.711  69.685  1.00  0.00    -0.268 OA 
HETATM   22  H3* UNL     1     -10.759  19.417  69.182  1.00  0.00     0.000 HD 
HETATM   23  O2* UNL     1     -10.618  17.806  66.597  1.00  0.00    -0.314 OA 
BRANCH  17  24
HETATM   24  C5* UNL     1     -10.991  15.352  70.476  1.00  0.00    -0.323 C  
HETATM   25  O5* UNL     1     -12.126  16.094  70.918  1.00  0.00    -0.524 OA 
HETATM   26  H5* UNL     1     -12.773  15.508  71.293  1.00  0.00     0.000 HD 
ENDBRANCH  17  24
ENDBRANCH  14  15
ENDBRANCH   2   3
TORSDOF 3
ENDMDL
MODEL      179
REMARK 921   NORMALIZED FREE ENERGY PREDICTED BY IDOCK:   -3.45 KCAL/MOL
REMARK 922        TOTAL FREE ENERGY PREDICTED BY IDOCK:   -4.27 KCAL/MOL
REMARK 923 INTER-LIGAND FREE ENERGY PREDICTED BY IDOCK:   -4.61 KCAL/MOL
REMARK 924 INTRA-LIGAND FREE ENERGY PREDICTED BY IDOCK:    0.34 KCAL/MOL
REMARK 927      BINDING AFFINITY PREDICTED BY RF-SCORE:    0.00 PKD
ROOT
HETATM    1  C   UNL     1      -5.438   9.817  67.005  1.00  0.00    -0.046 C  
HETATM    2  O   UNL     1      -6.238  10.318  65.939  1.00  0.00    -0.087 OA 
ENDROOT
BRANCH   2   3
HETATM    3  C   UNL     1      -7.560  10.450  66.313  1.00  0.00    -0.127 A  
HETATM    4  N   UNL     1      -8.404   9.397  66.161  1.00  0.00    -0.114 NA 
HETATM    5  C   UNL     1      -9.668   9.517  66.580  1.00  0.00    -0.222 A  
HETATM    6  N   UNL     1     -10.453   8.384  66.510  1.00  0.00    -0.354 NA 
HETATM    7  N   UNL     1     -10.214  10.587  67.167  1.00  0.00    -0.212 NA 
HETATM    8  H2  UNL     1      -9.997   7.620  67.010  1.00  0.00     0.000 HD 
HETATM    9  C   UNL     1      -9.342  11.592  67.338  1.00  0.00    -0.168 A  
HETATM   10  H1  UNL     1     -11.417   8.476  66.830  1.00  0.00     0.000 HD 
HETATM   11  C   UNL     1      -8.014  11.610  66.942  1.00  0.00    -0.161 A  
HETATM   12  N   UNL     1      -7.418  12.799  67.303  1.00  0.00    -0.132 NA 
HETATM   13  C   UNL     1      -8.356  13.468  67.938  1.00  0.00    -0.175 A  
HETATM   14  N   UNL     1      -9.538  12.772  67.997  1.00  0.00    -0.211 NA 
BRANCH  14  15
HETATM   15  C1* UNL     1     -10.677  13.185  68.788  1.00  0.00    -0.225 C  
HETATM   16  O4* UNL     1     -11.860  13.017  67.975  1.00  0.00    -0.344 OA 
HETATM   17  C4* UNL     1     -12.334  14.320  67.558  1.00  0.00    -0.049 C  
HETATM   18  H2* UNL     1      -9.517  16.048  70.046  1.00  0.00     0.000 HD 
HETATM   19  C3* UNL     1     -11.549  15.385  68.333  1.00  0.00    -0.354 C  
HETATM   20  C2* UNL     1     -10.737  14.600  69.357  1.00  0.00    -0.222 C  
HETATM   21  O3* UNL     1     -12.421  16.303  69.004  1.00  0.00    -0.200 OA 
HETATM   22  H3* UNL     1     -11.934  16.964  69.483  1.00  0.00     0.000 HD 
HETATM   23  O2* UNL     1      -9.479  15.167  69.692  1.00  0.00    -0.193 OA 
BRANCH  17  24
HETATM   24  C5* UNL     1     -12.184  14.454  66.034  1.00  0.00    -0.336 C  
HETATM   25  O5* UNL     1     -13.199  13.698  65.374  1.00  0.00    -0.678 OA 
HETATM   26  H5* UNL     1     -13.107  13.781  64.433  1.00  0.00     0.000 HD 
ENDBRANCH  17  24
ENDBRANCH  14  15
ENDBRANCH   2   3
TORSDOF 3
ENDMDL
MODEL      180
REMARK 921   NORMALIZED FREE ENERGY PREDICTED BY IDOCK:   -3.41 KCAL/MOL
REMARK 922        TOTAL FREE ENERGY PREDICTED BY IDOCK:   -4.24 KCAL/MOL
REMARK 923 INTER-LIGAND FREE ENERGY PREDICTED BY IDOCK:   -4.10 KCAL/MOL
REMARK 924 INTRA-LIGAND FREE ENERGY PREDICTED BY IDOCK:   -0.14 KCAL/MOL
REMARK 927      BINDING AFFINITY PREDICTED BY RF-SCORE:    0.00 PKD
ROOT
HETATM    1  C   UNL     1      -9.412   7.792  73.429  1.00  0.00    -0.287 C  
HETATM    2  O   UNL     1      -9.497   7.213  72.131  1.00  0.00    -0.137 OA 
ENDROOT
BRANCH   2   3
HETATM    3  C   UNL     1     -10.014   8.102  71.210  1.00  0.00    -0.181 A  
HETATM    4  N   UNL     1     -10.973   8.983  71.598  1.00  0.00    -0.342 NA 
HETATM    5  C   UNL     1     -11.424   9.877  70.713  1.00  0.00    -0.354 A  
HETATM    6  N   UNL     1     -12.311  10.822  71.187  1.00  0.00    -0.382 NA 
HETATM    7  N   UNL     1     -11.015  10.023  69.449  1.00  0.00    -0.238 NA 
HETATM    8  H2  UNL     1     -11.901  11.307  71.985  1.00  0.00     0.000 HD 
HETATM    9  C   UNL     1     -10.039   9.165  69.112  1.00  0.00    -0.194 A  
HETATM   10  H1  UNL     1     -12.655  11.504  70.511  1.00  0.00     0.000 HD 
HETATM   11  C   UNL     1      -9.489   8.182  69.919  1.00  0.00    -0.160 A  
HETATM   12  N   UNL     1      -8.494   7.506  69.248  1.00  0.00    -0.135 NA 
HETATM   13  C   UNL     1      -8.418   8.095  68.074  1.00  0.00    -0.133 A  
HETATM   14  N   UNL     1      -9.327   9.117  67.948  1.00  0.00    -0.137 NA 
BRANCH  14  15
HETATM   15  C1* UNL     1      -9.344  10.049  66.841  1.00  0.00    -0.159 C  
HETATM   16  O4* UNL     1      -9.785   9.330  65.669  1.00  0.00    -0.284 OA 
HETATM   17  C4* UNL     1      -8.650   9.115  64.794  1.00  0.00    -0.184 C  
HETATM   18  H2* UNL     1      -6.386  11.532  67.272  1.00  0.00     0.000 HD 
HETATM   19  C3* UNL     1      -7.472   9.938  65.327  1.00  0.00    -0.131 C  
HETATM   20  C2* UNL     1      -8.066  10.785  66.446  1.00  0.00    -0.153 C  
HETATM   21  O3* UNL     1      -6.919  10.788  64.314  1.00  0.00    -0.343 OA 
HETATM   22  H3* UNL     1      -6.188  11.297  64.645  1.00  0.00     0.000 HD 
HETATM   23  O2* UNL     1      -7.181  11.073  67.518  1.00  0.00    -0.090 OA 
BRANCH  17  24
HETATM   24  C5* UNL     1      -8.345   7.610  64.716  1.00  0.00    -0.027 C  
HETATM   25  O5* UNL     1      -6.978   7.370  65.046  1.00  0.00    -0.049 OA 
HETATM   26  H5* UNL     1      -6.790   6.440  64.998  1.00  0.00     0.000 HD 
ENDBRANCH  17  24
ENDBRANCH  14  15
ENDBRANCH   2   3
TORSDOF 3
ENDMDL
MODEL      181
REMARK 921   NORMALIZED FREE ENERGY PREDICTED BY IDOCK:   -3.34 KCAL/MOL
REMARK 922        TOTAL FREE ENERGY PREDICTED BY IDOCK:   -4.16 KCAL/MOL
REMARK 923 INTER-LIGAND FREE ENERGY PREDICTED BY IDOCK:   -4.14 KCAL/MOL
REMARK 924 INTRA-LIGAND FREE ENERGY PREDICTED BY IDOCK:   -0.02 KCAL/MOL
REMARK 927      BINDING AFFINITY PREDICTED BY RF-SCORE:    0.00 PKD
ROOT
HETATM    1  C   UNL     1      -8.508   5.287  65.030  1.00  0.00    -0.150 C  
HETATM    2  O   UNL     1      -7.844   5.464  66.277  1.00  0.00    -0.098 OA 
ENDROOT
BRANCH   2   3
HETATM    3  C   UNL     1      -8.528   4.855  67.309  1.00  0.00    -0.105 A  
HETATM    4  N   UNL     1      -8.275   3.552  67.599  1.00  0.00    -0.084 NA 
HETATM    5  C   UNL     1      -8.901   2.989  68.638  1.00  0.00    -0.119 A  
HETATM    6  N   UNL     1      -8.525   1.701  68.962  1.00  0.00    -0.052 NA 
HETATM    7  N   UNL     1      -9.766   3.584  69.464  1.00  0.00    -0.099 NA 
HETATM    8  H2  UNL     1      -7.516   1.666  69.109  1.00  0.00     0.000 HD 
HETATM    9  C   UNL     1      -9.961   4.880  69.173  1.00  0.00    -0.182 A  
HETATM   10  H1  UNL     1      -9.002   1.272  69.754  1.00  0.00     0.000 HD 
HETATM   11  C   UNL     1      -9.393   5.585  68.124  1.00  0.00    -0.111 A  
HETATM   12  N   UNL     1      -9.803   6.900  68.149  1.00  0.00    -0.134 NA 
HETATM   13  C   UNL     1     -10.571   6.996  69.212  1.00  0.00    -0.224 A  
HETATM   14  N   UNL     1     -10.687   5.798  69.875  1.00  0.00    -0.322 NA 
BRANCH  14  15
HETATM   15  C1* UNL     1     -11.317   5.652  71.170  1.00  0.00     0.038 C  
HETATM   16  O4* UNL     1     -12.374   6.633  71.257  1.00  0.00    -0.352 OA 
HETATM   17  C4* UNL     1     -11.961   7.691  72.156  1.00  0.00    -0.302 C  
HETATM   18  H2* UNL     1      -8.620   5.454  73.122  1.00  0.00     0.000 HD 
HETATM   19  C3* UNL     1     -10.671   7.249  72.856  1.00  0.00    -0.322 C  
HETATM   20  C2* UNL     1     -10.486   5.793  72.442  1.00  0.00    -0.211 C  
HETATM   21  O3* UNL     1     -10.784   7.339  74.282  1.00  0.00    -0.519 OA 
HETATM   22  H3* UNL     1      -9.985   7.065  74.715  1.00  0.00     0.000 HD 
HETATM   23  O2* UNL     1      -9.137   5.366  72.330  1.00  0.00    -0.137 OA 
BRANCH  17  24
HETATM   24  C5* UNL     1     -11.797   8.998  71.364  1.00  0.00    -0.325 C  
HETATM   25  O5* UNL     1     -10.441   9.439  71.422  1.00  0.00    -0.333 OA 
HETATM   26  H5* UNL     1     -10.339  10.247  70.933  1.00  0.00     0.000 HD 
ENDBRANCH  17  24
ENDBRANCH  14  15
ENDBRANCH   2   3
TORSDOF 3
ENDMDL
MODEL      182
REMARK 921   NORMALIZED FREE ENERGY PREDICTED BY IDOCK:   -3.29 KCAL/MOL
REMARK 922        TOTAL FREE ENERGY PREDICTED BY IDOCK:   -4.10 KCAL/MOL
REMARK 923 INTER-LIGAND FREE ENERGY PREDICTED BY IDOCK:   -4.35 KCAL/MOL
REMARK 924 INTRA-LIGAND FREE ENERGY PREDICTED BY IDOCK:    0.25 KCAL/MOL
REMARK 927      BINDING AFFINITY PREDICTED BY RF-SCORE:    0.00 PKD
ROOT
HETATM    1  C   UNL     1      -5.567   9.640  64.126  1.00  0.00    -0.076 C  
HETATM    2  O   UNL     1      -6.785   9.061  64.581  1.00  0.00    -0.076 OA 
ENDROOT
BRANCH   2   3
HETATM    3  C   UNL     1      -7.385   9.836  65.554  1.00  0.00    -0.112 A  
HETATM    4  N   UNL     1      -6.822  11.023  65.901  1.00  0.00    -0.029 NA 
HETATM    5  C   UNL     1      -7.443  11.791  66.802  1.00  0.00    -0.057 A  
HETATM    6  N   UNL     1      -6.894  13.036  67.036  1.00  0.00    -0.427 NA 
HETATM    7  N   UNL     1      -8.602  11.526  67.412  1.00  0.00    -0.141 NA 
HETATM    8  H2  UNL     1      -6.807  13.542  66.155  1.00  0.00     0.000 HD 
HETATM    9  C   UNL     1      -9.150  10.367  67.014  1.00  0.00    -0.139 A  
HETATM   10  H1  UNL     1      -7.367  13.622  67.723  1.00  0.00     0.000 HD 
HETATM   11  C   UNL     1      -8.613   9.470  66.104  1.00  0.00    -0.131 A  
HETATM   12  N   UNL     1      -9.463   8.400  65.923  1.00  0.00    -0.153 NA 
HETATM   13  C   UNL     1     -10.507   8.666  66.677  1.00  0.00    -0.169 A  
HETATM   14  N   UNL     1     -10.370   9.856  67.350  1.00  0.00    -0.229 NA 
BRANCH  14  15
HETATM   15  C1* UNL     1     -11.435  10.482  68.103  1.00  0.00    -0.179 C  
HETATM   16  O4* UNL     1     -12.033  11.493  67.262  1.00  0.00    -0.605 OA 
HETATM   17  C4* UNL     1     -11.630  12.800  67.739  1.00  0.00    -0.353 C  
HETATM   18  H2* UNL     1      -9.886  10.977  71.016  1.00  0.00     0.000 HD 
HETATM   19  C3* UNL     1     -10.927  12.622  69.089  1.00  0.00    -0.142 C  
HETATM   20  C2* UNL     1     -11.130  11.152  69.441  1.00  0.00    -0.255 C  
HETATM   21  O3* UNL     1     -11.511  13.449  70.104  1.00  0.00    -0.500 OA 
HETATM   22  H3* UNL     1     -11.074  13.339  70.940  1.00  0.00     0.000 HD 
HETATM   23  O2* UNL     1     -10.076  10.559  70.184  1.00  0.00    -0.063 OA 
BRANCH  17  24
HETATM   24  C5* UNL     1     -10.740  13.476  66.683  1.00  0.00    -0.282 C  
HETATM   25  O5* UNL     1      -9.663  14.162  67.318  1.00  0.00    -0.227 OA 
HETATM   26  H5* UNL     1      -9.113  14.580  66.666  1.00  0.00     0.000 HD 
ENDBRANCH  17  24
ENDBRANCH  14  15
ENDBRANCH   2   3
TORSDOF 3
ENDMDL
MODEL      183
REMARK 921   NORMALIZED FREE ENERGY PREDICTED BY IDOCK:   -3.29 KCAL/MOL
REMARK 922        TOTAL FREE ENERGY PREDICTED BY IDOCK:   -4.09 KCAL/MOL
REMARK 923 INTER-LIGAND FREE ENERGY PREDICTED BY IDOCK:   -4.60 KCAL/MOL
REMARK 924 INTRA-LIGAND FREE ENERGY PREDICTED BY IDOCK:    0.51 KCAL/MOL
REMARK 927      BINDING AFFINITY PREDICTED BY RF-SCORE:    0.00 PKD
ROOT
HETATM    1  C   UNL     1     -14.318   8.956  72.099  1.00  0.00    -0.332 C  
HETATM    2  O   UNL     1     -13.390  10.020  72.280  1.00  0.00    -0.429 OA 
ENDROOT
BRANCH   2   3
HETATM    3  C   UNL     1     -12.387   9.989  71.332  1.00  0.00    -0.415 A  
HETATM    4  N   UNL     1     -12.493  10.770  70.225  1.00  0.00    -0.330 NA 
HETATM    5  C   UNL     1     -11.489  10.775  69.342  1.00  0.00    -0.295 A  
HETATM    6  N   UNL     1     -11.592  11.669  68.295  1.00  0.00    -0.338 NA 
HETATM    7  N   UNL     1     -10.345  10.089  69.432  1.00  0.00    -0.211 NA 
HETATM    8  H2  UNL     1     -11.731  12.611  68.662  1.00  0.00     0.000 HD 
HETATM    9  C   UNL     1     -10.258   9.362  70.556  1.00  0.00    -0.271 A  
HETATM   10  H1  UNL     1     -10.826  11.673  67.622  1.00  0.00     0.000 HD 
HETATM   11  C   UNL     1     -11.222   9.252  71.545  1.00  0.00    -0.386 A  
HETATM   12  N   UNL     1     -10.778   8.437  72.564  1.00  0.00    -0.338 NA 
HETATM   13  C   UNL     1      -9.558   8.094  72.215  1.00  0.00    -0.251 A  
HETATM   14  N   UNL     1      -9.191   8.641  71.010  1.00  0.00    -0.183 NA 
BRANCH  14  15
HETATM   15  C1* UNL     1      -7.848   8.582  70.473  1.00  0.00    -0.086 C  
HETATM   16  O4* UNL     1      -7.904   9.026  69.100  1.00  0.00    -0.089 OA 
HETATM   17  C4* UNL     1      -7.745   7.881  68.228  1.00  0.00    -0.121 C  
HETATM   18  H2* UNL     1      -6.912   5.568  71.554  1.00  0.00     0.000 HD 
HETATM   19  C3* UNL     1      -7.338   6.678  69.086  1.00  0.00    -0.093 C  
HETATM   20  C2* UNL     1      -7.086   7.259  70.473  1.00  0.00    -0.062 C  
HETATM   21  O3* UNL     1      -6.144   6.056  68.595  1.00  0.00    -0.022 OA 
HETATM   22  H3* UNL     1      -5.892   5.310  69.127  1.00  0.00     0.000 HD 
HETATM   23  O2* UNL     1      -7.387   6.391  71.554  1.00  0.00    -0.084 OA 
BRANCH  17  24
HETATM   24  C5* UNL     1      -9.050   7.648  67.449  1.00  0.00    -0.126 C  
HETATM   25  O5* UNL     1      -8.795   6.849  66.295  1.00  0.00    -0.140 OA 
HETATM   26  H5* UNL     1      -9.602   6.705  65.813  1.00  0.00     0.000 HD 
ENDBRANCH  17  24
ENDBRANCH  14  15
ENDBRANCH   2   3
TORSDOF 3
ENDMDL
MODEL      184
REMARK 921   NORMALIZED FREE ENERGY PREDICTED BY IDOCK:   -3.28 KCAL/MOL
REMARK 922        TOTAL FREE ENERGY PREDICTED BY IDOCK:   -4.08 KCAL/MOL
REMARK 923 INTER-LIGAND FREE ENERGY PREDICTED BY IDOCK:   -4.23 KCAL/MOL
REMARK 924 INTRA-LIGAND FREE ENERGY PREDICTED BY IDOCK:    0.16 KCAL/MOL
REMARK 927      BINDING AFFINITY PREDICTED BY RF-SCORE:    0.00 PKD
ROOT
HETATM    1  C   UNL     1      -8.416   8.862  69.759  1.00  0.00    -0.131 C  
HETATM    2  O   UNL     1      -9.157   9.183  68.586  1.00  0.00    -0.136 OA 
ENDROOT
BRANCH   2   3
HETATM    3  C   UNL     1      -9.608  10.487  68.608  1.00  0.00    -0.171 A  
HETATM    4  N   UNL     1     -10.857  10.752  69.072  1.00  0.00    -0.218 NA 
HETATM    5  C   UNL     1     -11.262  12.025  69.143  1.00  0.00    -0.246 A  
HETATM    6  N   UNL     1     -12.492  12.250  69.727  1.00  0.00     0.026 NA 
HETATM    7  N   UNL     1     -10.549  13.106  68.815  1.00  0.00    -0.234 NA 
HETATM    8  H2  UNL     1     -12.511  11.831  70.657  1.00  0.00     0.000 HD 
HETATM    9  C   UNL     1      -9.307  12.810  68.401  1.00  0.00    -0.143 A  
HETATM   10  H1  UNL     1     -12.800  13.220  69.781  1.00  0.00     0.000 HD 
HETATM   11  C   UNL     1      -8.763  11.543  68.265  1.00  0.00    -0.162 A  
HETATM   12  N   UNL     1      -7.455  11.622  67.838  1.00  0.00    -0.099 NA 
HETATM   13  C   UNL     1      -7.204  12.911  67.756  1.00  0.00    -0.134 A  
HETATM   14  N   UNL     1      -8.293  13.673  68.101  1.00  0.00    -0.158 NA 
BRANCH  14  15
HETATM   15  C1* UNL     1      -8.249  15.109  68.276  1.00  0.00    -0.144 C  
HETATM   16  O4* UNL     1      -9.596  15.610  68.136  1.00  0.00    -0.195 OA 
HETATM   17  C4* UNL     1      -9.716  16.291  66.864  1.00  0.00    -0.238 C  
HETATM   18  H2* UNL     1      -5.635  15.860  66.343  1.00  0.00     0.000 HD 
HETATM   19  C3* UNL     1      -8.313  16.431  66.261  1.00  0.00    -0.327 C  
HETATM   20  C2* UNL     1      -7.370  15.961  67.363  1.00  0.00    -0.193 C  
HETATM   21  O3* UNL     1      -8.017  17.790  65.915  1.00  0.00    -0.523 OA 
HETATM   22  H3* UNL     1      -7.148  17.876  65.542  1.00  0.00     0.000 HD 
HETATM   23  O2* UNL     1      -6.182  15.329  66.911  1.00  0.00    -0.118 OA 
BRANCH  17  24
HETATM   24  C5* UNL     1     -10.683  15.512  65.958  1.00  0.00    -0.326 C  
HETATM   25  O5* UNL     1     -11.659  14.836  66.749  1.00  0.00    -0.364 OA 
HETATM   26  H5* UNL     1     -12.257  14.355  66.189  1.00  0.00     0.000 HD 
ENDBRANCH  17  24
ENDBRANCH  14  15
ENDBRANCH   2   3
TORSDOF 3
ENDMDL
MODEL      185
REMARK 921   NORMALIZED FREE ENERGY PREDICTED BY IDOCK:   -3.27 KCAL/MOL
REMARK 922        TOTAL FREE ENERGY PREDICTED BY IDOCK:   -4.07 KCAL/MOL
REMARK 923 INTER-LIGAND FREE ENERGY PREDICTED BY IDOCK:   -4.48 KCAL/MOL
REMARK 924 INTRA-LIGAND FREE ENERGY PREDICTED BY IDOCK:    0.41 KCAL/MOL
REMARK 927      BINDING AFFINITY PREDICTED BY RF-SCORE:    0.00 PKD
ROOT
HETATM    1  C   UNL     1     -12.222  13.880  65.380  1.00  0.00    -0.444 C  
HETATM    2  O   UNL     1     -12.187  12.474  65.604  1.00  0.00    -0.554 OA 
ENDROOT
BRANCH   2   3
HETATM    3  C   UNL     1     -11.563  12.164  66.795  1.00  0.00    -0.345 A  
HETATM    4  N   UNL     1     -11.897  12.847  67.921  1.00  0.00    -0.353 NA 
HETATM    5  C   UNL     1     -11.328  12.499  69.080  1.00  0.00    -0.290 A  
HETATM    6  N   UNL     1     -11.785  13.145  70.211  1.00  0.00    -0.541 NA 
HETATM    7  N   UNL     1     -10.449  11.511  69.270  1.00  0.00    -0.099 NA 
HETATM    8  H2  UNL     1     -12.797  13.039  70.280  1.00  0.00     0.000 HD 
HETATM    9  C   UNL     1     -10.174  10.831  68.146  1.00  0.00    -0.172 A  
HETATM   10  H1  UNL     1     -11.351  12.879  71.094  1.00  0.00     0.000 HD 
HETATM   11  C   UNL     1     -10.676  11.090  66.881  1.00  0.00    -0.274 A  
HETATM   12  N   UNL     1     -10.192  10.174  65.972  1.00  0.00    -0.243 NA 
HETATM   13  C   UNL     1      -9.445   9.357  66.682  1.00  0.00    -0.177 A  
HETATM   14  N   UNL     1      -9.412   9.706  68.010  1.00  0.00    -0.132 NA 
BRANCH  14  15
HETATM   15  C1* UNL     1      -8.821   8.885  69.044  1.00  0.00    -0.136 C  
HETATM   16  O4* UNL     1      -8.457   9.754  70.139  1.00  0.00    -0.189 OA 
HETATM   17  C4* UNL     1      -7.017   9.906  70.161  1.00  0.00    -0.138 C  
HETATM   18  H2* UNL     1      -6.752   7.019  67.210  1.00  0.00     0.000 HD 
HETATM   19  C3* UNL     1      -6.415   8.901  69.172  1.00  0.00    -0.043 C  
HETATM   20  C2* UNL     1      -7.591   8.036  68.734  1.00  0.00    -0.103 C  
HETATM   21  O3* UNL     1      -5.414   8.082  69.791  1.00  0.00    -0.023 OA 
HETATM   22  H3* UNL     1      -5.041   7.460  69.179  1.00  0.00     0.000 HD 
HETATM   23  O2* UNL     1      -7.517   7.548  67.403  1.00  0.00    -0.098 OA 
BRANCH  17  24
HETATM   24  C5* UNL     1      -6.652  11.362  69.833  1.00  0.00    -0.081 C  
HETATM   25  O5* UNL     1      -5.340  11.425  69.276  1.00  0.00    -0.044 OA 
HETATM   26  H5* UNL     1      -5.115  12.326  69.073  1.00  0.00     0.000 HD 
ENDBRANCH  17  24
ENDBRANCH  14  15
ENDBRANCH   2   3
TORSDOF 3
ENDMDL
MODEL      186
REMARK 921   NORMALIZED FREE ENERGY PREDICTED BY IDOCK:   -3.26 KCAL/MOL
REMARK 922        TOTAL FREE ENERGY PREDICTED BY IDOCK:   -4.06 KCAL/MOL
REMARK 923 INTER-LIGAND FREE ENERGY PREDICTED BY IDOCK:   -4.25 KCAL/MOL
REMARK 924 INTRA-LIGAND FREE ENERGY PREDICTED BY IDOCK:    0.19 KCAL/MOL
REMARK 927      BINDING AFFINITY PREDICTED BY RF-SCORE:    0.00 PKD
ROOT
HETATM    1  C   UNL     1     -10.479  12.721  64.687  1.00  0.00    -0.350 C  
HETATM    2  O   UNL     1      -9.716  12.422  65.851  1.00  0.00    -0.252 OA 
ENDROOT
BRANCH   2   3
HETATM    3  C   UNL     1      -9.381  11.084  65.911  1.00  0.00    -0.204 A  
HETATM    4  N   UNL     1      -8.973  10.448  64.782  1.00  0.00    -0.189 NA 
HETATM    5  C   UNL     1      -8.595   9.168  64.863  1.00  0.00    -0.184 A  
HETATM    6  N   UNL     1      -8.081   8.602  63.715  1.00  0.00    -0.161 NA 
HETATM    7  N   UNL     1      -8.556   8.418  65.969  1.00  0.00    -0.137 NA 
HETATM    8  H2  UNL     1      -7.304   9.167  63.372  1.00  0.00     0.000 HD 
HETATM    9  C   UNL     1      -8.925   9.089  67.070  1.00  0.00    -0.126 A  
HETATM   10  H1  UNL     1      -7.793   7.625  63.777  1.00  0.00     0.000 HD 
HETATM   11  C   UNL     1      -9.351  10.407  67.131  1.00  0.00    -0.157 A  
HETATM   12  N   UNL     1      -9.627  10.766  68.432  1.00  0.00    -0.169 NA 
HETATM   13  C   UNL     1      -9.335   9.701  69.146  1.00  0.00    -0.172 A  
HETATM   14  N   UNL     1      -8.893   8.660  68.366  1.00  0.00    -0.142 NA 
BRANCH  14  15
HETATM   15  C1* UNL     1      -8.333   7.437  68.898  1.00  0.00    -0.129 C  
HETATM   16  O4* UNL     1      -8.425   6.428  67.868  1.00  0.00    -0.118 OA 
HETATM   17  C4* UNL     1      -9.471   5.490  68.219  1.00  0.00    -0.115 C  
HETATM   18  H2* UNL     1      -9.804   7.365  71.891  1.00  0.00     0.000 HD 
HETATM   19  C3* UNL     1      -9.914   5.784  69.657  1.00  0.00    -0.189 C  
HETATM   20  C2* UNL     1      -8.918   6.819  70.166  1.00  0.00    -0.149 C  
HETATM   21  O3* UNL     1      -9.858   4.610  70.479  1.00  0.00    -0.199 OA 
HETATM   22  H3* UNL     1     -10.133   4.792  71.370  1.00  0.00     0.000 HD 
HETATM   23  O2* UNL     1      -9.441   7.749  71.102  1.00  0.00    -0.153 OA 
BRANCH  17  24
HETATM   24  C5* UNL     1     -10.619   5.602  67.203  1.00  0.00    -0.270 C  
HETATM   25  O5* UNL     1     -11.424   6.743  67.497  1.00  0.00    -0.690 OA 
HETATM   26  H5* UNL     1     -12.133   6.812  66.869  1.00  0.00     0.000 HD 
ENDBRANCH  17  24
ENDBRANCH  14  15
ENDBRANCH   2   3
TORSDOF 3
ENDMDL
MODEL      187
REMARK 921   NORMALIZED FREE ENERGY PREDICTED BY IDOCK:   -3.25 KCAL/MOL
REMARK 922        TOTAL FREE ENERGY PREDICTED BY IDOCK:   -4.05 KCAL/MOL
REMARK 923 INTER-LIGAND FREE ENERGY PREDICTED BY IDOCK:   -4.13 KCAL/MOL
REMARK 924 INTRA-LIGAND FREE ENERGY PREDICTED BY IDOCK:    0.08 KCAL/MOL
REMARK 927      BINDING AFFINITY PREDICTED BY RF-SCORE:    0.00 PKD
ROOT
HETATM    1  C   UNL     1      -9.366  13.380  67.481  1.00  0.00    -0.218 C  
HETATM    2  O   UNL     1      -9.262  12.137  66.794  1.00  0.00    -0.196 OA 
ENDROOT
BRANCH   2   3
HETATM    3  C   UNL     1      -8.906  11.111  67.647  1.00  0.00    -0.136 A  
HETATM    4  N   UNL     1      -8.039  11.361  68.663  1.00  0.00    -0.147 NA 
HETATM    5  C   UNL     1      -7.746  10.375  69.517  1.00  0.00    -0.156 A  
HETATM    6  N   UNL     1      -6.954  10.708  70.597  1.00  0.00    -0.438 NA 
HETATM    7  N   UNL     1      -8.237   9.132  69.497  1.00  0.00    -0.114 NA 
HETATM    8  H2  UNL     1      -7.375  11.487  71.103  1.00  0.00     0.000 HD 
HETATM    9  C   UNL     1      -9.120   8.933  68.506  1.00  0.00    -0.137 A  
HETATM   10  H1  UNL     1      -6.731   9.956  71.248  1.00  0.00     0.000 HD 
HETATM   11  C   UNL     1      -9.504   9.855  67.546  1.00  0.00    -0.151 A  
HETATM   12  N   UNL     1     -10.447   9.309  66.702  1.00  0.00    -0.210 NA 
HETATM   13  C   UNL     1     -10.655   8.097  67.167  1.00  0.00    -0.285 A  
HETATM   14  N   UNL     1      -9.882   7.826  68.270  1.00  0.00    -0.162 NA 
BRANCH  14  15
HETATM   15  C1* UNL     1     -10.037   6.644  69.091  1.00  0.00    -0.169 C  
HETATM   16  O4* UNL     1     -10.973   6.961  70.144  1.00  0.00    -0.252 OA 
HETATM   17  C4* UNL     1     -10.251   7.099  71.391  1.00  0.00    -0.192 C  
HETATM   18  H2* UNL     1      -6.841   5.764  69.468  1.00  0.00     0.000 HD 
HETATM   19  C3* UNL     1      -8.812   6.621  71.166  1.00  0.00    -0.137 C  
HETATM   20  C2* UNL     1      -8.818   6.020  69.766  1.00  0.00    -0.134 C  
HETATM   21  O3* UNL     1      -8.429   5.624  72.122  1.00  0.00    -0.124 OA 
HETATM   22  H3* UNL     1      -7.537   5.328  71.982  1.00  0.00     0.000 HD 
HETATM   23  O2* UNL     1      -7.599   6.153  69.048  1.00  0.00    -0.088 OA 
BRANCH  17  24
HETATM   24  C5* UNL     1     -10.331   8.558  71.868  1.00  0.00    -0.308 C  
HETATM   25  O5* UNL     1      -9.084   8.958  72.435  1.00  0.00    -0.372 OA 
HETATM   26  H5* UNL     1      -9.134   9.859  72.730  1.00  0.00     0.000 HD 
ENDBRANCH  17  24
ENDBRANCH  14  15
ENDBRANCH   2   3
TORSDOF 3
ENDMDL
MODEL      188
REMARK 921   NORMALIZED FREE ENERGY PREDICTED BY IDOCK:   -3.24 KCAL/MOL
REMARK 922        TOTAL FREE ENERGY PREDICTED BY IDOCK:   -4.04 KCAL/MOL
REMARK 923 INTER-LIGAND FREE ENERGY PREDICTED BY IDOCK:   -3.97 KCAL/MOL
REMARK 924 INTRA-LIGAND FREE ENERGY PREDICTED BY IDOCK:   -0.06 KCAL/MOL
REMARK 927      BINDING AFFINITY PREDICTED BY RF-SCORE:    0.00 PKD
ROOT
HETATM    1  C   UNL     1      -6.450   7.481  73.600  1.00  0.00    -0.073 C  
HETATM    2  O   UNL     1      -6.773   6.306  72.864  1.00  0.00    -0.064 OA 
ENDROOT
BRANCH   2   3
HETATM    3  C   UNL     1      -8.032   6.387  72.303  1.00  0.00    -0.103 A  
HETATM    4  N   UNL     1      -9.113   6.011  73.036  1.00  0.00    -0.131 NA 
HETATM    5  C   UNL     1     -10.332   6.148  72.504  1.00  0.00    -0.193 A  
HETATM    6  N   UNL     1     -11.401   5.862  73.329  1.00  0.00    -0.476 NA 
HETATM    7  N   UNL     1     -10.623   6.643  71.298  1.00  0.00    -0.220 NA 
HETATM    8  H2  UNL     1     -11.335   6.419  74.181  1.00  0.00     0.000 HD 
HETATM    9  C   UNL     1      -9.536   7.041  70.619  1.00  0.00    -0.165 A  
HETATM   10  H1  UNL     1     -12.331   5.967  72.922  1.00  0.00     0.000 HD 
HETATM   11  C   UNL     1      -8.219   6.947  71.040  1.00  0.00    -0.118 A  
HETATM   12  N   UNL     1      -7.370   7.477  70.092  1.00  0.00    -0.076 NA 
HETATM   13  C   UNL     1      -8.161   7.917  69.138  1.00  0.00    -0.132 A  
HETATM   14  N   UNL     1      -9.487   7.688  69.417  1.00  0.00    -0.153 NA 
BRANCH  14  15
HETATM   15  C1* UNL     1     -10.579   8.226  68.635  1.00  0.00    -0.108 C  
HETATM   16  O4* UNL     1     -10.437   7.733  67.285  1.00  0.00    -0.272 OA 
HETATM   17  C4* UNL     1      -9.982   8.813  66.435  1.00  0.00    -0.275 C  
HETATM   18  H2* UNL     1     -10.490  11.415  69.610  1.00  0.00     0.000 HD 
HETATM   19  C3* UNL     1     -10.058  10.118  67.236  1.00  0.00    -0.206 C  
HETATM   20  C2* UNL     1     -10.769   9.737  68.530  1.00  0.00    -0.215 C  
HETATM   21  O3* UNL     1     -10.812  11.122  66.545  1.00  0.00    -0.274 OA 
HETATM   22  H3* UNL     1     -10.858  11.930  67.042  1.00  0.00     0.000 HD 
HETATM   23  O2* UNL     1     -10.372  10.475  69.676  1.00  0.00    -0.231 OA 
BRANCH  17  24
HETATM   24  C5* UNL     1      -8.565   8.502  65.928  1.00  0.00    -0.163 C  
HETATM   25  O5* UNL     1      -8.581   7.326  65.119  1.00  0.00    -0.321 OA 
HETATM   26  H5* UNL     1      -7.705   7.134  64.806  1.00  0.00     0.000 HD 
ENDBRANCH  17  24
ENDBRANCH  14  15
ENDBRANCH   2   3
TORSDOF 3
ENDMDL
MODEL      189
REMARK 921   NORMALIZED FREE ENERGY PREDICTED BY IDOCK:   -3.24 KCAL/MOL
REMARK 922        TOTAL FREE ENERGY PREDICTED BY IDOCK:   -4.03 KCAL/MOL
REMARK 923 INTER-LIGAND FREE ENERGY PREDICTED BY IDOCK:   -4.12 KCAL/MOL
REMARK 924 INTRA-LIGAND FREE ENERGY PREDICTED BY IDOCK:    0.09 KCAL/MOL
REMARK 927      BINDING AFFINITY PREDICTED BY RF-SCORE:    0.00 PKD
ROOT
HETATM    1  C   UNL     1     -10.392  12.712  68.292  1.00  0.00    -0.241 C  
HETATM    2  O   UNL     1     -11.393  11.705  68.193  1.00  0.00    -0.244 OA 
ENDROOT
BRANCH   2   3
HETATM    3  C   UNL     1     -11.124  10.635  69.023  1.00  0.00    -0.254 A  
HETATM    4  N   UNL     1     -11.826  10.495  70.178  1.00  0.00    -0.296 NA 
HETATM    5  C   UNL     1     -11.597   9.424  70.945  1.00  0.00    -0.312 A  
HETATM    6  N   UNL     1     -12.414   9.267  72.046  1.00  0.00    -0.378 NA 
HETATM    7  N   UNL     1     -10.738   8.432  70.692  1.00  0.00    -0.215 NA 
HETATM    8  H2  UNL     1     -13.391   9.275  71.751  1.00  0.00     0.000 HD 
HETATM    9  C   UNL     1     -10.093   8.582  69.525  1.00  0.00    -0.200 A  
HETATM   10  H1  UNL     1     -12.239   8.450  72.631  1.00  0.00     0.000 HD 
HETATM   11  C   UNL     1     -10.221   9.642  68.642  1.00  0.00    -0.189 A  
HETATM   12  N   UNL     1      -9.422   9.449  67.536  1.00  0.00    -0.127 NA 
HETATM   13  C   UNL     1      -8.854   8.278  67.730  1.00  0.00    -0.137 A  
HETATM   14  N   UNL     1      -9.240   7.706  68.918  1.00  0.00    -0.140 NA 
BRANCH  14  15
HETATM   15  C1* UNL     1      -8.917   6.349  69.300  1.00  0.00    -0.133 C  
HETATM   16  O4* UNL     1      -7.776   5.932  68.519  1.00  0.00    -0.091 OA 
HETATM   17  C4* UNL     1      -8.214   4.991  67.509  1.00  0.00    -0.106 C  
HETATM   18  H2* UNL     1     -11.960   4.983  69.263  1.00  0.00     0.000 HD 
HETATM   19  C3* UNL     1      -9.670   4.613  67.808  1.00  0.00    -0.155 C  
HETATM   20  C2* UNL     1      -9.965   5.248  69.162  1.00  0.00    -0.205 C  
HETATM   21  O3* UNL     1      -9.842   3.192  67.889  1.00  0.00    -0.192 OA 
HETATM   22  H3* UNL     1     -10.744   2.958  68.073  1.00  0.00     0.000 HD 
HETATM   23  O2* UNL     1     -11.308   5.668  69.349  1.00  0.00    -0.099 OA 
BRANCH  17  24
HETATM   24  C5* UNL     1      -8.030   5.615  66.117  1.00  0.00    -0.106 C  
HETATM   25  O5* UNL     1      -9.239   5.507  65.367  1.00  0.00    -0.303 OA 
HETATM   26  H5* UNL     1      -9.125   5.893  64.507  1.00  0.00     0.000 HD 
ENDBRANCH  17  24
ENDBRANCH  14  15
ENDBRANCH   2   3
TORSDOF 3
ENDMDL
MODEL      190
REMARK 921   NORMALIZED FREE ENERGY PREDICTED BY IDOCK:   -3.19 KCAL/MOL
REMARK 922        TOTAL FREE ENERGY PREDICTED BY IDOCK:   -3.98 KCAL/MOL
REMARK 923 INTER-LIGAND FREE ENERGY PREDICTED BY IDOCK:   -4.14 KCAL/MOL
REMARK 924 INTRA-LIGAND FREE ENERGY PREDICTED BY IDOCK:    0.16 KCAL/MOL
REMARK 927      BINDING AFFINITY PREDICTED BY RF-SCORE:    0.00 PKD
ROOT
HETATM    1  C   UNL     1      -6.164   8.635  66.121  1.00  0.00    -0.052 C  
HETATM    2  O   UNL     1      -7.173   9.391  66.781  1.00  0.00    -0.082 OA 
ENDROOT
BRANCH   2   3
HETATM    3  C   UNL     1      -7.608   8.766  67.932  1.00  0.00    -0.097 A  
HETATM    4  N   UNL     1      -7.201   9.236  69.140  1.00  0.00    -0.065 NA 
HETATM    5  C   UNL     1      -7.674   8.659  70.249  1.00  0.00    -0.083 A  
HETATM    6  N   UNL     1      -7.323   9.245  71.449  1.00  0.00    -0.325 NA 
HETATM    7  N   UNL     1      -8.544   7.646  70.311  1.00  0.00    -0.141 NA 
HETATM    8  H2  UNL     1      -7.585  10.231  71.437  1.00  0.00     0.000 HD 
HETATM    9  C   UNL     1      -8.955   7.234  69.102  1.00  0.00    -0.135 A  
HETATM   10  H1  UNL     1      -7.684   8.804  72.295  1.00  0.00     0.000 HD 
HETATM   11  C   UNL     1      -8.540   7.729  67.876  1.00  0.00    -0.122 A  
HETATM   12  N   UNL     1      -9.191   7.082  66.848  1.00  0.00    -0.144 NA 
HETATM   13  C   UNL     1     -10.010   6.243  67.443  1.00  0.00    -0.139 A  
HETATM   14  N   UNL     1      -9.914   6.307  68.812  1.00  0.00    -0.143 NA 
BRANCH  14  15
HETATM   15  C1* UNL     1     -10.820   5.632  69.715  1.00  0.00    -0.300 C  
HETATM   16  O4* UNL     1     -11.975   6.480  69.893  1.00  0.00    -0.319 OA 
HETATM   17  C4* UNL     1     -11.926   7.072  71.214  1.00  0.00    -0.346 C  
HETATM   18  H2* UNL     1      -8.679   4.661  72.083  1.00  0.00     0.000 HD 
HETATM   19  C3* UNL     1     -10.803   6.389  72.003  1.00  0.00    -0.239 C  
HETATM   20  C2* UNL     1     -10.349   5.238  71.113  1.00  0.00    -0.221 C  
HETATM   21  O3* UNL     1     -11.273   5.878  73.258  1.00  0.00    -0.430 OA 
HETATM   22  H3* UNL     1     -10.577   5.455  73.747  1.00  0.00     0.000 HD 
HETATM   23  O2* UNL     1      -8.972   4.906  71.213  1.00  0.00    -0.128 OA 
BRANCH  17  24
HETATM   24  C5* UNL     1     -11.730   8.591  71.085  1.00  0.00    -0.281 C  
HETATM   25  O5* UNL     1     -10.644   9.017  71.906  1.00  0.00    -0.344 OA 
HETATM   26  H5* UNL     1     -10.523   9.956  71.826  1.00  0.00     0.000 HD 
ENDBRANCH  17  24
ENDBRANCH  14  15
ENDBRANCH   2   3
TORSDOF 3
ENDMDL
MODEL      191
REMARK 921   NORMALIZED FREE ENERGY PREDICTED BY IDOCK:   -3.17 KCAL/MOL
REMARK 922        TOTAL FREE ENERGY PREDICTED BY IDOCK:   -3.95 KCAL/MOL
REMARK 923 INTER-LIGAND FREE ENERGY PREDICTED BY IDOCK:   -5.07 KCAL/MOL
REMARK 924 INTRA-LIGAND FREE ENERGY PREDICTED BY IDOCK:    1.11 KCAL/MOL
REMARK 927      BINDING AFFINITY PREDICTED BY RF-SCORE:    0.00 PKD
ROOT
HETATM    1  C   UNL     1      -7.231  10.892  67.324  1.00  0.00    -0.098 C  
HETATM    2  O   UNL     1      -6.302  11.966  67.420  1.00  0.00    -0.097 OA 
ENDROOT
BRANCH   2   3
HETATM    3  C   UNL     1      -6.887  13.101  67.945  1.00  0.00    -0.135 A  
HETATM    4  N   UNL     1      -6.164  13.902  68.771  1.00  0.00    -0.083 NA 
HETATM    5  C   UNL     1      -6.722  15.028  69.228  1.00  0.00    -0.141 A  
HETATM    6  N   UNL     1      -5.910  15.863  69.968  1.00  0.00    -0.166 NA 
HETATM    7  N   UNL     1      -7.946  15.482  68.944  1.00  0.00    -0.169 NA 
HETATM    8  H2  UNL     1      -5.072  16.088  69.432  1.00  0.00     0.000 HD 
HETATM    9  C   UNL     1      -8.615  14.688  68.094  1.00  0.00    -0.166 A  
HETATM   10  H1  UNL     1      -6.336  16.722  70.316  1.00  0.00     0.000 HD 
HETATM   11  C   UNL     1      -8.168  13.492  67.556  1.00  0.00    -0.183 A  
HETATM   12  N   UNL     1      -9.113  12.962  66.705  1.00  0.00    -0.210 NA 
HETATM   13  C   UNL     1     -10.093  13.839  66.699  1.00  0.00    -0.277 A  
HETATM   14  N   UNL     1      -9.832  14.911  67.517  1.00  0.00    -0.217 NA 
BRANCH  14  15
HETATM   15  C1* UNL     1     -10.648  16.106  67.564  1.00  0.00    -0.314 C  
HETATM   16  O4* UNL     1     -10.140  17.023  66.570  1.00  0.00    -0.289 OA 
HETATM   17  C4* UNL     1      -9.441  18.101  67.237  1.00  0.00    -0.260 C  
HETATM   18  H2* UNL     1     -10.771  16.610  70.859  1.00  0.00     0.000 HD 
HETATM   19  C3* UNL     1      -9.713  17.989  68.742  1.00  0.00    -0.328 C  
HETATM   20  C2* UNL     1     -10.768  16.896  68.864  1.00  0.00    -0.321 C  
HETATM   21  O3* UNL     1     -10.219  19.216  69.282  1.00  0.00    -0.547 OA 
HETATM   22  H3* UNL     1     -10.387  19.147  70.214  1.00  0.00     0.000 HD 
HETATM   23  O2* UNL     1     -10.696  16.118  70.050  1.00  0.00    -0.320 OA 
BRANCH  17  24
HETATM   24  C5* UNL     1      -7.945  18.031  66.891  1.00  0.00    -0.231 C  
HETATM   25  O5* UNL     1      -7.766  18.092  65.477  1.00  0.00    -0.510 OA 
HETATM   26  H5* UNL     1      -6.842  18.049  65.263  1.00  0.00     0.000 HD 
ENDBRANCH  17  24
ENDBRANCH  14  15
ENDBRANCH   2   3
TORSDOF 3
ENDMDL
MODEL      192
REMARK 921   NORMALIZED FREE ENERGY PREDICTED BY IDOCK:   -3.16 KCAL/MOL
REMARK 922        TOTAL FREE ENERGY PREDICTED BY IDOCK:   -3.94 KCAL/MOL
REMARK 923 INTER-LIGAND FREE ENERGY PREDICTED BY IDOCK:   -4.03 KCAL/MOL
REMARK 924 INTRA-LIGAND FREE ENERGY PREDICTED BY IDOCK:    0.09 KCAL/MOL
REMARK 927      BINDING AFFINITY PREDICTED BY RF-SCORE:    0.00 PKD
ROOT
HETATM    1  C   UNL     1     -10.760   4.113  74.014  1.00  0.00    -0.243 C  
HETATM    2  O   UNL     1     -10.221   4.197  72.699  1.00  0.00    -0.159 OA 
ENDROOT
BRANCH   2   3
HETATM    3  C   UNL     1     -10.090   5.507  72.285  1.00  0.00    -0.183 A  
HETATM    4  N   UNL     1      -9.594   6.432  73.148  1.00  0.00    -0.149 NA 
HETATM    5  C   UNL     1      -9.417   7.686  72.717  1.00  0.00    -0.188 A  
HETATM    6  N   UNL     1      -8.804   8.559  73.593  1.00  0.00    -0.227 NA 
HETATM    7  N   UNL     1      -9.666   8.148  71.489  1.00  0.00    -0.166 NA 
HETATM    8  H2  UNL     1      -7.910   8.170  73.894  1.00  0.00     0.000 HD 
HETATM    9  C   UNL     1     -10.115   7.200  70.653  1.00  0.00    -0.191 A  
HETATM   10  H1  UNL     1      -8.669   9.515  73.265  1.00  0.00     0.000 HD 
HETATM   11  C   UNL     1     -10.357   5.872  70.965  1.00  0.00    -0.223 A  
HETATM   12  N   UNL     1     -10.791   5.185  69.852  1.00  0.00    -0.010 NA 
HETATM   13  C   UNL     1     -10.773   6.071  68.880  1.00  0.00    -0.317 A  
HETATM   14  N   UNL     1     -10.357   7.306  69.313  1.00  0.00    -0.201 NA 
BRANCH  14  15
HETATM   15  C1* UNL     1     -10.069   8.415  68.429  1.00  0.00    -0.198 C  
HETATM   16  O4* UNL     1      -8.654   8.386  68.136  1.00  0.00    -0.137 OA 
HETATM   17  C4* UNL     1      -8.004   9.464  68.853  1.00  0.00    -0.087 C  
HETATM   18  H2* UNL     1     -11.732  10.856  69.980  1.00  0.00     0.000 HD 
HETATM   19  C3* UNL     1      -9.090  10.366  69.451  1.00  0.00    -0.152 C  
HETATM   20  C2* UNL     1     -10.395   9.841  68.864  1.00  0.00    -0.210 C  
HETATM   21  O3* UNL     1      -8.905  11.737  69.077  1.00  0.00    -0.376 OA 
HETATM   22  H3* UNL     1      -9.578  12.296  69.449  1.00  0.00     0.000 HD 
HETATM   23  O2* UNL     1     -11.529   9.968  69.709  1.00  0.00    -0.236 OA 
BRANCH  17  24
HETATM   24  C5* UNL     1      -7.061   8.875  69.914  1.00  0.00    -0.055 C  
HETATM   25  O5* UNL     1      -7.162   9.620  71.127  1.00  0.00    -0.328 OA 
HETATM   26  H5* UNL     1      -6.579   9.255  71.782  1.00  0.00     0.000 HD 
ENDBRANCH  17  24
ENDBRANCH  14  15
ENDBRANCH   2   3
TORSDOF 3
ENDMDL
MODEL      193
REMARK 921   NORMALIZED FREE ENERGY PREDICTED BY IDOCK:   -3.14 KCAL/MOL
REMARK 922        TOTAL FREE ENERGY PREDICTED BY IDOCK:   -3.91 KCAL/MOL
REMARK 923 INTER-LIGAND FREE ENERGY PREDICTED BY IDOCK:   -3.80 KCAL/MOL
REMARK 924 INTRA-LIGAND FREE ENERGY PREDICTED BY IDOCK:   -0.11 KCAL/MOL
REMARK 927      BINDING AFFINITY PREDICTED BY RF-SCORE:    0.00 PKD
ROOT
HETATM    1  C   UNL     1     -12.014  13.381  66.798  1.00  0.00    -0.394 C  
HETATM    2  O   UNL     1     -11.041  13.515  67.829  1.00  0.00    -0.255 OA 
ENDROOT
BRANCH   2   3
HETATM    3  C   UNL     1     -10.956  12.373  68.600  1.00  0.00    -0.247 A  
HETATM    4  N   UNL     1     -12.028  11.987  69.340  1.00  0.00    -0.296 NA 
HETATM    5  C   UNL     1     -11.953  10.849  70.038  1.00  0.00    -0.350 A  
HETATM    6  N   UNL     1     -13.105  10.442  70.680  1.00  0.00    -0.482 NA 
HETATM    7  N   UNL     1     -10.916  10.007  70.080  1.00  0.00    -0.278 NA 
HETATM    8  H2  UNL     1     -13.870  10.383  70.007  1.00  0.00     0.000 HD 
HETATM    9  C   UNL     1      -9.893  10.398  69.305  1.00  0.00    -0.225 A  
HETATM   10  H1  UNL     1     -13.048   9.573  71.211  1.00  0.00     0.000 HD 
HETATM   11  C   UNL     1      -9.828  11.554  68.545  1.00  0.00    -0.195 A  
HETATM   12  N   UNL     1      -8.633  11.616  67.860  1.00  0.00    -0.143 NA 
HETATM   13  C   UNL     1      -8.008  10.501  68.170  1.00  0.00    -0.111 A  
HETATM   14  N   UNL     1      -8.738   9.721  69.034  1.00  0.00    -0.139 NA 
BRANCH  14  15
HETATM   15  C1* UNL     1      -8.379   8.368  69.398  1.00  0.00    -0.120 C  
HETATM   16  O4* UNL     1      -6.985   8.371  69.779  1.00  0.00    -0.046 OA 
HETATM   17  C4* UNL     1      -6.209   7.742  68.730  1.00  0.00    -0.039 C  
HETATM   18  H2* UNL     1      -9.744   6.691  66.857  1.00  0.00     0.000 HD 
HETATM   19  C3* UNL     1      -7.181   7.100  67.734  1.00  0.00    -0.091 C  
HETATM   20  C2* UNL     1      -8.551   7.236  68.387  1.00  0.00    -0.124 C  
HETATM   21  O3* UNL     1      -6.881   5.716  67.517  1.00  0.00    -0.057 OA 
HETATM   22  H3* UNL     1      -7.483   5.318  66.900  1.00  0.00     0.000 HD 
HETATM   23  O2* UNL     1      -9.636   7.396  67.485  1.00  0.00    -0.134 OA 
BRANCH  17  24
HETATM   24  C5* UNL     1      -5.288   8.788  68.081  1.00  0.00    -0.035 C  
HETATM   25  O5* UNL     1      -5.410   8.734  66.660  1.00  0.00    -0.037 OA 
HETATM   26  H5* UNL     1      -4.841   9.380  66.260  1.00  0.00     0.000 HD 
ENDBRANCH  17  24
ENDBRANCH  14  15
ENDBRANCH   2   3
TORSDOF 3
ENDMDL
MODEL      194
REMARK 921   NORMALIZED FREE ENERGY PREDICTED BY IDOCK:   -3.07 KCAL/MOL
REMARK 922        TOTAL FREE ENERGY PREDICTED BY IDOCK:   -3.83 KCAL/MOL
REMARK 923 INTER-LIGAND FREE ENERGY PREDICTED BY IDOCK:   -4.29 KCAL/MOL
REMARK 924 INTRA-LIGAND FREE ENERGY PREDICTED BY IDOCK:    0.46 KCAL/MOL
REMARK 927      BINDING AFFINITY PREDICTED BY RF-SCORE:    0.00 PKD
ROOT
HETATM    1  C   UNL     1      -9.160  16.379  67.822  1.00  0.00    -0.199 C  
HETATM    2  O   UNL     1      -8.112  15.692  67.147  1.00  0.00    -0.176 OA 
ENDROOT
BRANCH   2   3
HETATM    3  C   UNL     1      -8.189  14.327  67.342  1.00  0.00    -0.202 A  
HETATM    4  N   UNL     1      -7.399  13.743  68.280  1.00  0.00    -0.106 NA 
HETATM    5  C   UNL     1      -7.523  12.430  68.501  1.00  0.00    -0.112 A  
HETATM    6  N   UNL     1      -6.782  11.906  69.541  1.00  0.00    -0.269 NA 
HETATM    7  N   UNL     1      -8.376  11.598  67.896  1.00  0.00    -0.136 NA 
HETATM    8  H2  UNL     1      -6.986  12.419  70.399  1.00  0.00     0.000 HD 
HETATM    9  C   UNL     1      -9.168  12.216  67.007  1.00  0.00    -0.202 A  
HETATM   10  H1  UNL     1      -6.877  10.905  69.709  1.00  0.00     0.000 HD 
HETATM   11  C   UNL     1      -9.140  13.560  66.669  1.00  0.00    -0.168 A  
HETATM   12  N   UNL     1     -10.113  13.844  65.736  1.00  0.00    -0.318 NA 
HETATM   13  C   UNL     1     -10.741  12.704  65.545  1.00  0.00    -0.274 A  
HETATM   14  N   UNL     1     -10.213  11.689  66.304  1.00  0.00    -0.220 NA 
BRANCH  14  15
HETATM   15  C1* UNL     1     -10.817  10.380  66.430  1.00  0.00     0.013 C  
HETATM   16  O4* UNL     1     -11.592  10.371  67.649  1.00  0.00    -0.383 OA 
HETATM   17  C4* UNL     1     -10.900   9.575  68.641  1.00  0.00    -0.139 C  
HETATM   18  H2* UNL     1      -8.193   8.445  65.725  1.00  0.00     0.000 HD 
HETATM   19  C3* UNL     1      -9.739   8.851  67.949  1.00  0.00    -0.160 C  
HETATM   20  C2* UNL     1      -9.936   9.134  66.465  1.00  0.00    -0.288 C  
HETATM   21  O3* UNL     1      -9.780   7.438  68.185  1.00  0.00    -0.147 OA 
HETATM   22  H3* UNL     1      -9.060   6.990  67.756  1.00  0.00     0.000 HD 
HETATM   23  O2* UNL     1      -8.741   9.221  65.704  1.00  0.00    -0.146 OA 
BRANCH  17  24
HETATM   24  C5* UNL     1     -10.440  10.482  69.793  1.00  0.00    -0.200 C  
HETATM   25  O5* UNL     1     -11.140  11.725  69.748  1.00  0.00    -0.456 OA 
HETATM   26  H5* UNL     1     -10.856  12.286  70.460  1.00  0.00     0.000 HD 
ENDBRANCH  17  24
ENDBRANCH  14  15
ENDBRANCH   2   3
TORSDOF 3
ENDMDL
MODEL      195
REMARK 921   NORMALIZED FREE ENERGY PREDICTED BY IDOCK:   -3.06 KCAL/MOL
REMARK 922        TOTAL FREE ENERGY PREDICTED BY IDOCK:   -3.82 KCAL/MOL
REMARK 923 INTER-LIGAND FREE ENERGY PREDICTED BY IDOCK:   -4.90 KCAL/MOL
REMARK 924 INTRA-LIGAND FREE ENERGY PREDICTED BY IDOCK:    1.08 KCAL/MOL
REMARK 927      BINDING AFFINITY PREDICTED BY RF-SCORE:    0.00 PKD
ROOT
HETATM    1  C   UNL     1      -6.603  14.951  69.282  1.00  0.00    -0.131 C  
HETATM    2  O   UNL     1      -6.410  14.248  68.059  1.00  0.00    -0.123 OA 
ENDROOT
BRANCH   2   3
HETATM    3  C   UNL     1      -7.602  14.047  67.393  1.00  0.00    -0.148 A  
HETATM    4  N   UNL     1      -8.180  15.086  66.734  1.00  0.00    -0.164 NA 
HETATM    5  C   UNL     1      -9.304  14.866  66.044  1.00  0.00    -0.241 A  
HETATM    6  N   UNL     1      -9.787  15.922  65.299  1.00  0.00    -0.400 NA 
HETATM    7  N   UNL     1      -9.939  13.698  65.908  1.00  0.00    -0.303 NA 
HETATM    8  H2  UNL     1      -9.059  16.260  64.669  1.00  0.00     0.000 HD 
HETATM    9  C   UNL     1      -9.319  12.688  66.537  1.00  0.00    -0.228 A  
HETATM   10  H1  UNL     1     -10.645  15.754  64.772  1.00  0.00     0.000 HD 
HETATM   11  C   UNL     1      -8.163  12.774  67.296  1.00  0.00    -0.181 A  
HETATM   12  N   UNL     1      -7.803  11.531  67.771  1.00  0.00    -0.120 NA 
HETATM   13  C   UNL     1      -8.702  10.708  67.276  1.00  0.00    -0.129 A  
HETATM   14  N   UNL     1      -9.636  11.360  66.509  1.00  0.00    -0.193 NA 
BRANCH  14  15
HETATM   15  C1* UNL     1     -10.626  10.686  65.699  1.00  0.00    -0.105 C  
HETATM   16  O4* UNL     1      -9.935  10.039  64.607  1.00  0.00    -0.309 OA 
HETATM   17  C4* UNL     1     -10.192  10.774  63.386  1.00  0.00    -0.223 C  
HETATM   18  H2* UNL     1     -12.926  13.089  65.452  1.00  0.00     0.000 HD 
HETATM   19  C3* UNL     1     -11.288  11.807  63.670  1.00  0.00    -0.436 C  
HETATM   20  C2* UNL     1     -11.773  11.480  65.078  1.00  0.00     0.120 C  
HETATM   21  O3* UNL     1     -12.375  11.696  62.743  1.00  0.00    -0.807 OA 
HETATM   22  H3* UNL     1     -13.054  12.337  62.919  1.00  0.00     0.000 HD 
HETATM   23  O2* UNL     1     -12.213  12.595  65.838  1.00  0.00    -0.548 OA 
BRANCH  17  24
HETATM   24  C5* UNL     1      -8.884  11.408  62.887  1.00  0.00    -0.082 C  
HETATM   25  O5* UNL     1      -7.838  10.437  62.885  1.00  0.00    -0.149 OA 
HETATM   26  H5* UNL     1      -7.030  10.829  62.576  1.00  0.00     0.000 HD 
ENDBRANCH  17  24
ENDBRANCH  14  15
ENDBRANCH   2   3
TORSDOF 3
ENDMDL
MODEL      196
REMARK 921   NORMALIZED FREE ENERGY PREDICTED BY IDOCK:   -3.05 KCAL/MOL
REMARK 922        TOTAL FREE ENERGY PREDICTED BY IDOCK:   -3.81 KCAL/MOL
REMARK 923 INTER-LIGAND FREE ENERGY PREDICTED BY IDOCK:   -4.26 KCAL/MOL
REMARK 924 INTRA-LIGAND FREE ENERGY PREDICTED BY IDOCK:    0.45 KCAL/MOL
REMARK 927      BINDING AFFINITY PREDICTED BY RF-SCORE:    0.00 PKD
ROOT
HETATM    1  C   UNL     1     -11.629  12.003  68.892  1.00  0.00    -0.321 C  
HETATM    2  O   UNL     1     -11.686  11.202  70.067  1.00  0.00    -0.298 OA 
ENDROOT
BRANCH   2   3
HETATM    3  C   UNL     1     -10.840  10.115  69.984  1.00  0.00    -0.307 A  
HETATM    4  N   UNL     1      -9.862  10.102  69.042  1.00  0.00    -0.194 NA 
HETATM    5  C   UNL     1      -9.012   9.070  69.008  1.00  0.00    -0.140 A  
HETATM    6  N   UNL     1      -7.968   9.159  68.110  1.00  0.00    -0.100 NA 
HETATM    7  N   UNL     1      -9.002   8.020  69.834  1.00  0.00    -0.144 NA 
HETATM    8  H2  UNL     1      -7.451  10.024  68.269  1.00  0.00     0.000 HD 
HETATM    9  C   UNL     1      -9.955   8.085  70.777  1.00  0.00    -0.188 A  
HETATM   10  H1  UNL     1      -7.320   8.372  68.085  1.00  0.00     0.000 HD 
HETATM   11  C   UNL     1     -10.906   9.082  70.921  1.00  0.00    -0.258 A  
HETATM   12  N   UNL     1     -11.707   8.832  72.014  1.00  0.00    -0.359 NA 
HETATM   13  C   UNL     1     -11.224   7.728  72.541  1.00  0.00    -0.363 A  
HETATM   14  N   UNL     1     -10.150   7.243  71.833  1.00  0.00    -0.178 NA 
BRANCH  14  15
HETATM   15  C1* UNL     1      -9.314   6.153  72.285  1.00  0.00    -0.146 C  
HETATM   16  O4* UNL     1      -8.573   5.666  71.145  1.00  0.00    -0.125 OA 
HETATM   17  C4* UNL     1      -9.121   4.390  70.736  1.00  0.00    -0.124 C  
HETATM   18  H2* UNL     1     -11.517   4.434  74.108  1.00  0.00     0.000 HD 
HETATM   19  C3* UNL     1     -10.114   3.929  71.810  1.00  0.00    -0.116 C  
HETATM   20  C2* UNL     1      -9.947   4.931  72.947  1.00  0.00    -0.157 C  
HETATM   21  O3* UNL     1      -9.813   2.608  72.278  1.00  0.00    -0.138 OA 
HETATM   22  H3* UNL     1     -10.429   2.323  72.943  1.00  0.00     0.000 HD 
HETATM   23  O2* UNL     1     -11.124   5.194  73.696  1.00  0.00    -0.308 OA 
BRANCH  17  24
HETATM   24  C5* UNL     1      -9.764   4.532  69.347  1.00  0.00    -0.202 C  
HETATM   25  O5* UNL     1      -8.751   4.645  68.348  1.00  0.00    -0.097 OA 
HETATM   26  H5* UNL     1      -9.148   4.733  67.490  1.00  0.00     0.000 HD 
ENDBRANCH  17  24
ENDBRANCH  14  15
ENDBRANCH   2   3
TORSDOF 3
ENDMDL
MODEL      197
REMARK 921   NORMALIZED FREE ENERGY PREDICTED BY IDOCK:   -3.04 KCAL/MOL
REMARK 922        TOTAL FREE ENERGY PREDICTED BY IDOCK:   -3.80 KCAL/MOL
REMARK 923 INTER-LIGAND FREE ENERGY PREDICTED BY IDOCK:   -4.23 KCAL/MOL
REMARK 924 INTRA-LIGAND FREE ENERGY PREDICTED BY IDOCK:    0.43 KCAL/MOL
REMARK 927      BINDING AFFINITY PREDICTED BY RF-SCORE:    0.00 PKD
ROOT
HETATM    1  C   UNL     1      -6.092   9.314  62.485  1.00  0.00    -0.093 C  
HETATM    2  O   UNL     1      -7.367   8.972  63.018  1.00  0.00    -0.096 OA 
ENDROOT
BRANCH   2   3
HETATM    3  C   UNL     1      -7.454   9.273  64.362  1.00  0.00    -0.106 A  
HETATM    4  N   UNL     1      -6.406   8.988  65.178  1.00  0.00    -0.061 NA 
HETATM    5  C   UNL     1      -6.479   9.336  66.467  1.00  0.00    -0.067 A  
HETATM    6  N   UNL     1      -5.346   9.130  67.228  1.00  0.00    -0.037 NA 
HETATM    7  N   UNL     1      -7.493   9.970  67.065  1.00  0.00    -0.091 NA 
HETATM    8  H2  UNL     1      -4.551   9.596  66.791  1.00  0.00     0.000 HD 
HETATM    9  C   UNL     1      -8.491  10.272  66.221  1.00  0.00    -0.135 A  
HETATM   10  H1  UNL     1      -5.402   9.396  68.211  1.00  0.00     0.000 HD 
HETATM   11  C   UNL     1      -8.555   9.962  64.872  1.00  0.00    -0.169 A  
HETATM   12  N   UNL     1      -9.719  10.450  64.319  1.00  0.00    -0.314 NA 
HETATM   13  C   UNL     1     -10.325  11.076  65.304  1.00  0.00    -0.275 A  
HETATM   14  N   UNL     1      -9.613  11.008  66.476  1.00  0.00    -0.191 NA 
BRANCH  14  15
HETATM   15  C1* UNL     1      -9.950  11.756  67.668  1.00  0.00    -0.194 C  
HETATM   16  O4* UNL     1      -9.395  11.052  68.800  1.00  0.00    -0.189 OA 
HETATM   17  C4* UNL     1     -10.470  10.410  69.528  1.00  0.00    -0.247 C  
HETATM   18  H2* UNL     1     -13.178  12.368  67.090  1.00  0.00     0.000 HD 
HETATM   19  C3* UNL     1     -11.801  10.920  68.964  1.00  0.00    -0.299 C  
HETATM   20  C2* UNL     1     -11.412  12.038  68.003  1.00  0.00    -0.328 C  
HETATM   21  O3* UNL     1     -12.650  11.440  69.996  1.00  0.00    -0.175 OA 
HETATM   22  H3* UNL     1     -13.475  11.755  69.646  1.00  0.00     0.000 HD 
HETATM   23  O2* UNL     1     -12.268  12.193  66.881  1.00  0.00    -0.537 OA 
BRANCH  17  24
HETATM   24  C5* UNL     1     -10.319   8.884  69.422  1.00  0.00    -0.213 C  
HETATM   25  O5* UNL     1     -11.377   8.237  70.126  1.00  0.00    -0.413 OA 
HETATM   26  H5* UNL     1     -11.284   7.294  70.061  1.00  0.00     0.000 HD 
ENDBRANCH  17  24
ENDBRANCH  14  15
ENDBRANCH   2   3
TORSDOF 3
ENDMDL
MODEL      198
REMARK 921   NORMALIZED FREE ENERGY PREDICTED BY IDOCK:   -3.03 KCAL/MOL
REMARK 922        TOTAL FREE ENERGY PREDICTED BY IDOCK:   -3.79 KCAL/MOL
REMARK 923 INTER-LIGAND FREE ENERGY PREDICTED BY IDOCK:   -4.17 KCAL/MOL
REMARK 924 INTRA-LIGAND FREE ENERGY PREDICTED BY IDOCK:    0.38 KCAL/MOL
REMARK 927      BINDING AFFINITY PREDICTED BY RF-SCORE:    0.00 PKD
ROOT
HETATM    1  C   UNL     1      -9.041  10.612  64.784  1.00  0.00    -0.209 C  
HETATM    2  O   UNL     1     -10.094   9.684  65.025  1.00  0.00    -0.136 OA 
ENDROOT
BRANCH   2   3
HETATM    3  C   UNL     1     -10.264   9.446  66.374  1.00  0.00    -0.230 A  
HETATM    4  N   UNL     1     -10.576  10.479  67.199  1.00  0.00    -0.253 NA 
HETATM    5  C   UNL     1     -10.796  10.227  68.493  1.00  0.00    -0.240 A  
HETATM    6  N   UNL     1     -11.222  11.289  69.265  1.00  0.00    -0.251 NA 
HETATM    7  N   UNL     1     -10.758   9.032  69.089  1.00  0.00    -0.198 NA 
HETATM    8  H2  UNL     1     -12.057  11.701  68.850  1.00  0.00     0.000 HD 
HETATM    9  C   UNL     1     -10.488   8.030  68.238  1.00  0.00    -0.161 A  
HETATM   10  H1  UNL     1     -11.389  11.096  70.253  1.00  0.00     0.000 HD 
HETATM   11  C   UNL     1     -10.227   8.147  66.882  1.00  0.00    -0.316 A  
HETATM   12  N   UNL     1     -10.015   6.906  66.322  1.00  0.00     0.017 NA 
HETATM   13  C   UNL     1     -10.184   6.056  67.312  1.00  0.00    -0.195 A  
HETATM   14  N   UNL     1     -10.486   6.689  68.492  1.00  0.00    -0.195 NA 
BRANCH  14  15
HETATM   15  C1* UNL     1     -10.899   5.998  69.694  1.00  0.00    -0.369 C  
HETATM   16  O4* UNL     1     -10.831   6.939  70.788  1.00  0.00    -0.231 OA 
HETATM   17  C4* UNL     1      -9.689   6.616  71.618  1.00  0.00    -0.162 C  
HETATM   18  H2* UNL     1      -9.147   3.176  69.386  1.00  0.00     0.000 HD 
HETATM   19  C3* UNL     1      -9.134   5.262  71.161  1.00  0.00    -0.144 C  
HETATM   20  C2* UNL     1     -10.151   4.747  70.150  1.00  0.00    -0.240 C  
HETATM   21  O3* UNL     1      -9.023   4.339  72.252  1.00  0.00    -0.113 OA 
HETATM   22  H3* UNL     1      -8.678   3.501  71.969  1.00  0.00     0.000 HD 
HETATM   23  O2* UNL     1      -9.612   3.954  69.103  1.00  0.00    -0.178 OA 
BRANCH  17  24
HETATM   24  C5* UNL     1      -8.656   7.750  71.527  1.00  0.00    -0.117 C  
HETATM   25  O5* UNL     1      -9.317   9.003  71.355  1.00  0.00    -0.251 OA 
HETATM   26  H5* UNL     1      -8.678   9.704  71.300  1.00  0.00     0.000 HD 
ENDBRANCH  17  24
ENDBRANCH  14  15
ENDBRANCH   2   3
TORSDOF 3
ENDMDL
MODEL      199
REMARK 921   NORMALIZED FREE ENERGY PREDICTED BY IDOCK:   -3.02 KCAL/MOL
REMARK 922        TOTAL FREE ENERGY PREDICTED BY IDOCK:   -3.78 KCAL/MOL
REMARK 923 INTER-LIGAND FREE ENERGY PREDICTED BY IDOCK:   -4.57 KCAL/MOL
REMARK 924 INTRA-LIGAND FREE ENERGY PREDICTED BY IDOCK:    0.79 KCAL/MOL
REMARK 927      BINDING AFFINITY PREDICTED BY RF-SCORE:    0.00 PKD
ROOT
HETATM    1  C   UNL     1      -8.480  20.049  66.675  1.00  0.00    -0.317 C  
HETATM    2  O   UNL     1      -7.510  19.204  66.063  1.00  0.00    -0.266 OA 
ENDROOT
BRANCH   2   3
HETATM    3  C   UNL     1      -7.468  17.961  66.661  1.00  0.00    -0.227 A  
HETATM    4  N   UNL     1      -6.528  17.708  67.608  1.00  0.00    -0.163 NA 
HETATM    5  C   UNL     1      -6.533  16.520  68.221  1.00  0.00    -0.135 A  
HETATM    6  N   UNL     1      -5.633  16.354  69.254  1.00  0.00    -0.127 NA 
HETATM    7  N   UNL     1      -7.397  15.521  68.015  1.00  0.00    -0.121 NA 
HETATM    8  H2  UNL     1      -5.762  17.096  69.943  1.00  0.00     0.000 HD 
HETATM    9  C   UNL     1      -8.336  15.820  67.104  1.00  0.00    -0.202 A  
HETATM   10  H1  UNL     1      -5.638  15.448  69.722  1.00  0.00     0.000 HD 
HETATM   11  C   UNL     1      -8.442  17.000  66.384  1.00  0.00    -0.283 A  
HETATM   12  N   UNL     1      -9.542  16.964  65.556  1.00  0.00    -0.460 NA 
HETATM   13  C   UNL     1     -10.110  15.803  65.800  1.00  0.00    -0.371 A  
HETATM   14  N   UNL     1      -9.422  15.077  66.742  1.00  0.00    -0.232 NA 
BRANCH  14  15
HETATM   15  C1* UNL     1      -9.915  13.852  67.332  1.00  0.00    -0.240 C  
HETATM   16  O4* UNL     1      -8.893  13.353  68.223  1.00  0.00    -0.178 OA 
HETATM   17  C4* UNL     1      -8.264  12.197  67.618  1.00  0.00    -0.163 C  
HETATM   18  H2* UNL     1     -11.108  12.324  64.617  1.00  0.00     0.000 HD 
HETATM   19  C3* UNL     1      -9.080  11.800  66.382  1.00  0.00    -0.213 C  
HETATM   20  C2* UNL     1     -10.321  12.684  66.437  1.00  0.00    -0.249 C  
HETATM   21  O3* UNL     1      -9.463  10.420  66.421  1.00  0.00    -0.161 OA 
HETATM   22  H3* UNL     1      -9.968  10.174  65.654  1.00  0.00     0.000 HD 
HETATM   23  O2* UNL     1     -10.855  13.051  65.174  1.00  0.00    -0.286 OA 
BRANCH  17  24
HETATM   24  C5* UNL     1      -6.799  12.527  67.290  1.00  0.00    -0.114 C  
HETATM   25  O5* UNL     1      -6.001  11.347  67.374  1.00  0.00    -0.057 OA 
HETATM   26  H5* UNL     1      -5.096  11.551  67.171  1.00  0.00     0.000 HD 
ENDBRANCH  17  24
ENDBRANCH  14  15
ENDBRANCH   2   3
TORSDOF 3
ENDMDL
MODEL      200
REMARK 921   NORMALIZED FREE ENERGY PREDICTED BY IDOCK:   -3.01 KCAL/MOL
REMARK 922        TOTAL FREE ENERGY PREDICTED BY IDOCK:   -3.76 KCAL/MOL
REMARK 923 INTER-LIGAND FREE ENERGY PREDICTED BY IDOCK:   -4.94 KCAL/MOL
REMARK 924 INTRA-LIGAND FREE ENERGY PREDICTED BY IDOCK:    1.18 KCAL/MOL
REMARK 927      BINDING AFFINITY PREDICTED BY RF-SCORE:    0.00 PKD
ROOT
HETATM    1  C   UNL     1      -8.481   8.931  66.076  1.00  0.00    -0.129 C  
HETATM    2  O   UNL     1      -9.843   9.268  65.835  1.00  0.00    -0.281 OA 
ENDROOT
BRANCH   2   3
HETATM    3  C   UNL     1     -10.051  10.631  65.905  1.00  0.00    -0.261 A  
HETATM    4  N   UNL     1     -11.083  11.184  65.215  1.00  0.00    -0.083 NA 
HETATM    5  C   UNL     1     -11.310  12.496  65.336  1.00  0.00    -0.325 A  
HETATM    6  N   UNL     1     -12.437  12.988  64.709  1.00  0.00    -0.568 NA 
HETATM    7  N   UNL     1     -10.626  13.356  66.096  1.00  0.00    -0.289 NA 
HETATM    8  H2  UNL     1     -13.257  12.467  65.021  1.00  0.00     0.000 HD 
HETATM    9  C   UNL     1      -9.641  12.769  66.794  1.00  0.00    -0.244 A  
HETATM   10  H1  UNL     1     -12.610  13.989  64.802  1.00  0.00     0.000 HD 
HETATM   11  C   UNL     1      -9.286  11.430  66.755  1.00  0.00    -0.180 A  
HETATM   12  N   UNL     1      -8.243  11.181  67.621  1.00  0.00    -0.116 NA 
HETATM   13  C   UNL     1      -8.000  12.337  68.198  1.00  0.00    -0.155 A  
HETATM   14  N   UNL     1      -8.831  13.330  67.739  1.00  0.00    -0.185 NA 
BRANCH  14  15
HETATM   15  C1* UNL     1      -8.910  14.650  68.326  1.00  0.00    -0.176 C  
HETATM   16  O4* UNL     1      -9.894  14.603  69.383  1.00  0.00    -0.128 OA 
HETATM   17  C4* UNL     1     -11.089  15.294  68.945  1.00  0.00    -0.266 C  
HETATM   18  H2* UNL     1      -9.042  16.518  65.566  1.00  0.00     0.000 HD 
HETATM   19  C3* UNL     1     -10.769  16.017  67.631  1.00  0.00    -0.320 C  
HETATM   20  C2* UNL     1      -9.264  15.852  67.454  1.00  0.00    -0.201 C  
HETATM   21  O3* UNL     1     -11.102  17.409  67.698  1.00  0.00    -0.214 OA 
HETATM   22  H3* UNL     1     -10.905  17.857  66.883  1.00  0.00     0.000 HD 
HETATM   23  O2* UNL     1      -8.821  15.770  66.108  1.00  0.00    -0.326 OA 
BRANCH  17  24
HETATM   24  C5* UNL     1     -12.241  14.286  68.811  1.00  0.00    -0.190 C  
HETATM   25  O5* UNL     1     -11.953  13.110  69.567  1.00  0.00    -0.306 OA 
HETATM   26  H5* UNL     1     -12.665  12.487  69.484  1.00  0.00     0.000 HD 
ENDBRANCH  17  24
ENDBRANCH  14  15
ENDBRANCH   2   3
TORSDOF 3
ENDMDL
MODEL      201
REMARK 921   NORMALIZED FREE ENERGY PREDICTED BY IDOCK:   -2.95 KCAL/MOL
REMARK 922        TOTAL FREE ENERGY PREDICTED BY IDOCK:   -3.69 KCAL/MOL
REMARK 923 INTER-LIGAND FREE ENERGY PREDICTED BY IDOCK:   -4.90 KCAL/MOL
REMARK 924 INTRA-LIGAND FREE ENERGY PREDICTED BY IDOCK:    1.21 KCAL/MOL
REMARK 927      BINDING AFFINITY PREDICTED BY RF-SCORE:    0.00 PKD
ROOT
HETATM    1  C   UNL     1     -12.650  10.923  70.644  1.00  0.00    -0.346 C  
HETATM    2  O   UNL     1     -12.286  11.215  69.299  1.00  0.00    -0.345 OA 
ENDROOT
BRANCH   2   3
HETATM    3  C   UNL     1     -11.720  12.469  69.185  1.00  0.00    -0.321 A  
HETATM    4  N   UNL     1     -11.962  13.399  70.145  1.00  0.00    -0.336 NA 
HETATM    5  C   UNL     1     -11.362  14.590  70.055  1.00  0.00    -0.224 A  
HETATM    6  N   UNL     1     -11.548  15.457  71.113  1.00  0.00    -0.341 NA 
HETATM    7  N   UNL     1     -10.509  14.982  69.104  1.00  0.00    -0.240 NA 
HETATM    8  H2  UNL     1     -11.273  15.000  71.982  1.00  0.00     0.000 HD 
HETATM    9  C   UNL     1     -10.262  14.026  68.196  1.00  0.00    -0.243 A  
HETATM   10  H1  UNL     1     -11.090  16.366  71.043  1.00  0.00     0.000 HD 
HETATM   11  C   UNL     1     -10.821  12.758  68.158  1.00  0.00    -0.228 A  
HETATM   12  N   UNL     1     -10.316  12.039  67.097  1.00  0.00    -0.212 NA 
HETATM   13  C   UNL     1      -9.443  12.842  66.529  1.00  0.00    -0.251 A  
HETATM   14  N   UNL     1      -9.364  14.056  67.167  1.00  0.00    -0.232 NA 
BRANCH  14  15
HETATM   15  C1* UNL     1      -8.363  15.058  66.872  1.00  0.00    -0.212 C  
HETATM   16  O4* UNL     1      -7.075  14.510  67.231  1.00  0.00    -0.171 OA 
HETATM   17  C4* UNL     1      -6.612  15.152  68.443  1.00  0.00    -0.101 C  
HETATM   18  H2* UNL     1      -9.817  17.754  68.192  1.00  0.00     0.000 HD 
HETATM   19  C3* UNL     1      -7.544  16.330  68.748  1.00  0.00    -0.199 C  
HETATM   20  C2* UNL     1      -8.448  16.435  67.525  1.00  0.00    -0.169 C  
HETATM   21  O3* UNL     1      -6.814  17.552  68.919  1.00  0.00    -0.225 OA 
HETATM   22  H3* UNL     1      -7.392  18.282  69.108  1.00  0.00     0.000 HD 
HETATM   23  O2* UNL     1      -9.764  16.897  67.786  1.00  0.00    -0.242 OA 
BRANCH  17  24
HETATM   24  C5* UNL     1      -6.561  14.118  69.580  1.00  0.00    -0.124 C  
HETATM   25  O5* UNL     1      -6.886  14.740  70.822  1.00  0.00    -0.139 OA 
HETATM   26  H5* UNL     1      -6.855  14.101  71.525  1.00  0.00     0.000 HD 
ENDBRANCH  17  24
ENDBRANCH  14  15
ENDBRANCH   2   3
TORSDOF 3
ENDMDL
MODEL      202
REMARK 921   NORMALIZED FREE ENERGY PREDICTED BY IDOCK:   -2.94 KCAL/MOL
REMARK 922        TOTAL FREE ENERGY PREDICTED BY IDOCK:   -3.68 KCAL/MOL
REMARK 923 INTER-LIGAND FREE ENERGY PREDICTED BY IDOCK:   -3.65 KCAL/MOL
REMARK 924 INTRA-LIGAND FREE ENERGY PREDICTED BY IDOCK:   -0.02 KCAL/MOL
REMARK 927      BINDING AFFINITY PREDICTED BY RF-SCORE:    0.00 PKD
ROOT
HETATM    1  C   UNL     1      -7.834   6.369  72.378  1.00  0.00    -0.102 C  
HETATM    2  O   UNL     1      -8.857   6.673  71.435  1.00  0.00    -0.138 OA 
ENDROOT
BRANCH   2   3
HETATM    3  C   UNL     1      -8.336   7.205  70.273  1.00  0.00    -0.136 A  
HETATM    4  N   UNL     1      -7.540   6.435  69.486  1.00  0.00    -0.093 NA 
HETATM    5  C   UNL     1      -7.089   6.942  68.334  1.00  0.00    -0.086 A  
HETATM    6  N   UNL     1      -6.382   6.083  67.516  1.00  0.00    -0.039 NA 
HETATM    7  N   UNL     1      -7.352   8.156  67.840  1.00  0.00    -0.094 NA 
HETATM    8  H2  UNL     1      -6.941   5.251  67.329  1.00  0.00     0.000 HD 
HETATM    9  C   UNL     1      -8.172   8.873  68.623  1.00  0.00    -0.116 A  
HETATM   10  H1  UNL     1      -6.038   6.470  66.638  1.00  0.00     0.000 HD 
HETATM   11  C   UNL     1      -8.701   8.481  69.843  1.00  0.00    -0.132 A  
HETATM   12  N   UNL     1      -9.521   9.464  70.352  1.00  0.00    -0.251 NA 
HETATM   13  C   UNL     1      -9.518  10.413  69.441  1.00  0.00    -0.183 A  
HETATM   14  N   UNL     1      -8.724  10.095  68.366  1.00  0.00    -0.120 NA 
BRANCH  14  15
HETATM   15  C1* UNL     1      -8.678  10.866  67.142  1.00  0.00    -0.132 C  
HETATM   16  O4* UNL     1      -8.710  12.264  67.504  1.00  0.00    -0.160 OA 
HETATM   17  C4* UNL     1     -10.015  12.804  67.182  1.00  0.00    -0.218 C  
HETATM   18  H2* UNL     1     -10.944   9.227  65.323  1.00  0.00     0.000 HD 
HETATM   19  C3* UNL     1     -10.778  11.756  66.363  1.00  0.00    -0.266 C  
HETATM   20  C2* UNL     1      -9.751  10.667  66.075  1.00  0.00    -0.208 C  
HETATM   21  O3* UNL     1     -11.269  12.300  65.132  1.00  0.00    -0.307 OA 
HETATM   22  H3* UNL     1     -11.742  11.651  64.625  1.00  0.00     0.000 HD 
HETATM   23  O2* UNL     1     -10.276   9.351  65.988  1.00  0.00    -0.269 OA 
BRANCH  17  24
HETATM   24  C5* UNL     1     -10.740  13.195  68.480  1.00  0.00    -0.259 C  
HETATM   25  O5* UNL     1     -12.124  13.423  68.219  1.00  0.00    -0.343 OA 
HETATM   26  H5* UNL     1     -12.571  13.665  69.022  1.00  0.00     0.000 HD 
ENDBRANCH  17  24
ENDBRANCH  14  15
ENDBRANCH   2   3
TORSDOF 3
ENDMDL
MODEL      203
REMARK 921   NORMALIZED FREE ENERGY PREDICTED BY IDOCK:   -2.93 KCAL/MOL
REMARK 922        TOTAL FREE ENERGY PREDICTED BY IDOCK:   -3.67 KCAL/MOL
REMARK 923 INTER-LIGAND FREE ENERGY PREDICTED BY IDOCK:   -3.85 KCAL/MOL
REMARK 924 INTRA-LIGAND FREE ENERGY PREDICTED BY IDOCK:    0.18 KCAL/MOL
REMARK 927      BINDING AFFINITY PREDICTED BY RF-SCORE:    0.00 PKD
ROOT
HETATM    1  C   UNL     1     -10.182  11.783  68.665  1.00  0.00    -0.201 C  
HETATM    2  O   UNL     1     -11.110  10.725  68.448  1.00  0.00    -0.225 OA 
ENDROOT
BRANCH   2   3
HETATM    3  C   UNL     1     -10.516   9.649  67.818  1.00  0.00    -0.256 A  
HETATM    4  N   UNL     1     -10.190   9.744  66.502  1.00  0.00    -0.232 NA 
HETATM    5  C   UNL     1      -9.564   8.718  65.918  1.00  0.00    -0.184 A  
HETATM    6  N   UNL     1      -9.151   8.908  64.614  1.00  0.00    -0.430 NA 
HETATM    7  N   UNL     1      -9.193   7.574  66.501  1.00  0.00    -0.168 NA 
HETATM    8  H2  UNL     1      -8.568   9.743  64.558  1.00  0.00     0.000 HD 
HETATM    9  C   UNL     1      -9.494   7.531  67.808  1.00  0.00    -0.141 A  
HETATM   10  H1  UNL     1      -8.673   8.124  64.169  1.00  0.00     0.000 HD 
HETATM   11  C   UNL     1     -10.150   8.511  68.537  1.00  0.00    -0.194 A  
HETATM   12  N   UNL     1     -10.266   8.135  69.857  1.00  0.00    -0.200 NA 
HETATM   13  C   UNL     1      -9.657   6.971  69.932  1.00  0.00    -0.159 A  
HETATM   14  N   UNL     1      -9.160   6.568  68.716  1.00  0.00    -0.127 NA 
BRANCH  14  15
HETATM   15  C1* UNL     1      -8.292   5.424  68.540  1.00  0.00    -0.097 C  
HETATM   16  O4* UNL     1      -8.267   5.105  67.132  1.00  0.00    -0.107 OA 
HETATM   17  C4* UNL     1      -9.038   3.899  66.908  1.00  0.00    -0.151 C  
HETATM   18  H2* UNL     1      -9.390   3.464  71.007  1.00  0.00     0.000 HD 
HETATM   19  C3* UNL     1      -9.382   3.291  68.273  1.00  0.00    -0.184 C  
HETATM   20  C2* UNL     1      -8.591   4.121  69.277  1.00  0.00    -0.078 C  
HETATM   21  O3* UNL     1      -8.983   1.917  68.356  1.00  0.00    -0.095 OA 
HETATM   22  H3* UNL     1      -9.197   1.540  69.201  1.00  0.00     0.000 HD 
HETATM   23  O2* UNL     1      -9.205   4.275  70.548  1.00  0.00    -0.100 OA 
BRANCH  17  24
HETATM   24  C5* UNL     1     -10.282   4.238  66.072  1.00  0.00    -0.157 C  
HETATM   25  O5* UNL     1      -9.977   5.269  65.134  1.00  0.00    -0.361 OA 
HETATM   26  H5* UNL     1     -10.745   5.478  64.617  1.00  0.00     0.000 HD 
ENDBRANCH  17  24
ENDBRANCH  14  15
ENDBRANCH   2   3
TORSDOF 3
ENDMDL
MODEL      204
REMARK 921   NORMALIZED FREE ENERGY PREDICTED BY IDOCK:   -2.90 KCAL/MOL
REMARK 922        TOTAL FREE ENERGY PREDICTED BY IDOCK:   -3.63 KCAL/MOL
REMARK 923 INTER-LIGAND FREE ENERGY PREDICTED BY IDOCK:   -4.01 KCAL/MOL
REMARK 924 INTRA-LIGAND FREE ENERGY PREDICTED BY IDOCK:    0.38 KCAL/MOL
REMARK 927      BINDING AFFINITY PREDICTED BY RF-SCORE:    0.00 PKD
ROOT
HETATM    1  C   UNL     1      -5.394  12.306  70.622  1.00  0.00    -0.153 C  
HETATM    2  O   UNL     1      -5.760  12.059  69.268  1.00  0.00    -0.064 OA 
ENDROOT
BRANCH   2   3
HETATM    3  C   UNL     1      -7.081  11.676  69.160  1.00  0.00    -0.090 A  
HETATM    4  N   UNL     1      -7.928  12.413  68.394  1.00  0.00    -0.156 NA 
HETATM    5  C   UNL     1      -9.191  12.001  68.249  1.00  0.00    -0.192 A  
HETATM    6  N   UNL     1      -9.978  12.718  67.370  1.00  0.00    -0.210 NA 
HETATM    7  N   UNL     1      -9.735  10.900  68.776  1.00  0.00    -0.185 NA 
HETATM    8  H2  UNL     1      -9.524  12.758  66.458  1.00  0.00     0.000 HD 
HETATM    9  C   UNL     1      -8.861  10.175  69.491  1.00  0.00    -0.182 A  
HETATM   10  H1  UNL     1     -10.942  12.403  67.260  1.00  0.00     0.000 HD 
HETATM   11  C   UNL     1      -7.533  10.488  69.735  1.00  0.00    -0.119 A  
HETATM   12  N   UNL     1      -6.935   9.503  70.489  1.00  0.00    -0.110 NA 
HETATM   13  C   UNL     1      -7.871   8.596  70.664  1.00  0.00    -0.099 A  
HETATM   14  N   UNL     1      -9.055   8.952  70.065  1.00  0.00    -0.157 NA 
BRANCH  14  15
HETATM   15  C1* UNL     1     -10.193   8.067  69.942  1.00  0.00    -0.204 C  
HETATM   16  O4* UNL     1     -11.362   8.885  69.714  1.00  0.00    -0.090 OA 
HETATM   17  C4* UNL     1     -12.166   8.904  70.918  1.00  0.00    -0.137 C  
HETATM   18  H2* UNL     1      -9.655   6.043  72.539  1.00  0.00     0.000 HD 
HETATM   19  C3* UNL     1     -11.599   7.860  71.888  1.00  0.00    -0.292 C  
HETATM   20  C2* UNL     1     -10.544   7.113  71.080  1.00  0.00    -0.223 C  
HETATM   21  O3* UNL     1     -12.609   6.946  72.333  1.00  0.00    -0.513 OA 
HETATM   22  H3* UNL     1     -12.258   6.300  72.934  1.00  0.00     0.000 HD 
HETATM   23  O2* UNL     1      -9.437   6.637  71.830  1.00  0.00    -0.152 OA 
BRANCH  17  24
HETATM   24  C5* UNL     1     -12.175  10.325  71.503  1.00  0.00    -0.353 C  
HETATM   25  O5* UNL     1     -12.389  11.281  70.466  1.00  0.00    -0.333 OA 
HETATM   26  H5* UNL     1     -12.395  12.159  70.827  1.00  0.00     0.000 HD 
ENDBRANCH  17  24
ENDBRANCH  14  15
ENDBRANCH   2   3
TORSDOF 3
ENDMDL
MODEL      205
REMARK 921   NORMALIZED FREE ENERGY PREDICTED BY IDOCK:   -2.88 KCAL/MOL
REMARK 922        TOTAL FREE ENERGY PREDICTED BY IDOCK:   -3.61 KCAL/MOL
REMARK 923 INTER-LIGAND FREE ENERGY PREDICTED BY IDOCK:   -4.00 KCAL/MOL
REMARK 924 INTRA-LIGAND FREE ENERGY PREDICTED BY IDOCK:    0.39 KCAL/MOL
REMARK 927      BINDING AFFINITY PREDICTED BY RF-SCORE:    0.00 PKD
ROOT
HETATM    1  C   UNL     1      -6.949   6.721  66.170  1.00  0.00    -0.061 C  
HETATM    2  O   UNL     1      -6.837   8.140  66.144  1.00  0.00    -0.057 OA 
ENDROOT
BRANCH   2   3
HETATM    3  C   UNL     1      -7.897   8.747  66.788  1.00  0.00    -0.097 A  
HETATM    4  N   UNL     1      -8.589   9.728  66.152  1.00  0.00    -0.126 NA 
HETATM    5  C   UNL     1      -9.649  10.268  66.762  1.00  0.00    -0.172 A  
HETATM    6  N   UNL     1     -10.386  11.176  66.029  1.00  0.00    -0.248 NA 
HETATM    7  N   UNL     1     -10.135   9.932  67.960  1.00  0.00    -0.163 NA 
HETATM    8  H2  UNL     1     -10.677  10.751  65.149  1.00  0.00     0.000 HD 
HETATM    9  C   UNL     1      -9.453   8.933  68.541  1.00  0.00    -0.147 A  
HETATM   10  H1  UNL     1     -11.195  11.588  66.495  1.00  0.00     0.000 HD 
HETATM   11  C   UNL     1      -8.333   8.294  68.033  1.00  0.00    -0.129 A  
HETATM   12  N   UNL     1      -7.912   7.301  68.891  1.00  0.00    -0.121 NA 
HETATM   13  C   UNL     1      -8.783   7.316  69.877  1.00  0.00    -0.141 A  
HETATM   14  N   UNL     1      -9.746   8.280  69.703  1.00  0.00    -0.172 NA 
BRANCH  14  15
HETATM   15  C1* UNL     1     -10.925   8.400  70.534  1.00  0.00    -0.242 C  
HETATM   16  O4* UNL     1     -10.493   8.796  71.854  1.00  0.00    -0.307 OA 
HETATM   17  C4* UNL     1     -10.615   7.663  72.748  1.00  0.00    -0.325 C  
HETATM   18  H2* UNL     1     -12.512   5.581  69.719  1.00  0.00     0.000 HD 
HETATM   19  C3* UNL     1     -11.378   6.554  72.015  1.00  0.00    -0.285 C  
HETATM   20  C2* UNL     1     -11.852   7.201  70.719  1.00  0.00    -0.325 C  
HETATM   21  O3* UNL     1     -12.506   6.097  72.771  1.00  0.00    -0.435 OA 
HETATM   22  H3* UNL     1     -12.978   5.409  72.317  1.00  0.00     0.000 HD 
HETATM   23  O2* UNL     1     -11.935   6.327  69.603  1.00  0.00    -0.128 OA 
BRANCH  17  24
HETATM   24  C5* UNL     1      -9.215   7.225  73.209  1.00  0.00    -0.174 C  
HETATM   25  O5* UNL     1      -9.324   6.265  74.259  1.00  0.00    -0.146 OA 
HETATM   26  H5* UNL     1      -8.459   5.994  74.544  1.00  0.00     0.000 HD 
ENDBRANCH  17  24
ENDBRANCH  14  15
ENDBRANCH   2   3
TORSDOF 3
ENDMDL
MODEL      206
REMARK 921   NORMALIZED FREE ENERGY PREDICTED BY IDOCK:   -2.87 KCAL/MOL
REMARK 922        TOTAL FREE ENERGY PREDICTED BY IDOCK:   -3.60 KCAL/MOL
REMARK 923 INTER-LIGAND FREE ENERGY PREDICTED BY IDOCK:   -4.63 KCAL/MOL
REMARK 924 INTRA-LIGAND FREE ENERGY PREDICTED BY IDOCK:    1.02 KCAL/MOL
REMARK 927      BINDING AFFINITY PREDICTED BY RF-SCORE:    0.00 PKD
ROOT
HETATM    1  C   UNL     1      -8.812   6.652  72.900  1.00  0.00    -0.125 C  
HETATM    2  O   UNL     1      -9.392   6.101  71.723  1.00  0.00    -0.151 OA 
ENDROOT
BRANCH   2   3
HETATM    3  C   UNL     1      -9.791   7.086  70.842  1.00  0.00    -0.185 A  
HETATM    4  N   UNL     1      -9.411   7.008  69.540  1.00  0.00    -0.147 NA 
HETATM    5  C   UNL     1      -9.851   7.936  68.684  1.00  0.00    -0.170 A  
HETATM    6  N   UNL     1      -9.534   7.749  67.353  1.00  0.00    -0.139 NA 
HETATM    7  N   UNL     1     -10.662   8.960  68.966  1.00  0.00    -0.176 NA 
HETATM    8  H2  UNL     1      -9.850   6.827  67.052  1.00  0.00     0.000 HD 
HETATM    9  C   UNL     1     -11.049   8.982  70.251  1.00  0.00    -0.235 A  
HETATM   10  H1  UNL     1      -9.869   8.457  66.701  1.00  0.00     0.000 HD 
HETATM   11  C   UNL     1     -10.663   8.097  71.245  1.00  0.00    -0.227 A  
HETATM   12  N   UNL     1     -11.276   8.413  72.438  1.00  0.00    -0.371 NA 
HETATM   13  C   UNL     1     -12.047   9.442  72.159  1.00  0.00    -0.223 A  
HETATM   14  N   UNL     1     -11.954   9.816  70.841  1.00  0.00    -0.309 NA 
BRANCH  14  15
HETATM   15  C1* UNL     1     -12.820  10.794  70.219  1.00  0.00    -0.160 C  
HETATM   16  O4* UNL     1     -12.483  10.849  68.815  1.00  0.00    -0.431 OA 
HETATM   17  C4* UNL     1     -11.768  12.081  68.551  1.00  0.00    -0.332 C  
HETATM   18  H2* UNL     1     -12.581  13.286  72.423  1.00  0.00     0.000 HD 
HETATM   19  C3* UNL     1     -11.854  12.962  69.802  1.00  0.00    -0.310 C  
HETATM   20  C2* UNL     1     -12.829  12.235  70.722  1.00  0.00    -0.017 C  
HETATM   21  O3* UNL     1     -12.358  14.269  69.496  1.00  0.00    -0.435 OA 
HETATM   22  H3* UNL     1     -12.411  14.815  70.271  1.00  0.00     0.000 HD 
HETATM   23  O2* UNL     1     -12.575  12.389  72.110  1.00  0.00     0.016 OA 
BRANCH  17  24
HETATM   24  C5* UNL     1     -10.322  11.754  68.145  1.00  0.00    -0.200 C  
HETATM   25  O5* UNL     1      -9.454  11.898  69.269  1.00  0.00    -0.301 OA 
HETATM   26  H5* UNL     1      -8.560  11.696  69.018  1.00  0.00     0.000 HD 
ENDBRANCH  17  24
ENDBRANCH  14  15
ENDBRANCH   2   3
TORSDOF 3
ENDMDL
MODEL      207
REMARK 921   NORMALIZED FREE ENERGY PREDICTED BY IDOCK:   -2.87 KCAL/MOL
REMARK 922        TOTAL FREE ENERGY PREDICTED BY IDOCK:   -3.60 KCAL/MOL
REMARK 923 INTER-LIGAND FREE ENERGY PREDICTED BY IDOCK:   -3.48 KCAL/MOL
REMARK 924 INTRA-LIGAND FREE ENERGY PREDICTED BY IDOCK:   -0.12 KCAL/MOL
REMARK 927      BINDING AFFINITY PREDICTED BY RF-SCORE:    0.00 PKD
ROOT
HETATM    1  C   UNL     1      -6.576   9.457  66.638  1.00  0.00    -0.068 C  
HETATM    2  O   UNL     1      -6.418   8.297  67.449  1.00  0.00    -0.055 OA 
ENDROOT
BRANCH   2   3
HETATM    3  C   UNL     1      -7.587   7.566  67.526  1.00  0.00    -0.113 A  
HETATM    4  N   UNL     1      -8.109   7.022  66.396  1.00  0.00    -0.109 NA 
HETATM    5  C   UNL     1      -9.209   6.269  66.492  1.00  0.00    -0.154 A  
HETATM    6  N   UNL     1      -9.633   5.645  65.336  1.00  0.00    -0.356 NA 
HETATM    7  N   UNL     1      -9.871   5.963  67.612  1.00  0.00    -0.115 NA 
HETATM    8  H2  UNL     1      -8.871   5.091  64.946  1.00  0.00     0.000 HD 
HETATM    9  C   UNL     1      -9.304   6.483  68.712  1.00  0.00    -0.130 A  
HETATM   10  H1  UNL     1     -10.473   5.070  65.409  1.00  0.00     0.000 HD 
HETATM   11  C   UNL     1      -8.178   7.289  68.759  1.00  0.00    -0.129 A  
HETATM   12  N   UNL     1      -7.872   7.616  70.062  1.00  0.00    -0.100 NA 
HETATM   13  C   UNL     1      -8.772   6.989  70.788  1.00  0.00    -0.148 A  
HETATM   14  N   UNL     1      -9.656   6.276  70.015  1.00  0.00    -0.157 NA 
BRANCH  14  15
HETATM   15  C1* UNL     1     -10.630   5.351  70.552  1.00  0.00    -0.242 C  
HETATM   16  O4* UNL     1     -11.560   6.110  71.355  1.00  0.00    -0.289 OA 
HETATM   17  C4* UNL     1     -11.302   5.840  72.755  1.00  0.00    -0.282 C  
HETATM   18  H2* UNL     1      -8.613   2.913  71.609  1.00  0.00     0.000 HD 
HETATM   19  C3* UNL     1     -10.310   4.675  72.843  1.00  0.00    -0.187 C  
HETATM   20  C2* UNL     1     -10.172   4.174  71.410  1.00  0.00    -0.021 C  
HETATM   21  O3* UNL     1     -10.802   3.621  73.681  1.00  0.00    -0.200 OA 
HETATM   22  H3* UNL     1     -10.187   2.900  73.736  1.00  0.00     0.000 HD 
HETATM   23  O2* UNL     1      -8.897   3.646  71.075  1.00  0.00    -0.075 OA 
BRANCH  17  24
HETATM   24  C5* UNL     1     -10.788   7.119  73.435  1.00  0.00    -0.319 C  
HETATM   25  O5* UNL     1      -9.565   6.852  74.119  1.00  0.00    -0.230 OA 
HETATM   26  H5* UNL     1      -9.247   7.643  74.539  1.00  0.00     0.000 HD 
ENDBRANCH  17  24
ENDBRANCH  14  15
ENDBRANCH   2   3
TORSDOF 3
ENDMDL
MODEL      208
REMARK 921   NORMALIZED FREE ENERGY PREDICTED BY IDOCK:   -2.85 KCAL/MOL
REMARK 922        TOTAL FREE ENERGY PREDICTED BY IDOCK:   -3.58 KCAL/MOL
REMARK 923 INTER-LIGAND FREE ENERGY PREDICTED BY IDOCK:   -3.67 KCAL/MOL
REMARK 924 INTRA-LIGAND FREE ENERGY PREDICTED BY IDOCK:    0.09 KCAL/MOL
REMARK 927      BINDING AFFINITY PREDICTED BY RF-SCORE:    0.00 PKD
ROOT
HETATM    1  C   UNL     1     -14.383   8.440  71.866  1.00  0.00    -0.473 C  
HETATM    2  O   UNL     1     -13.150   8.634  72.551  1.00  0.00    -0.363 OA 
ENDROOT
BRANCH   2   3
HETATM    3  C   UNL     1     -12.069   8.322  71.751  1.00  0.00    -0.319 A  
HETATM    4  N   UNL     1     -11.748   9.141  70.715  1.00  0.00    -0.277 NA 
HETATM    5  C   UNL     1     -10.665   8.860  69.983  1.00  0.00    -0.228 A  
HETATM    6  N   UNL     1     -10.317   9.783  69.017  1.00  0.00    -0.199 NA 
HETATM    7  N   UNL     1      -9.821   7.841  70.168  1.00  0.00    -0.184 NA 
HETATM    8  H2  UNL     1     -10.213  10.704  69.445  1.00  0.00     0.000 HD 
HETATM    9  C   UNL     1     -10.144   7.078  71.224  1.00  0.00    -0.190 A  
HETATM   10  H1  UNL     1      -9.490   9.569  68.459  1.00  0.00     0.000 HD 
HETATM   11  C   UNL     1     -11.239   7.243  72.056  1.00  0.00    -0.250 A  
HETATM   12  N   UNL     1     -11.239   6.287  73.049  1.00  0.00    -0.202 NA 
HETATM   13  C   UNL     1     -10.146   5.585  72.842  1.00  0.00    -0.176 A  
HETATM   14  N   UNL     1      -9.440   6.036  71.754  1.00  0.00    -0.152 NA 
BRANCH  14  15
HETATM   15  C1* UNL     1      -8.115   5.571  71.405  1.00  0.00    -0.117 C  
HETATM   16  O4* UNL     1      -7.160   6.428  72.069  1.00  0.00    -0.078 OA 
HETATM   17  C4* UNL     1      -6.548   7.300  71.089  1.00  0.00    -0.044 C  
HETATM   18  H2* UNL     1      -8.476   5.171  68.113  1.00  0.00     0.000 HD 
HETATM   19  C3* UNL     1      -6.964   6.819  69.694  1.00  0.00    -0.063 C  
HETATM   20  C2* UNL     1      -7.692   5.503  69.939  1.00  0.00    -0.082 C  
HETATM   21  O3* UNL     1      -5.828   6.597  68.849  1.00  0.00    -0.020 OA 
HETATM   22  H3* UNL     1      -6.087   6.299  67.984  1.00  0.00     0.000 HD 
HETATM   23  O2* UNL     1      -8.739   5.213  69.024  1.00  0.00    -0.092 OA 
BRANCH  17  24
HETATM   24  C5* UNL     1      -6.960   8.754  71.371  1.00  0.00    -0.089 C  
HETATM   25  O5* UNL     1      -7.181   9.447  70.143  1.00  0.00    -0.068 OA 
HETATM   26  H5* UNL     1      -7.436  10.345  70.318  1.00  0.00     0.000 HD 
ENDBRANCH  17  24
ENDBRANCH  14  15
ENDBRANCH   2   3
TORSDOF 3
ENDMDL
MODEL      209
REMARK 921   NORMALIZED FREE ENERGY PREDICTED BY IDOCK:   -2.85 KCAL/MOL
REMARK 922        TOTAL FREE ENERGY PREDICTED BY IDOCK:   -3.58 KCAL/MOL
REMARK 923 INTER-LIGAND FREE ENERGY PREDICTED BY IDOCK:   -3.80 KCAL/MOL
REMARK 924 INTRA-LIGAND FREE ENERGY PREDICTED BY IDOCK:    0.22 KCAL/MOL
REMARK 927      BINDING AFFINITY PREDICTED BY RF-SCORE:    0.00 PKD
ROOT
HETATM    1  C   UNL     1     -10.537   6.818  72.740  1.00  0.00    -0.235 C  
HETATM    2  O   UNL     1     -10.974   7.847  71.859  1.00  0.00    -0.237 OA 
ENDROOT
BRANCH   2   3
HETATM    3  C   UNL     1     -10.380   7.740  70.618  1.00  0.00    -0.202 A  
HETATM    4  N   UNL     1     -11.020   7.065  69.628  1.00  0.00    -0.248 NA 
HETATM    5  C   UNL     1     -10.462   7.018  68.414  1.00  0.00    -0.201 A  
HETATM    6  N   UNL     1     -11.204   6.421  67.415  1.00  0.00    -0.675 NA 
HETATM    7  N   UNL     1      -9.314   7.593  68.042  1.00  0.00    -0.140 NA 
HETATM    8  H2  UNL     1     -12.119   6.868  67.355  1.00  0.00     0.000 HD 
HETATM    9  C   UNL     1      -8.730   8.285  69.033  1.00  0.00    -0.143 A  
HETATM   10  H1  UNL     1     -10.778   6.385  66.489  1.00  0.00     0.000 HD 
HETATM   11  C   UNL     1      -9.187   8.406  70.336  1.00  0.00    -0.153 A  
HETATM   12  N   UNL     1      -8.344   9.212  71.070  1.00  0.00    -0.263 NA 
HETATM   13  C   UNL     1      -7.420   9.599  70.218  1.00  0.00    -0.158 A  
HETATM   14  N   UNL     1      -7.618   9.074  68.965  1.00  0.00    -0.077 NA 
BRANCH  14  15
HETATM   15  C1* UNL     1      -6.865   9.474  67.795  1.00  0.00    -0.078 C  
HETATM   16  O4* UNL     1      -7.455  10.691  67.289  1.00  0.00    -0.095 OA 
HETATM   17  C4* UNL     1      -8.186  10.391  66.075  1.00  0.00    -0.144 C  
HETATM   18  H2* UNL     1      -6.653   6.551  66.200  1.00  0.00     0.000 HD 
HETATM   19  C3* UNL     1      -7.856   8.952  65.661  1.00  0.00    -0.096 C  
HETATM   20  C2* UNL     1      -6.741   8.523  66.607  1.00  0.00    -0.068 C  
HETATM   21  O3* UNL     1      -7.396   8.884  64.305  1.00  0.00    -0.096 OA 
HETATM   22  H3* UNL     1      -7.193   7.992  64.048  1.00  0.00     0.000 HD 
HETATM   23  O2* UNL     1      -6.731   7.143  66.940  1.00  0.00    -0.056 OA 
BRANCH  17  24
HETATM   24  C5* UNL     1      -9.687  10.617  66.315  1.00  0.00    -0.199 C  
HETATM   25  O5* UNL     1     -10.402   9.396  66.132  1.00  0.00    -0.232 OA 
HETATM   26  H5* UNL     1     -11.330   9.535  66.280  1.00  0.00     0.000 HD 
ENDBRANCH  17  24
ENDBRANCH  14  15
ENDBRANCH   2   3
TORSDOF 3
ENDMDL
MODEL      210
REMARK 921   NORMALIZED FREE ENERGY PREDICTED BY IDOCK:   -2.84 KCAL/MOL
REMARK 922        TOTAL FREE ENERGY PREDICTED BY IDOCK:   -3.56 KCAL/MOL
REMARK 923 INTER-LIGAND FREE ENERGY PREDICTED BY IDOCK:   -3.49 KCAL/MOL
REMARK 924 INTRA-LIGAND FREE ENERGY PREDICTED BY IDOCK:   -0.07 KCAL/MOL
REMARK 927      BINDING AFFINITY PREDICTED BY RF-SCORE:    0.00 PKD
ROOT
HETATM    1  C   UNL     1      -5.603  11.189  68.328  1.00  0.00    -0.045 C  
HETATM    2  O   UNL     1      -5.483  10.369  69.485  1.00  0.00    -0.038 OA 
ENDROOT
BRANCH   2   3
HETATM    3  C   UNL     1      -6.073   9.135  69.299  1.00  0.00    -0.041 A  
HETATM    4  N   UNL     1      -5.462   8.217  68.507  1.00  0.00    -0.032 NA 
HETATM    5  C   UNL     1      -6.013   7.005  68.380  1.00  0.00    -0.025 A  
HETATM    6  N   UNL     1      -5.296   6.072  67.659  1.00  0.00    -0.004 NA 
HETATM    7  N   UNL     1      -7.128   6.571  68.976  1.00  0.00    -0.082 NA 
HETATM    8  H2  UNL     1      -4.358   5.983  68.052  1.00  0.00     0.000 HD 
HETATM    9  C   UNL     1      -7.682   7.490  69.783  1.00  0.00    -0.095 A  
HETATM   10  H1  UNL     1      -5.717   5.148  67.563  1.00  0.00     0.000 HD 
HETATM   11  C   UNL     1      -7.229   8.782  69.997  1.00  0.00    -0.052 A  
HETATM   12  N   UNL     1      -8.034   9.432  70.906  1.00  0.00    -0.301 NA 
HETATM   13  C   UNL     1      -8.931   8.538  71.263  1.00  0.00    -0.192 A  
HETATM   14  N   UNL     1      -8.751   7.339  70.618  1.00  0.00    -0.146 NA 
BRANCH  14  15
HETATM   15  C1* UNL     1      -9.474   6.130  70.950  1.00  0.00    -0.172 C  
HETATM   16  O4* UNL     1     -10.806   6.252  70.404  1.00  0.00    -0.252 OA 
HETATM   17  C4* UNL     1     -11.738   6.487  71.487  1.00  0.00    -0.324 C  
HETATM   18  H2* UNL     1      -8.662   5.819  74.170  1.00  0.00     0.000 HD 
HETATM   19  C3* UNL     1     -10.997   6.276  72.812  1.00  0.00    -0.260 C  
HETATM   20  C2* UNL     1      -9.637   5.716  72.410  1.00  0.00    -0.149 C  
HETATM   21  O3* UNL     1     -11.677   5.340  73.658  1.00  0.00    -0.374 OA 
HETATM   22  H3* UNL     1     -11.217   5.210  74.479  1.00  0.00     0.000 HD 
HETATM   23  O2* UNL     1      -8.560   6.078  73.262  1.00  0.00    -0.118 OA 
BRANCH  17  24
HETATM   24  C5* UNL     1     -12.334   7.897  71.351  1.00  0.00    -0.312 C  
HETATM   25  O5* UNL     1     -13.633   7.825  70.765  1.00  0.00    -0.474 OA 
HETATM   26  H5* UNL     1     -14.001   8.697  70.681  1.00  0.00     0.000 HD 
ENDBRANCH  17  24
ENDBRANCH  14  15
ENDBRANCH   2   3
TORSDOF 3
ENDMDL
MODEL      211
REMARK 921   NORMALIZED FREE ENERGY PREDICTED BY IDOCK:   -2.81 KCAL/MOL
REMARK 922        TOTAL FREE ENERGY PREDICTED BY IDOCK:   -3.52 KCAL/MOL
REMARK 923 INTER-LIGAND FREE ENERGY PREDICTED BY IDOCK:   -3.50 KCAL/MOL
REMARK 924 INTRA-LIGAND FREE ENERGY PREDICTED BY IDOCK:   -0.02 KCAL/MOL
REMARK 927      BINDING AFFINITY PREDICTED BY RF-SCORE:    0.00 PKD
ROOT
HETATM    1  C   UNL     1     -10.540   5.927  71.925  1.00  0.00    -0.231 C  
HETATM    2  O   UNL     1     -10.942   6.972  71.045  1.00  0.00    -0.240 OA 
ENDROOT
BRANCH   2   3
HETATM    3  C   UNL     1     -10.332   6.863  69.812  1.00  0.00    -0.206 A  
HETATM    4  N   UNL     1     -10.978   6.224  68.802  1.00  0.00    -0.330 NA 
HETATM    5  C   UNL     1     -10.402   6.176  67.596  1.00  0.00    -0.201 A  
HETATM    6  N   UNL     1     -11.148   5.618  66.578  1.00  0.00    -0.707 NA 
HETATM    7  N   UNL     1      -9.229   6.715  67.252  1.00  0.00    -0.123 NA 
HETATM    8  H2  UNL     1     -12.046   6.097  66.509  1.00  0.00     0.000 HD 
HETATM    9  C   UNL     1      -8.639   7.373  68.261  1.00  0.00    -0.124 A  
HETATM   10  H1  UNL     1     -10.708   5.581  65.658  1.00  0.00     0.000 HD 
HETATM   11  C   UNL     1      -9.112   7.491  69.558  1.00  0.00    -0.143 A  
HETATM   12  N   UNL     1      -8.254   8.257  70.318  1.00  0.00    -0.117 NA 
HETATM   13  C   UNL     1      -7.304   8.625  69.486  1.00  0.00    -0.068 A  
HETATM   14  N   UNL     1      -7.499   8.124  68.222  1.00  0.00    -0.095 NA 
BRANCH  14  15
HETATM   15  C1* UNL     1      -6.715   8.515  67.071  1.00  0.00    -0.062 C  
HETATM   16  O4* UNL     1      -5.400   8.883  67.541  1.00  0.00    -0.034 OA 
HETATM   17  C4* UNL     1      -5.262  10.323  67.472  1.00  0.00    -0.040 C  
HETATM   18  H2* UNL     1      -8.899  10.495  65.510  1.00  0.00     0.000 HD 
HETATM   19  C3* UNL     1      -6.465  10.884  66.705  1.00  0.00    -0.120 C  
HETATM   20  C2* UNL     1      -7.192   9.654  66.174  1.00  0.00    -0.098 C  
HETATM   21  O3* UNL     1      -6.056  11.716  65.612  1.00  0.00    -0.323 OA 
HETATM   22  H3* UNL     1      -6.802  12.064  65.137  1.00  0.00     0.000 HD 
HETATM   23  O2* UNL     1      -8.602   9.786  66.068  1.00  0.00    -0.131 OA 
BRANCH  17  24
HETATM   24  C5* UNL     1      -5.139  10.892  68.894  1.00  0.00    -0.041 C  
HETATM   25  O5* UNL     1      -6.220  11.786  69.160  1.00  0.00    -0.068 OA 
HETATM   26  H5* UNL     1      -6.144  12.137  70.039  1.00  0.00     0.000 HD 
ENDBRANCH  17  24
ENDBRANCH  14  15
ENDBRANCH   2   3
TORSDOF 3
ENDMDL
MODEL      212
REMARK 921   NORMALIZED FREE ENERGY PREDICTED BY IDOCK:   -2.80 KCAL/MOL
REMARK 922        TOTAL FREE ENERGY PREDICTED BY IDOCK:   -3.51 KCAL/MOL
REMARK 923 INTER-LIGAND FREE ENERGY PREDICTED BY IDOCK:   -4.49 KCAL/MOL
REMARK 924 INTRA-LIGAND FREE ENERGY PREDICTED BY IDOCK:    0.98 KCAL/MOL
REMARK 927      BINDING AFFINITY PREDICTED BY RF-SCORE:    0.00 PKD
ROOT
HETATM    1  C   UNL     1     -13.891   8.744  71.744  1.00  0.00    -0.423 C  
HETATM    2  O   UNL     1     -13.458  10.057  72.085  1.00  0.00    -0.428 OA 
ENDROOT
BRANCH   2   3
HETATM    3  C   UNL     1     -12.525  10.536  71.187  1.00  0.00    -0.412 A  
HETATM    4  N   UNL     1     -12.651  11.800  70.705  1.00  0.00    -0.293 NA 
HETATM    5  C   UNL     1     -11.710  12.273  69.882  1.00  0.00    -0.273 A  
HETATM    6  N   UNL     1     -11.822  13.598  69.512  1.00  0.00    -0.318 NA 
HETATM    7  N   UNL     1     -10.611  11.630  69.475  1.00  0.00     0.030 NA 
HETATM    8  H2  UNL     1     -11.873  14.183  70.346  1.00  0.00     0.000 HD 
HETATM    9  C   UNL     1     -10.498  10.401  70.003  1.00  0.00    -0.182 A  
HETATM   10  H1  UNL     1     -11.104  13.958  68.884  1.00  0.00     0.000 HD 
HETATM   11  C   UNL     1     -11.400   9.782  70.853  1.00  0.00    -0.365 A  
HETATM   12  N   UNL     1     -10.945   8.531  71.212  1.00  0.00    -0.243 NA 
HETATM   13  C   UNL     1      -9.776   8.415  70.621  1.00  0.00    -0.178 A  
HETATM   14  N   UNL     1      -9.454   9.530  69.886  1.00  0.00    -0.206 NA 
BRANCH  14  15
HETATM   15  C1* UNL     1      -8.157   9.751  69.284  1.00  0.00    -0.115 C  
HETATM   16  O4* UNL     1      -8.242  10.952  68.487  1.00  0.00    -0.124 OA 
HETATM   17  C4* UNL     1      -8.253  10.588  67.086  1.00  0.00    -0.123 C  
HETATM   18  H2* UNL     1      -7.484   6.675  68.182  1.00  0.00     0.000 HD 
HETATM   19  C3* UNL     1      -7.927   9.094  66.977  1.00  0.00    -0.102 C  
HETATM   20  C2* UNL     1      -7.539   8.678  68.391  1.00  0.00    -0.096 C  
HETATM   21  O3* UNL     1      -6.834   8.854  66.082  1.00  0.00    -0.072 OA 
HETATM   22  H3* UNL     1      -6.632   7.928  66.014  1.00  0.00     0.000 HD 
HETATM   23  O2* UNL     1      -7.869   7.342  68.738  1.00  0.00    -0.116 OA 
BRANCH  17  24
HETATM   24  C5* UNL     1      -9.615  10.951  66.475  1.00  0.00    -0.194 C  
HETATM   25  O5* UNL     1     -10.211   9.797  65.885  1.00  0.00    -0.259 OA 
HETATM   26  H5* UNL     1     -11.054  10.022  65.507  1.00  0.00     0.000 HD 
ENDBRANCH  17  24
ENDBRANCH  14  15
ENDBRANCH   2   3
TORSDOF 3
ENDMDL
MODEL      213
REMARK 921   NORMALIZED FREE ENERGY PREDICTED BY IDOCK:   -2.75 KCAL/MOL
REMARK 922        TOTAL FREE ENERGY PREDICTED BY IDOCK:   -3.45 KCAL/MOL
REMARK 923 INTER-LIGAND FREE ENERGY PREDICTED BY IDOCK:   -3.70 KCAL/MOL
REMARK 924 INTRA-LIGAND FREE ENERGY PREDICTED BY IDOCK:    0.24 KCAL/MOL
REMARK 927      BINDING AFFINITY PREDICTED BY RF-SCORE:    0.00 PKD
ROOT
HETATM    1  C   UNL     1      -8.514   5.679  71.232  1.00  0.00    -0.128 C  
HETATM    2  O   UNL     1      -9.512   5.328  70.279  1.00  0.00    -0.153 OA 
ENDROOT
BRANCH   2   3
HETATM    3  C   UNL     1      -9.209   5.810  69.022  1.00  0.00    -0.119 A  
HETATM    4  N   UNL     1      -8.605   4.992  68.122  1.00  0.00    -0.102 NA 
HETATM    5  C   UNL     1      -8.369   5.451  66.889  1.00  0.00    -0.108 A  
HETATM    6  N   UNL     1      -7.860   4.547  65.979  1.00  0.00    -0.094 NA 
HETATM    7  N   UNL     1      -8.684   6.661  66.416  1.00  0.00    -0.136 NA 
HETATM    8  H2  UNL     1      -8.470   3.730  65.930  1.00  0.00     0.000 HD 
HETATM    9  C   UNL     1      -9.315   7.428  67.318  1.00  0.00    -0.133 A  
HETATM   10  H1  UNL     1      -7.680   4.898  65.039  1.00  0.00     0.000 HD 
HETATM   11  C   UNL     1      -9.611   7.087  68.629  1.00  0.00    -0.138 A  
HETATM   12  N   UNL     1     -10.286   8.113  69.254  1.00  0.00    -0.210 NA 
HETATM   13  C   UNL     1     -10.429   9.037  68.328  1.00  0.00    -0.200 A  
HETATM   14  N   UNL     1      -9.868   8.662  67.132  1.00  0.00    -0.187 NA 
BRANCH  14  15
HETATM   15  C1* UNL     1     -10.034   9.399  65.898  1.00  0.00    -0.256 C  
HETATM   16  O4* UNL     1      -8.749   9.452  65.241  1.00  0.00    -0.153 OA 
HETATM   17  C4* UNL     1      -8.213  10.792  65.363  1.00  0.00    -0.077 C  
HETATM   18  H2* UNL     1     -11.817  11.997  66.997  1.00  0.00     0.000 HD 
HETATM   19  C3* UNL     1      -9.313  11.699  65.925  1.00  0.00    -0.218 C  
HETATM   20  C2* UNL     1     -10.566  10.830  65.931  1.00  0.00    -0.147 C  
HETATM   21  O3* UNL     1      -9.525  12.851  65.100  1.00  0.00    -0.462 OA 
HETATM   22  H3* UNL     1     -10.206  13.413  65.449  1.00  0.00     0.000 HD 
HETATM   23  O2* UNL     1     -11.486  11.106  66.977  1.00  0.00    -0.442 OA 
BRANCH  17  24
HETATM   24  C5* UNL     1      -6.953  10.760  66.243  1.00  0.00    -0.134 C  
HETATM   25  O5* UNL     1      -7.155  11.547  67.416  1.00  0.00    -0.101 OA 
HETATM   26  H5* UNL     1      -6.376  11.527  67.960  1.00  0.00     0.000 HD 
ENDBRANCH  17  24
ENDBRANCH  14  15
ENDBRANCH   2   3
TORSDOF 3
ENDMDL
MODEL      214
REMARK 921   NORMALIZED FREE ENERGY PREDICTED BY IDOCK:   -2.71 KCAL/MOL
REMARK 922        TOTAL FREE ENERGY PREDICTED BY IDOCK:   -3.41 KCAL/MOL
REMARK 923 INTER-LIGAND FREE ENERGY PREDICTED BY IDOCK:   -3.74 KCAL/MOL
REMARK 924 INTRA-LIGAND FREE ENERGY PREDICTED BY IDOCK:    0.33 KCAL/MOL
REMARK 927      BINDING AFFINITY PREDICTED BY RF-SCORE:    0.00 PKD
ROOT
HETATM    1  C   UNL     1      -8.895   6.834  73.443  1.00  0.00    -0.124 C  
HETATM    2  O   UNL     1      -8.876   6.325  72.114  1.00  0.00    -0.137 OA 
ENDROOT
BRANCH   2   3
HETATM    3  C   UNL     1      -9.573   7.141  71.246  1.00  0.00    -0.163 A  
HETATM    4  N   UNL     1     -10.867   7.453  71.518  1.00  0.00    -0.224 NA 
HETATM    5  C   UNL     1     -11.514   8.291  70.701  1.00  0.00    -0.225 A  
HETATM    6  N   UNL     1     -12.786   8.666  71.083  1.00  0.00    -0.483 NA 
HETATM    7  N   UNL     1     -11.013   8.892  69.618  1.00  0.00    -0.178 NA 
HETATM    8  H2  UNL     1     -12.759   9.058  72.024  1.00  0.00     0.000 HD 
HETATM    9  C   UNL     1      -9.723   8.594  69.403  1.00  0.00    -0.176 A  
HETATM   10  H1  UNL     1     -13.279   9.306  70.459  1.00  0.00     0.000 HD 
HETATM   11  C   UNL     1      -8.937   7.735  70.155  1.00  0.00    -0.146 A  
HETATM   12  N   UNL     1      -7.655   7.689  69.654  1.00  0.00    -0.091 NA 
HETATM   13  C   UNL     1      -7.656   8.532  68.644  1.00  0.00    -0.098 A  
HETATM   14  N   UNL     1      -8.885   9.117  68.460  1.00  0.00    -0.129 NA 
BRANCH  14  15
HETATM   15  C1* UNL     1      -9.127  10.212  67.545  1.00  0.00    -0.134 C  
HETATM   16  O4* UNL     1      -9.214  11.424  68.325  1.00  0.00    -0.170 OA 
HETATM   17  C4* UNL     1     -10.598  11.850  68.382  1.00  0.00    -0.218 C  
HETATM   18  H2* UNL     1     -11.535   8.883  65.656  1.00  0.00     0.000 HD 
HETATM   19  C3* UNL     1     -11.402  10.993  67.397  1.00  0.00    -0.230 C  
HETATM   20  C2* UNL     1     -10.354  10.189  66.637  1.00  0.00    -0.208 C  
HETATM   21  O3* UNL     1     -12.153  11.802  66.482  1.00  0.00    -0.498 OA 
HETATM   22  H3* UNL     1     -12.652  11.271  65.873  1.00  0.00     0.000 HD 
HETATM   23  O2* UNL     1     -10.771   8.897  66.221  1.00  0.00     0.090 OA 
BRANCH  17  24
HETATM   24  C5* UNL     1     -11.106  11.740  69.828  1.00  0.00     0.006 C  
HETATM   25  O5* UNL     1     -12.513  11.499  69.836  1.00  0.00    -0.200 OA 
HETATM   26  H5* UNL     1     -12.827  11.431  70.729  1.00  0.00     0.000 HD 
ENDBRANCH  17  24
ENDBRANCH  14  15
ENDBRANCH   2   3
TORSDOF 3
ENDMDL
MODEL      215
REMARK 921   NORMALIZED FREE ENERGY PREDICTED BY IDOCK:   -2.59 KCAL/MOL
REMARK 922        TOTAL FREE ENERGY PREDICTED BY IDOCK:   -3.27 KCAL/MOL
REMARK 923 INTER-LIGAND FREE ENERGY PREDICTED BY IDOCK:   -3.10 KCAL/MOL
REMARK 924 INTRA-LIGAND FREE ENERGY PREDICTED BY IDOCK:   -0.17 KCAL/MOL
REMARK 927      BINDING AFFINITY PREDICTED BY RF-SCORE:    0.00 PKD
ROOT
HETATM    1  C   UNL     1      -9.781   4.072  64.170  1.00  0.00    -0.164 C  
HETATM    2  O   UNL     1     -10.293   4.253  65.486  1.00  0.00    -0.239 OA 
ENDROOT
BRANCH   2   3
HETATM    3  C   UNL     1      -9.604   5.234  66.171  1.00  0.00    -0.161 A  
HETATM    4  N   UNL     1      -8.904   6.166  65.474  1.00  0.00    -0.103 NA 
HETATM    5  C   UNL     1      -8.288   7.145  66.145  1.00  0.00    -0.133 A  
HETATM    6  N   UNL     1      -7.688   8.131  65.387  1.00  0.00    -0.095 NA 
HETATM    7  N   UNL     1      -8.295   7.330  67.468  1.00  0.00    -0.116 NA 
HETATM    8  H2  UNL     1      -8.371   8.532  64.745  1.00  0.00     0.000 HD 
HETATM    9  C   UNL     1      -9.029   6.416  68.121  1.00  0.00    -0.116 A  
HETATM   10  H1  UNL     1      -7.219   8.878  65.900  1.00  0.00     0.000 HD 
HETATM   11  C   UNL     1      -9.706   5.345  67.558  1.00  0.00    -0.137 A  
HETATM   12  N   UNL     1     -10.372   4.631  68.529  1.00  0.00     0.081 NA 
HETATM   13  C   UNL     1     -10.135   5.279  69.649  1.00  0.00    -0.257 A  
HETATM   14  N   UNL     1      -9.336   6.378  69.451  1.00  0.00    -0.142 NA 
BRANCH  14  15
HETATM   15  C1* UNL     1      -9.065   7.371  70.468  1.00  0.00    -0.157 C  
HETATM   16  O4* UNL     1      -8.004   6.864  71.306  1.00  0.00    -0.106 OA 
HETATM   17  C4* UNL     1      -8.561   6.464  72.581  1.00  0.00    -0.122 C  
HETATM   18  H2* UNL     1     -12.177   8.103  71.422  1.00  0.00     0.000 HD 
HETATM   19  C3* UNL     1     -10.012   6.953  72.644  1.00  0.00    -0.171 C  
HETATM   20  C2* UNL     1     -10.181   7.825  71.406  1.00  0.00    -0.182 C  
HETATM   21  O3* UNL     1     -10.259   7.729  73.823  1.00  0.00    -0.326 OA 
HETATM   22  H3* UNL     1     -11.159   8.032  73.863  1.00  0.00     0.000 HD 
HETATM   23  O2* UNL     1     -11.483   7.820  70.838  1.00  0.00    -0.277 OA 
BRANCH  17  24
HETATM   24  C5* UNL     1      -8.433   4.940  72.738  1.00  0.00    -0.115 C  
HETATM   25  O5* UNL     1      -7.408   4.443  71.878  1.00  0.00    -0.064 OA 
HETATM   26  H5* UNL     1      -7.330   3.501  71.975  1.00  0.00     0.000 HD 
ENDBRANCH  17  24
ENDBRANCH  14  15
ENDBRANCH   2   3
TORSDOF 3
ENDMDL
MODEL      216
REMARK 921   NORMALIZED FREE ENERGY PREDICTED BY IDOCK:   -2.59 KCAL/MOL
REMARK 922        TOTAL FREE ENERGY PREDICTED BY IDOCK:   -3.26 KCAL/MOL
REMARK 923 INTER-LIGAND FREE ENERGY PREDICTED BY IDOCK:   -3.70 KCAL/MOL
REMARK 924 INTRA-LIGAND FREE ENERGY PREDICTED BY IDOCK:    0.44 KCAL/MOL
REMARK 927      BINDING AFFINITY PREDICTED BY RF-SCORE:    0.00 PKD
ROOT
HETATM    1  C   UNL     1      -6.211  10.963  69.514  1.00  0.00    -0.073 C  
HETATM    2  O   UNL     1      -7.268  10.606  70.399  1.00  0.00    -0.201 OA 
ENDROOT
BRANCH   2   3
HETATM    3  C   UNL     1      -8.165   9.745  69.799  1.00  0.00    -0.173 A  
HETATM    4  N   UNL     1      -9.237  10.254  69.137  1.00  0.00    -0.185 NA 
HETATM    5  C   UNL     1     -10.067   9.413  68.511  1.00  0.00    -0.187 A  
HETATM    6  N   UNL     1     -11.073   9.985  67.758  1.00  0.00    -0.452 NA 
HETATM    7  N   UNL     1      -9.952   8.084  68.443  1.00  0.00    -0.179 NA 
HETATM    8  H2  UNL     1     -10.668  10.635  67.083  1.00  0.00     0.000 HD 
HETATM    9  C   UNL     1      -8.861   7.620  69.072  1.00  0.00    -0.135 A  
HETATM   10  H1  UNL     1     -11.706   9.344  67.281  1.00  0.00     0.000 HD 
HETATM   11  C   UNL     1      -7.928   8.370  69.770  1.00  0.00    -0.104 A  
HETATM   12  N   UNL     1      -6.929   7.560  70.264  1.00  0.00    -0.054 NA 
HETATM   13  C   UNL     1      -7.232   6.353  69.841  1.00  0.00    -0.074 A  
HETATM   14  N   UNL     1      -8.390   6.339  69.101  1.00  0.00    -0.119 NA 
BRANCH  14  15
HETATM   15  C1* UNL     1      -8.860   5.187  68.362  1.00  0.00    -0.101 C  
HETATM   16  O4* UNL     1      -8.122   5.130  67.122  1.00  0.00    -0.103 OA 
HETATM   17  C4* UNL     1      -8.994   5.531  66.037  1.00  0.00    -0.152 C  
HETATM   18  H2* UNL     1     -12.156   5.570  68.703  1.00  0.00     0.000 HD 
HETATM   19  C3* UNL     1     -10.424   5.628  66.582  1.00  0.00    -0.279 C  
HETATM   20  C2* UNL     1     -10.337   5.067  67.997  1.00  0.00    -0.027 C  
HETATM   21  O3* UNL     1     -11.341   4.848  65.805  1.00  0.00    -0.849 OA 
HETATM   22  H3* UNL     1     -12.227   4.909  66.143  1.00  0.00     0.000 HD 
HETATM   23  O2* UNL     1     -11.237   5.645  68.931  1.00  0.00    -0.092 OA 
BRANCH  17  24
HETATM   24  C5* UNL     1      -8.489   6.854  65.439  1.00  0.00    -0.084 C  
HETATM   25  O5* UNL     1      -7.412   7.366  66.223  1.00  0.00    -0.080 OA 
HETATM   26  H5* UNL     1      -7.100   8.184  65.853  1.00  0.00     0.000 HD 
ENDBRANCH  17  24
ENDBRANCH  14  15
ENDBRANCH   2   3
TORSDOF 3
ENDMDL
MODEL      217
REMARK 921   NORMALIZED FREE ENERGY PREDICTED BY IDOCK:   -2.58 KCAL/MOL
REMARK 922        TOTAL FREE ENERGY PREDICTED BY IDOCK:   -3.26 KCAL/MOL
REMARK 923 INTER-LIGAND FREE ENERGY PREDICTED BY IDOCK:   -3.23 KCAL/MOL
REMARK 924 INTRA-LIGAND FREE ENERGY PREDICTED BY IDOCK:   -0.03 KCAL/MOL
REMARK 927      BINDING AFFINITY PREDICTED BY RF-SCORE:    0.00 PKD
ROOT
HETATM    1  C   UNL     1      -6.537   8.612  66.827  1.00  0.00    -0.061 C  
HETATM    2  O   UNL     1      -7.877   8.605  66.347  1.00  0.00    -0.096 OA 
ENDROOT
BRANCH   2   3
HETATM    3  C   UNL     1      -8.697   9.410  67.113  1.00  0.00    -0.128 A  
HETATM    4  N   UNL     1      -9.523   8.840  68.028  1.00  0.00    -0.142 NA 
HETATM    5  C   UNL     1     -10.270   9.632  68.805  1.00  0.00    -0.196 A  
HETATM    6  N   UNL     1     -11.005   9.011  69.795  1.00  0.00    -0.351 NA 
HETATM    7  N   UNL     1     -10.286  10.968  68.797  1.00  0.00    -0.192 NA 
HETATM    8  H2  UNL     1     -10.386   8.445  70.376  1.00  0.00     0.000 HD 
HETATM    9  C   UNL     1      -9.429  11.497  67.911  1.00  0.00    -0.178 A  
HETATM   10  H1  UNL     1     -11.574   9.616  70.387  1.00  0.00     0.000 HD 
HETATM   11  C   UNL     1      -8.609  10.800  67.038  1.00  0.00    -0.130 A  
HETATM   12  N   UNL     1      -7.846  11.672  66.292  1.00  0.00     0.031 NA 
HETATM   13  C   UNL     1      -8.170  12.867  66.733  1.00  0.00     0.097 A  
HETATM   14  N   UNL     1      -9.117  12.813  67.726  1.00  0.00    -0.187 NA 
BRANCH  14  15
HETATM   15  C1* UNL     1      -9.523  13.956  68.516  1.00  0.00    -0.174 C  
HETATM   16  O4* UNL     1     -10.245  14.856  67.646  1.00  0.00    -0.234 OA 
HETATM   17  C4* UNL     1      -9.410  16.005  67.360  1.00  0.00    -0.217 C  
HETATM   18  H2* UNL     1      -6.675  14.603  70.128  1.00  0.00     0.000 HD 
HETATM   19  C3* UNL     1      -8.183  15.946  68.277  1.00  0.00    -0.152 C  
HETATM   20  C2* UNL     1      -8.472  14.797  69.236  1.00  0.00    -0.043 C  
HETATM   21  O3* UNL     1      -8.013  17.163  69.014  1.00  0.00    -0.229 OA 
HETATM   22  H3* UNL     1      -7.252  17.126  69.582  1.00  0.00     0.000 HD 
HETATM   23  O2* UNL     1      -7.329  14.080  69.679  1.00  0.00     0.064 OA 
BRANCH  17  24
HETATM   24  C5* UNL     1      -9.045  16.011  65.868  1.00  0.00    -0.257 C  
HETATM   25  O5* UNL     1     -10.217  15.829  65.075  1.00  0.00    -0.456 OA 
HETATM   26  H5* UNL     1      -9.991  15.833  64.153  1.00  0.00     0.000 HD 
ENDBRANCH  17  24
ENDBRANCH  14  15
ENDBRANCH   2   3
TORSDOF 3
ENDMDL
MODEL      218
REMARK 921   NORMALIZED FREE ENERGY PREDICTED BY IDOCK:   -2.55 KCAL/MOL
REMARK 922        TOTAL FREE ENERGY PREDICTED BY IDOCK:   -3.22 KCAL/MOL
REMARK 923 INTER-LIGAND FREE ENERGY PREDICTED BY IDOCK:   -3.57 KCAL/MOL
REMARK 924 INTRA-LIGAND FREE ENERGY PREDICTED BY IDOCK:    0.35 KCAL/MOL
REMARK 927      BINDING AFFINITY PREDICTED BY RF-SCORE:    0.00 PKD
ROOT
HETATM    1  C   UNL     1     -12.267  12.856  65.607  1.00  0.00    -0.463 C  
HETATM    2  O   UNL     1     -11.252  12.588  66.569  1.00  0.00    -0.277 OA 
ENDROOT
BRANCH   2   3
HETATM    3  C   UNL     1     -10.389  11.601  66.138  1.00  0.00    -0.241 A  
HETATM    4  N   UNL     1     -10.184  11.431  64.805  1.00  0.00    -0.267 NA 
HETATM    5  C   UNL     1      -9.302  10.511  64.401  1.00  0.00    -0.262 A  
HETATM    6  N   UNL     1      -9.045  10.455  63.046  1.00  0.00    -0.237 NA 
HETATM    7  N   UNL     1      -8.560   9.722  65.183  1.00  0.00    -0.147 NA 
HETATM    8  H2  UNL     1      -8.757  11.376  62.714  1.00  0.00     0.000 HD 
HETATM    9  C   UNL     1      -8.757   9.945  66.491  1.00  0.00    -0.128 A  
HETATM   10  H1  UNL     1      -8.372   9.754  62.738  1.00  0.00     0.000 HD 
HETATM   11  C   UNL     1      -9.644  10.852  67.049  1.00  0.00    -0.173 A  
HETATM   12  N   UNL     1      -9.561  10.826  68.424  1.00  0.00    -0.169 NA 
HETATM   13  C   UNL     1      -8.615   9.951  68.689  1.00  0.00    -0.119 A  
HETATM   14  N   UNL     1      -8.087   9.399  67.547  1.00  0.00    -0.109 NA 
BRANCH  14  15
HETATM   15  C1* UNL     1      -6.916   8.549  67.531  1.00  0.00    -0.079 C  
HETATM   16  O4* UNL     1      -5.777   9.378  67.214  1.00  0.00    -0.041 OA 
HETATM   17  C4* UNL     1      -5.357   9.101  65.856  1.00  0.00    -0.040 C  
HETATM   18  H2* UNL     1      -8.072   5.983  65.740  1.00  0.00     0.000 HD 
HETATM   19  C3* UNL     1      -6.122   7.869  65.359  1.00  0.00    -0.038 C  
HETATM   20  C2* UNL     1      -6.858   7.349  66.589  1.00  0.00    -0.062 C  
HETATM   21  O3* UNL     1      -5.236   6.860  64.860  1.00  0.00    -0.026 OA 
HETATM   22  H3* UNL     1      -5.711   6.097  64.552  1.00  0.00     0.000 HD 
HETATM   23  O2* UNL     1      -8.108   6.729  66.326  1.00  0.00    -0.104 OA 
BRANCH  17  24
HETATM   24  C5* UNL     1      -5.592  10.346  64.985  1.00  0.00    -0.141 C  
HETATM   25  O5* UNL     1      -5.949  11.457  65.806  1.00  0.00    -0.449 OA 
HETATM   26  H5* UNL     1      -6.094  12.226  65.268  1.00  0.00     0.000 HD 
ENDBRANCH  17  24
ENDBRANCH  14  15
ENDBRANCH   2   3
TORSDOF 3
ENDMDL
MODEL      219
REMARK 921   NORMALIZED FREE ENERGY PREDICTED BY IDOCK:   -2.53 KCAL/MOL
REMARK 922        TOTAL FREE ENERGY PREDICTED BY IDOCK:   -3.20 KCAL/MOL
REMARK 923 INTER-LIGAND FREE ENERGY PREDICTED BY IDOCK:   -3.27 KCAL/MOL
REMARK 924 INTRA-LIGAND FREE ENERGY PREDICTED BY IDOCK:    0.07 KCAL/MOL
REMARK 927      BINDING AFFINITY PREDICTED BY RF-SCORE:    0.00 PKD
ROOT
HETATM    1  C   UNL     1      -8.028  10.369  69.211  1.00  0.00    -0.157 C  
HETATM    2  O   UNL     1      -9.312  10.160  68.632  1.00  0.00    -0.149 OA 
ENDROOT
BRANCH   2   3
HETATM    3  C   UNL     1      -9.714   8.845  68.745  1.00  0.00    -0.164 A  
HETATM    4  N   UNL     1     -10.659   8.514  69.665  1.00  0.00    -0.225 NA 
HETATM    5  C   UNL     1     -11.083   7.247  69.726  1.00  0.00    -0.182 A  
HETATM    6  N   UNL     1     -12.123   6.986  70.595  1.00  0.00    -0.546 NA 
HETATM    7  N   UNL     1     -10.684   6.235  68.950  1.00  0.00    -0.266 NA 
HETATM    8  H2  UNL     1     -12.909   7.601  70.383  1.00  0.00     0.000 HD 
HETATM    9  C   UNL     1      -9.782   6.607  68.027  1.00  0.00    -0.123 A  
HETATM   10  H1  UNL     1     -12.446   6.019  70.641  1.00  0.00     0.000 HD 
HETATM   11  C   UNL     1      -9.247   7.874  67.860  1.00  0.00    -0.134 A  
HETATM   12  N   UNL     1      -8.368   7.890  66.798  1.00  0.00    -0.118 NA 
HETATM   13  C   UNL     1      -8.403   6.669  66.312  1.00  0.00    -0.125 A  
HETATM   14  N   UNL     1      -9.257   5.855  67.016  1.00  0.00    -0.118 NA 
BRANCH  14  15
HETATM   15  C1* UNL     1      -9.629   4.522  66.595  1.00  0.00    -0.190 C  
HETATM   16  O4* UNL     1      -9.378   3.627  67.701  1.00  0.00    -0.173 OA 
HETATM   17  C4* UNL     1      -8.204   2.831  67.406  1.00  0.00    -0.082 C  
HETATM   18  H2* UNL     1      -8.185   4.425  63.589  1.00  0.00     0.000 HD 
HETATM   19  C3* UNL     1      -7.821   3.068  65.941  1.00  0.00    -0.081 C  
HETATM   20  C2* UNL     1      -8.966   3.896  65.370  1.00  0.00    -0.132 C  
HETATM   21  O3* UNL     1      -7.704   1.836  65.218  1.00  0.00    -0.068 OA 
HETATM   22  H3* UNL     1      -7.466   1.983  64.310  1.00  0.00     0.000 HD 
HETATM   23  O2* UNL     1      -8.597   4.814  64.352  1.00  0.00    -0.135 OA 
BRANCH  17  24
HETATM   24  C5* UNL     1      -7.080   3.198  68.388  1.00  0.00    -0.049 C  
HETATM   25  O5* UNL     1      -7.190   4.569  68.769  1.00  0.00    -0.052 OA 
HETATM   26  H5* UNL     1      -6.495   4.795  69.376  1.00  0.00     0.000 HD 
ENDBRANCH  17  24
ENDBRANCH  14  15
ENDBRANCH   2   3
TORSDOF 3
ENDMDL
MODEL      220
REMARK 921   NORMALIZED FREE ENERGY PREDICTED BY IDOCK:   -2.53 KCAL/MOL
REMARK 922        TOTAL FREE ENERGY PREDICTED BY IDOCK:   -3.20 KCAL/MOL
REMARK 923 INTER-LIGAND FREE ENERGY PREDICTED BY IDOCK:   -3.28 KCAL/MOL
REMARK 924 INTRA-LIGAND FREE ENERGY PREDICTED BY IDOCK:    0.09 KCAL/MOL
REMARK 927      BINDING AFFINITY PREDICTED BY RF-SCORE:    0.00 PKD
ROOT
HETATM    1  C   UNL     1      -5.658   4.619  70.430  1.00  0.00    -0.012 C  
HETATM    2  O   UNL     1      -5.961   5.406  69.283  1.00  0.00    -0.021 OA 
ENDROOT
BRANCH   2   3
HETATM    3  C   UNL     1      -6.813   6.447  69.591  1.00  0.00    -0.065 A  
HETATM    4  N   UNL     1      -6.481   7.308  70.588  1.00  0.00    -0.042 NA 
HETATM    5  C   UNL     1      -7.286   8.346  70.839  1.00  0.00    -0.059 A  
HETATM    6  N   UNL     1      -6.847   9.254  71.782  1.00  0.00    -0.312 NA 
HETATM    7  N   UNL     1      -8.411   8.657  70.188  1.00  0.00    -0.119 NA 
HETATM    8  H2  UNL     1      -5.920   9.592  71.525  1.00  0.00     0.000 HD 
HETATM    9  C   UNL     1      -8.686   7.810  69.184  1.00  0.00    -0.139 A  
HETATM   10  H1  UNL     1      -7.461  10.045  71.972  1.00  0.00     0.000 HD 
HETATM   11  C   UNL     1      -7.953   6.691  68.823  1.00  0.00    -0.118 A  
HETATM   12  N   UNL     1      -8.520   6.073  67.730  1.00  0.00    -0.108 NA 
HETATM   13  C   UNL     1      -9.552   6.826  67.414  1.00  0.00    -0.134 A  
HETATM   14  N   UNL     1      -9.687   7.900  68.260  1.00  0.00    -0.156 NA 
BRANCH  14  15
HETATM   15  C1* UNL     1     -10.617   8.986  68.040  1.00  0.00    -0.186 C  
HETATM   16  O4* UNL     1      -9.961   9.965  67.205  1.00  0.00    -0.177 OA 
HETATM   17  C4* UNL     1      -9.614  11.116  68.013  1.00  0.00    -0.176 C  
HETATM   18  H2* UNL     1     -11.732   9.448  71.150  1.00  0.00     0.000 HD 
HETATM   19  C3* UNL     1     -10.287  10.961  69.382  1.00  0.00    -0.145 C  
HETATM   20  C2* UNL     1     -11.196   9.746  69.230  1.00  0.00    -0.088 C  
HETATM   21  O3* UNL     1     -11.068  12.113  69.722  1.00  0.00    -0.475 OA 
HETATM   22  H3* UNL     1     -11.485  12.017  70.570  1.00  0.00     0.000 HD 
HETATM   23  O2* UNL     1     -11.372   8.975  70.409  1.00  0.00    -0.255 OA 
BRANCH  17  24
HETATM   24  C5* UNL     1      -8.084  11.231  68.107  1.00  0.00    -0.134 C  
HETATM   25  O5* UNL     1      -7.688  11.413  69.466  1.00  0.00    -0.360 OA 
HETATM   26  H5* UNL     1      -6.743  11.484  69.523  1.00  0.00     0.000 HD 
ENDBRANCH  17  24
ENDBRANCH  14  15
ENDBRANCH   2   3
TORSDOF 3
ENDMDL
MODEL      221
REMARK 921   NORMALIZED FREE ENERGY PREDICTED BY IDOCK:   -2.51 KCAL/MOL
REMARK 922        TOTAL FREE ENERGY PREDICTED BY IDOCK:   -3.17 KCAL/MOL
REMARK 923 INTER-LIGAND FREE ENERGY PREDICTED BY IDOCK:   -4.01 KCAL/MOL
REMARK 924 INTRA-LIGAND FREE ENERGY PREDICTED BY IDOCK:    0.83 KCAL/MOL
REMARK 927      BINDING AFFINITY PREDICTED BY RF-SCORE:    0.00 PKD
ROOT
HETATM    1  C   UNL     1      -5.997  10.421  69.124  1.00  0.00    -0.037 C  
HETATM    2  O   UNL     1      -6.477  10.405  70.464  1.00  0.00    -0.188 OA 
ENDROOT
BRANCH   2   3
HETATM    3  C   UNL     1      -7.288   9.313  70.702  1.00  0.00    -0.123 A  
HETATM    4  N   UNL     1      -7.779   9.108  71.952  1.00  0.00    -0.305 NA 
HETATM    5  C   UNL     1      -8.609   8.081  72.158  1.00  0.00    -0.155 A  
HETATM    6  N   UNL     1      -9.171   7.983  73.415  1.00  0.00    -0.275 NA 
HETATM    7  N   UNL     1      -9.042   7.210  71.241  1.00  0.00    -0.150 NA 
HETATM    8  H2  UNL     1      -9.642   8.857  73.649  1.00  0.00     0.000 HD 
HETATM    9  C   UNL     1      -8.571   7.468  70.011  1.00  0.00    -0.139 A  
HETATM   10  H1  UNL     1      -9.804   7.199  73.571  1.00  0.00     0.000 HD 
HETATM   11  C   UNL     1      -7.697   8.483  69.658  1.00  0.00    -0.093 A  
HETATM   12  N   UNL     1      -7.449   8.458  68.302  1.00  0.00    -0.095 NA 
HETATM   13  C   UNL     1      -8.189   7.473  67.842  1.00  0.00    -0.123 A  
HETATM   14  N   UNL     1      -8.899   6.849  68.839  1.00  0.00    -0.130 NA 
BRANCH  14  15
HETATM   15  C1* UNL     1      -9.925   5.858  68.598  1.00  0.00    -0.148 C  
HETATM   16  O4* UNL     1      -9.274   4.576  68.464  1.00  0.00    -0.117 OA 
HETATM   17  C4* UNL     1      -9.294   4.180  67.072  1.00  0.00    -0.175 C  
HETATM   18  H2* UNL     1     -11.727   7.427  66.270  1.00  0.00     0.000 HD 
HETATM   19  C3* UNL     1     -10.206   5.150  66.311  1.00  0.00    -0.253 C  
HETATM   20  C2* UNL     1     -10.855   6.002  67.396  1.00  0.00    -0.303 C  
HETATM   21  O3* UNL     1     -11.216   4.456  65.568  1.00  0.00    -0.741 OA 
HETATM   22  H3* UNL     1     -11.781   5.057  65.097  1.00  0.00     0.000 HD 
HETATM   23  O2* UNL     1     -11.148   7.338  67.018  1.00  0.00    -0.308 OA 
BRANCH  17  24
HETATM   24  C5* UNL     1      -7.857   4.155  66.527  1.00  0.00    -0.094 C  
HETATM   25  O5* UNL     1      -6.926   4.074  67.606  1.00  0.00    -0.054 OA 
HETATM   26  H5* UNL     1      -6.038   4.059  67.269  1.00  0.00     0.000 HD 
ENDBRANCH  17  24
ENDBRANCH  14  15
ENDBRANCH   2   3
TORSDOF 3
ENDMDL
MODEL      222
REMARK 921   NORMALIZED FREE ENERGY PREDICTED BY IDOCK:   -2.50 KCAL/MOL
REMARK 922        TOTAL FREE ENERGY PREDICTED BY IDOCK:   -3.17 KCAL/MOL
REMARK 923 INTER-LIGAND FREE ENERGY PREDICTED BY IDOCK:   -3.23 KCAL/MOL
REMARK 924 INTRA-LIGAND FREE ENERGY PREDICTED BY IDOCK:    0.07 KCAL/MOL
REMARK 927      BINDING AFFINITY PREDICTED BY RF-SCORE:    0.00 PKD
ROOT
HETATM    1  C   UNL     1      -6.691   8.035  74.128  1.00  0.00    -0.119 C  
HETATM    2  O   UNL     1      -6.189   7.000  73.288  1.00  0.00    -0.057 OA 
ENDROOT
BRANCH   2   3
HETATM    3  C   UNL     1      -7.044   6.739  72.236  1.00  0.00    -0.075 A  
HETATM    4  N   UNL     1      -8.211   6.084  72.473  1.00  0.00    -0.109 NA 
HETATM    5  C   UNL     1      -9.057   5.888  71.457  1.00  0.00    -0.143 A  
HETATM    6  N   UNL     1     -10.277   5.322  71.770  1.00  0.00    -0.203 NA 
HETATM    7  N   UNL     1      -8.891   6.288  70.193  1.00  0.00    -0.148 NA 
HETATM    8  H2  UNL     1     -10.734   5.874  72.495  1.00  0.00     0.000 HD 
HETATM    9  C   UNL     1      -7.749   6.967  70.005  1.00  0.00    -0.101 A  
HETATM   10  H1  UNL     1     -10.922   5.172  70.994  1.00  0.00     0.000 HD 
HETATM   11  C   UNL     1      -6.778   7.230  70.958  1.00  0.00    -0.048 A  
HETATM   12  N   UNL     1      -5.753   7.972  70.412  1.00  0.00    -0.025 NA 
HETATM   13  C   UNL     1      -6.116   8.184  69.166  1.00  0.00    -0.039 A  
HETATM   14  N   UNL     1      -7.327   7.605  68.874  1.00  0.00    -0.088 NA 
BRANCH  14  15
HETATM   15  C1* UNL     1      -8.051   7.829  67.641  1.00  0.00    -0.124 C  
HETATM   16  O4* UNL     1      -8.943   8.945  67.853  1.00  0.00    -0.138 OA 
HETATM   17  C4* UNL     1     -10.301   8.450  67.952  1.00  0.00    -0.221 C  
HETATM   18  H2* UNL     1      -8.922   4.699  66.888  1.00  0.00     0.000 HD 
HETATM   19  C3* UNL     1     -10.301   6.970  67.555  1.00  0.00    -0.225 C  
HETATM   20  C2* UNL     1      -8.891   6.708  67.036  1.00  0.00    -0.114 C  
HETATM   21  O3* UNL     1     -11.257   6.698  66.522  1.00  0.00    -0.584 OA 
HETATM   22  H3* UNL     1     -11.257   5.781  66.276  1.00  0.00     0.000 HD 
HETATM   23  O2* UNL     1      -8.399   5.396  67.265  1.00  0.00    -0.108 OA 
BRANCH  17  24
HETATM   24  C5* UNL     1     -10.828   8.689  69.376  1.00  0.00    -0.095 C  
HETATM   25  O5* UNL     1     -11.486   7.519  69.858  1.00  0.00    -0.470 OA 
HETATM   26  H5* UNL     1     -11.812   7.666  70.738  1.00  0.00     0.000 HD 
ENDBRANCH  17  24
ENDBRANCH  14  15
ENDBRANCH   2   3
TORSDOF 3
ENDMDL
MODEL      223
REMARK 921   NORMALIZED FREE ENERGY PREDICTED BY IDOCK:   -2.39 KCAL/MOL
REMARK 922        TOTAL FREE ENERGY PREDICTED BY IDOCK:   -3.03 KCAL/MOL
REMARK 923 INTER-LIGAND FREE ENERGY PREDICTED BY IDOCK:   -3.19 KCAL/MOL
REMARK 924 INTRA-LIGAND FREE ENERGY PREDICTED BY IDOCK:    0.16 KCAL/MOL
REMARK 927      BINDING AFFINITY PREDICTED BY RF-SCORE:    0.00 PKD
ROOT
HETATM    1  C   UNL     1      -9.583   3.983  64.616  1.00  0.00    -0.175 C  
HETATM    2  O   UNL     1     -10.557   4.544  65.491  1.00  0.00    -0.282 OA 
ENDROOT
BRANCH   2   3
HETATM    3  C   UNL     1      -9.990   4.977  66.673  1.00  0.00    -0.221 A  
HETATM    4  N   UNL     1      -9.994   4.155  67.754  1.00  0.00    -0.047 NA 
HETATM    5  C   UNL     1      -9.392   4.562  68.876  1.00  0.00    -0.147 A  
HETATM    6  N   UNL     1      -9.322   3.647  69.907  1.00  0.00    -0.161 NA 
HETATM    7  N   UNL     1      -8.749   5.719  69.060  1.00  0.00    -0.112 NA 
HETATM    8  H2  UNL     1      -8.882   2.788  69.574  1.00  0.00     0.000 HD 
HETATM    9  C   UNL     1      -8.730   6.488  67.960  1.00  0.00    -0.116 A  
HETATM   10  H1  UNL     1      -8.862   3.958  70.763  1.00  0.00     0.000 HD 
HETATM   11  C   UNL     1      -9.321   6.199  66.741  1.00  0.00    -0.140 A  
HETATM   12  N   UNL     1      -9.076   7.208  65.835  1.00  0.00    -0.076 NA 
HETATM   13  C   UNL     1      -8.320   8.068  66.482  1.00  0.00    -0.121 A  
HETATM   14  N   UNL     1      -8.071   7.668  67.772  1.00  0.00    -0.117 NA 
BRANCH  14  15
HETATM   15  C1* UNL     1      -7.125   8.324  68.650  1.00  0.00    -0.072 C  
HETATM   16  O4* UNL     1      -7.552   8.089  70.009  1.00  0.00    -0.079 OA 
HETATM   17  C4* UNL     1      -8.108   9.313  70.547  1.00  0.00    -0.174 C  
HETATM   18  H2* UNL     1      -6.861  11.282  67.130  1.00  0.00     0.000 HD 
HETATM   19  C3* UNL     1      -7.811  10.448  69.560  1.00  0.00    -0.155 C  
HETATM   20  C2* UNL     1      -6.883   9.826  68.523  1.00  0.00    -0.056 C  
HETATM   21  O3* UNL     1      -7.157  11.550  70.200  1.00  0.00    -0.409 OA 
HETATM   22  H3* UNL     1      -6.974  12.253  69.588  1.00  0.00     0.000 HD 
HETATM   23  O2* UNL     1      -7.012  10.348  67.209  1.00  0.00    -0.083 OA 
BRANCH  17  24
HETATM   24  C5* UNL     1      -9.611   9.120  70.806  1.00  0.00    -0.275 C  
HETATM   25  O5* UNL     1      -9.886   7.751  71.098  1.00  0.00    -0.169 OA 
HETATM   26  H5* UNL     1     -10.814   7.632  71.258  1.00  0.00     0.000 HD 
ENDBRANCH  17  24
ENDBRANCH  14  15
ENDBRANCH   2   3
TORSDOF 3
ENDMDL
MODEL      224
REMARK 921   NORMALIZED FREE ENERGY PREDICTED BY IDOCK:   -2.33 KCAL/MOL
REMARK 922        TOTAL FREE ENERGY PREDICTED BY IDOCK:   -2.96 KCAL/MOL
REMARK 923 INTER-LIGAND FREE ENERGY PREDICTED BY IDOCK:   -3.26 KCAL/MOL
REMARK 924 INTRA-LIGAND FREE ENERGY PREDICTED BY IDOCK:    0.30 KCAL/MOL
REMARK 927      BINDING AFFINITY PREDICTED BY RF-SCORE:    0.00 PKD
ROOT
HETATM    1  C   UNL     1      -5.872   4.736  70.165  1.00  0.00    -0.017 C  
HETATM    2  O   UNL     1      -5.814   5.696  69.115  1.00  0.00    -0.014 OA 
ENDROOT
BRANCH   2   3
HETATM    3  C   UNL     1      -6.385   6.896  69.489  1.00  0.00    -0.039 A  
HETATM    4  N   UNL     1      -6.037   7.459  70.675  1.00  0.00    -0.034 NA 
HETATM    5  C   UNL     1      -6.552   8.649  71.000  1.00  0.00    -0.053 A  
HETATM    6  N   UNL     1      -6.079   9.231  72.159  1.00  0.00    -0.260 NA 
HETATM    7  N   UNL     1      -7.388   9.383  70.260  1.00  0.00    -0.101 NA 
HETATM    8  H2  UNL     1      -5.062   9.297  72.118  1.00  0.00     0.000 HD 
HETATM    9  C   UNL     1      -7.678   8.816  69.079  1.00  0.00    -0.091 A  
HETATM   10  H1  UNL     1      -6.473  10.139  72.406  1.00  0.00     0.000 HD 
HETATM   11  C   UNL     1      -7.229   7.588  68.621  1.00  0.00    -0.086 A  
HETATM   12  N   UNL     1      -7.711   7.340  67.354  1.00  0.00    -0.108 NA 
HETATM   13  C   UNL     1      -8.404   8.413  67.040  1.00  0.00    -0.114 A  
HETATM   14  N   UNL     1      -8.403   9.344  68.049  1.00  0.00    -0.119 NA 
BRANCH  14  15
HETATM   15  C1* UNL     1      -8.928  10.685  67.909  1.00  0.00    -0.138 C  
HETATM   16  O4* UNL     1      -9.265  11.164  69.230  1.00  0.00    -0.021 OA 
HETATM   17  C4* UNL     1     -10.706  11.174  69.373  1.00  0.00    -0.175 C  
HETATM   18  H2* UNL     1     -11.030  10.234  65.358  1.00  0.00     0.000 HD 
HETATM   19  C3* UNL     1     -11.326  10.905  67.997  1.00  0.00    -0.312 C  
HETATM   20  C2* UNL     1     -10.150  10.937  67.029  1.00  0.00    -0.205 C  
HETATM   21  O3* UNL     1     -12.279  11.914  67.639  1.00  0.00    -0.510 OA 
HETATM   22  H3* UNL     1     -12.663  11.747  66.786  1.00  0.00     0.000 HD 
HETATM   23  O2* UNL     1     -10.270  10.077  65.906  1.00  0.00    -0.259 OA 
BRANCH  17  24
HETATM   24  C5* UNL     1     -11.120  10.138  70.431  1.00  0.00    -0.324 C  
HETATM   25  O5* UNL     1      -9.981   9.727  71.186  1.00  0.00    -0.277 OA 
HETATM   26  H5* UNL     1     -10.237   9.087  71.839  1.00  0.00     0.000 HD 
ENDBRANCH  17  24
ENDBRANCH  14  15
ENDBRANCH   2   3
TORSDOF 3
ENDMDL
MODEL      225
REMARK 921   NORMALIZED FREE ENERGY PREDICTED BY IDOCK:   -2.30 KCAL/MOL
REMARK 922        TOTAL FREE ENERGY PREDICTED BY IDOCK:   -2.93 KCAL/MOL
REMARK 923 INTER-LIGAND FREE ENERGY PREDICTED BY IDOCK:   -3.34 KCAL/MOL
REMARK 924 INTRA-LIGAND FREE ENERGY PREDICTED BY IDOCK:    0.41 KCAL/MOL
REMARK 927      BINDING AFFINITY PREDICTED BY RF-SCORE:    0.00 PKD
ROOT
HETATM    1  C   UNL     1      -7.884   8.085  73.880  1.00  0.00    -0.201 C  
HETATM    2  O   UNL     1      -8.130   6.943  73.067  1.00  0.00    -0.106 OA 
ENDROOT
BRANCH   2   3
HETATM    3  C   UNL     1      -8.862   7.266  71.942  1.00  0.00    -0.122 A  
HETATM    4  N   UNL     1     -10.218   7.304  72.017  1.00  0.00    -0.189 NA 
HETATM    5  C   UNL     1     -10.913   7.674  70.937  1.00  0.00    -0.250 A  
HETATM    6  N   UNL     1     -12.278   7.808  71.097  1.00  0.00    -0.399 NA 
HETATM    7  N   UNL     1     -10.412   8.041  69.754  1.00  0.00    -0.224 NA 
HETATM    8  H2  UNL     1     -12.471   8.450  71.867  1.00  0.00     0.000 HD 
HETATM    9  C   UNL     1      -9.070   8.031  69.728  1.00  0.00    -0.149 A  
HETATM   10  H1  UNL     1     -12.808   8.091  70.273  1.00  0.00     0.000 HD 
HETATM   11  C   UNL     1      -8.227   7.658  70.763  1.00  0.00    -0.109 A  
HETATM   12  N   UNL     1      -6.909   7.796  70.386  1.00  0.00    -0.045 NA 
HETATM   13  C   UNL     1      -6.956   8.280  69.164  1.00  0.00    -0.063 A  
HETATM   14  N   UNL     1      -8.246   8.452  68.725  1.00  0.00    -0.118 NA 
BRANCH  14  15
HETATM   15  C1* UNL     1      -8.595   9.134  67.497  1.00  0.00    -0.116 C  
HETATM   16  O4* UNL     1      -9.915   8.695  67.110  1.00  0.00    -0.188 OA 
HETATM   17  C4* UNL     1      -9.801   7.805  65.974  1.00  0.00     0.235 C  
HETATM   18  H2* UNL     1      -5.772   8.719  65.768  1.00  0.00     0.000 HD 
HETATM   19  C3* UNL     1      -8.356   7.860  65.466  1.00  0.00    -0.147 C  
HETATM   20  C2* UNL     1      -7.707   8.985  66.264  1.00  0.00    -0.095 C  
HETATM   21  O3* UNL     1      -8.297   8.162  64.065  1.00  0.00    -0.336 OA 
HETATM   22  H3* UNL     1      -7.401   8.195  63.751  1.00  0.00     0.000 HD 
HETATM   23  O2* UNL     1      -6.324   8.812  66.535  1.00  0.00    -0.060 OA 
BRANCH  17  24
HETATM   24  C5* UNL     1     -10.238   6.391  66.387  1.00  0.00     0.009 C  
HETATM   25  O5* UNL     1     -11.634   6.376  66.682  1.00  0.00    -0.671 OA 
HETATM   26  H5* UNL     1     -11.904   5.502  66.937  1.00  0.00     0.000 HD 
ENDBRANCH  17  24
ENDBRANCH  14  15
ENDBRANCH   2   3
TORSDOF 3
ENDMDL
MODEL      226
REMARK 921   NORMALIZED FREE ENERGY PREDICTED BY IDOCK:   -2.30 KCAL/MOL
REMARK 922        TOTAL FREE ENERGY PREDICTED BY IDOCK:   -2.93 KCAL/MOL
REMARK 923 INTER-LIGAND FREE ENERGY PREDICTED BY IDOCK:   -4.03 KCAL/MOL
REMARK 924 INTRA-LIGAND FREE ENERGY PREDICTED BY IDOCK:    1.11 KCAL/MOL
REMARK 927      BINDING AFFINITY PREDICTED BY RF-SCORE:    0.00 PKD
ROOT
HETATM    1  C   UNL     1      -6.474   9.748  68.903  1.00  0.00    -0.045 C  
HETATM    2  O   UNL     1      -6.509   9.997  70.305  1.00  0.00    -0.087 OA 
ENDROOT
BRANCH   2   3
HETATM    3  C   UNL     1      -7.200   9.011  70.980  1.00  0.00    -0.106 A  
HETATM    4  N   UNL     1      -7.270   9.056  72.336  1.00  0.00    -0.320 NA 
HETATM    5  C   UNL     1      -7.990   8.129  72.976  1.00  0.00    -0.165 A  
HETATM    6  N   UNL     1      -8.125   8.284  74.341  1.00  0.00    -0.313 NA 
HETATM    7  N   UNL     1      -8.688   7.136  72.416  1.00  0.00    -0.123 NA 
HETATM    8  H2  UNL     1      -8.500   9.211  74.544  1.00  0.00     0.000 HD 
HETATM    9  C   UNL     1      -8.630   7.147  71.075  1.00  0.00    -0.133 A  
HETATM   10  H1  UNL     1      -8.674   7.577  74.828  1.00  0.00     0.000 HD 
HETATM   11  C   UNL     1      -7.915   8.034  70.287  1.00  0.00    -0.104 A  
HETATM   12  N   UNL     1      -8.109   7.757  68.951  1.00  0.00    -0.124 NA 
HETATM   13  C   UNL     1      -8.953   6.749  68.933  1.00  0.00    -0.131 A  
HETATM   14  N   UNL     1      -9.310   6.351  70.199  1.00  0.00    -0.157 NA 
BRANCH  14  15
HETATM   15  C1* UNL     1     -10.357   5.392  70.476  1.00  0.00    -0.274 C  
HETATM   16  O4* UNL     1     -11.594   6.123  70.625  1.00  0.00    -0.321 OA 
HETATM   17  C4* UNL     1     -11.961   6.147  72.025  1.00  0.00    -0.253 C  
HETATM   18  H2* UNL     1      -8.854   3.529  72.800  1.00  0.00     0.000 HD 
HETATM   19  C3* UNL     1     -11.033   5.188  72.780  1.00  0.00    -0.267 C  
HETATM   20  C2* UNL     1     -10.246   4.472  71.689  1.00  0.00    -0.144 C  
HETATM   21  O3* UNL     1     -11.773   4.234  73.553  1.00  0.00    -0.204 OA 
HETATM   22  H3* UNL     1     -11.198   3.640  74.021  1.00  0.00     0.000 HD 
HETATM   23  O2* UNL     1      -8.922   4.102  72.045  1.00  0.00    -0.114 OA 
BRANCH  17  24
HETATM   24  C5* UNL     1     -11.885   7.591  72.547  1.00  0.00    -0.221 C  
HETATM   25  O5* UNL     1     -11.217   7.622  73.808  1.00  0.00    -0.428 OA 
HETATM   26  H5* UNL     1     -11.170   8.514  74.131  1.00  0.00     0.000 HD 
ENDBRANCH  17  24
ENDBRANCH  14  15
ENDBRANCH   2   3
TORSDOF 3
ENDMDL
MODEL      227
REMARK 921   NORMALIZED FREE ENERGY PREDICTED BY IDOCK:   -2.27 KCAL/MOL
REMARK 922        TOTAL FREE ENERGY PREDICTED BY IDOCK:   -2.90 KCAL/MOL
REMARK 923 INTER-LIGAND FREE ENERGY PREDICTED BY IDOCK:   -3.10 KCAL/MOL
REMARK 924 INTRA-LIGAND FREE ENERGY PREDICTED BY IDOCK:    0.20 KCAL/MOL
REMARK 927      BINDING AFFINITY PREDICTED BY RF-SCORE:    0.00 PKD
ROOT
HETATM    1  C   UNL     1      -8.025   2.871  70.938  1.00  0.00    -0.050 C  
HETATM    2  O   UNL     1      -8.089   3.314  69.587  1.00  0.00    -0.049 OA 
ENDROOT
BRANCH   2   3
HETATM    3  C   UNL     1      -8.692   4.551  69.484  1.00  0.00    -0.082 A  
HETATM    4  N   UNL     1      -9.630   4.913  70.398  1.00  0.00    -0.173 NA 
HETATM    5  C   UNL     1     -10.165   6.136  70.322  1.00  0.00    -0.199 A  
HETATM    6  N   UNL     1     -11.026   6.497  71.339  1.00  0.00    -0.248 NA 
HETATM    7  N   UNL     1      -9.864   7.084  69.431  1.00  0.00    -0.159 NA 
HETATM    8  H2  UNL     1     -10.560   6.382  72.240  1.00  0.00     0.000 HD 
HETATM    9  C   UNL     1      -8.906   6.707  68.570  1.00  0.00    -0.122 A  
HETATM   10  H1  UNL     1     -11.434   7.430  71.282  1.00  0.00     0.000 HD 
HETATM   11  C   UNL     1      -8.276   5.473  68.523  1.00  0.00    -0.098 A  
HETATM   12  N   UNL     1      -7.328   5.452  67.523  1.00  0.00    -0.075 NA 
HETATM   13  C   UNL     1      -7.358   6.660  67.004  1.00  0.00    -0.082 A  
HETATM   14  N   UNL     1      -8.290   7.463  67.614  1.00  0.00    -0.117 NA 
BRANCH  14  15
HETATM   15  C1* UNL     1      -8.411   8.885  67.371  1.00  0.00    -0.115 C  
HETATM   16  O4* UNL     1      -7.449   9.557  68.212  1.00  0.00    -0.077 OA 
HETATM   17  C4* UNL     1      -8.148  10.211  69.299  1.00  0.00    -0.149 C  
HETATM   18  H2* UNL     1     -11.728   9.223  67.478  1.00  0.00     0.000 HD 
HETATM   19  C3* UNL     1      -9.652  10.144  69.009  1.00  0.00    -0.196 C  
HETATM   20  C2* UNL     1      -9.749   9.585  67.594  1.00  0.00    -0.154 C  
HETATM   21  O3* UNL     1     -10.260  11.441  69.062  1.00  0.00    -0.306 OA 
HETATM   22  H3* UNL     1     -11.192  11.399  68.883  1.00  0.00     0.000 HD 
HETATM   23  O2* UNL     1     -10.896   8.787  67.339  1.00  0.00    -0.213 OA 
BRANCH  17  24
HETATM   24  C5* UNL     1      -7.763   9.542  70.628  1.00  0.00    -0.124 C  
HETATM   25  O5* UNL     1      -8.934   9.273  71.399  1.00  0.00    -0.311 OA 
HETATM   26  H5* UNL     1      -8.695   8.860  72.220  1.00  0.00     0.000 HD 
ENDBRANCH  17  24
ENDBRANCH  14  15
ENDBRANCH   2   3
TORSDOF 3
ENDMDL
MODEL      228
REMARK 921   NORMALIZED FREE ENERGY PREDICTED BY IDOCK:   -2.25 KCAL/MOL
REMARK 922        TOTAL FREE ENERGY PREDICTED BY IDOCK:   -2.87 KCAL/MOL
REMARK 923 INTER-LIGAND FREE ENERGY PREDICTED BY IDOCK:   -2.74 KCAL/MOL
REMARK 924 INTRA-LIGAND FREE ENERGY PREDICTED BY IDOCK:   -0.13 KCAL/MOL
REMARK 927      BINDING AFFINITY PREDICTED BY RF-SCORE:    0.00 PKD
ROOT
HETATM    1  C   UNL     1      -6.415   7.919  62.607  1.00  0.00    -0.084 C  
HETATM    2  O   UNL     1      -5.941   7.010  63.595  1.00  0.00    -0.038 OA 
ENDROOT
BRANCH   2   3
HETATM    3  C   UNL     1      -6.920   6.707  64.520  1.00  0.00    -0.054 A  
HETATM    4  N   UNL     1      -7.864   5.780  64.210  1.00  0.00    -0.108 NA 
HETATM    5  C   UNL     1      -8.773   5.452  65.134  1.00  0.00    -0.133 A  
HETATM    6  N   UNL     1      -9.638   4.425  64.812  1.00  0.00    -0.220 NA 
HETATM    7  N   UNL     1      -8.854   5.934  66.377  1.00  0.00    -0.130 NA 
HETATM    8  H2  UNL     1      -9.103   3.598  64.547  1.00  0.00     0.000 HD 
HETATM    9  C   UNL     1      -7.883   6.814  66.662  1.00  0.00    -0.107 A  
HETATM   10  H1  UNL     1     -10.331   4.175  65.517  1.00  0.00     0.000 HD 
HETATM   11  C   UNL     1      -6.890   7.255  65.802  1.00  0.00    -0.056 A  
HETATM   12  N   UNL     1      -6.052   8.141  66.444  1.00  0.00    -0.045 NA 
HETATM   13  C   UNL     1      -6.507   8.204  67.677  1.00  0.00    -0.057 A  
HETATM   14  N   UNL     1      -7.609   7.405  67.862  1.00  0.00    -0.111 NA 
BRANCH  14  15
HETATM   15  C1* UNL     1      -8.203   7.139  69.155  1.00  0.00    -0.122 C  
HETATM   16  O4* UNL     1      -9.438   7.885  69.233  1.00  0.00    -0.152 OA 
HETATM   17  C4* UNL     1      -9.254   9.009  70.128  1.00  0.00    -0.192 C  
HETATM   18  H2* UNL     1      -5.531   7.503  71.119  1.00  0.00     0.000 HD 
HETATM   19  C3* UNL     1      -7.904   8.841  70.835  1.00  0.00    -0.120 C  
HETATM   20  C2* UNL     1      -7.424   7.452  70.430  1.00  0.00    -0.085 C  
HETATM   21  O3* UNL     1      -8.040   8.912  72.260  1.00  0.00    -0.376 OA 
HETATM   22  H3* UNL     1      -7.203   8.809  72.698  1.00  0.00     0.000 HD 
HETATM   23  O2* UNL     1      -6.015   7.309  70.325  1.00  0.00    -0.024 OA 
BRANCH  17  24
HETATM   24  C5* UNL     1      -9.355  10.318  69.330  1.00  0.00    -0.207 C  
HETATM   25  O5* UNL     1      -8.085  10.967  69.290  1.00  0.00    -0.320 OA 
HETATM   26  H5* UNL     1      -8.148  11.776  68.796  1.00  0.00     0.000 HD 
ENDBRANCH  17  24
ENDBRANCH  14  15
ENDBRANCH   2   3
TORSDOF 3
ENDMDL
MODEL      229
REMARK 921   NORMALIZED FREE ENERGY PREDICTED BY IDOCK:   -2.20 KCAL/MOL
REMARK 922        TOTAL FREE ENERGY PREDICTED BY IDOCK:   -2.82 KCAL/MOL
REMARK 923 INTER-LIGAND FREE ENERGY PREDICTED BY IDOCK:   -2.80 KCAL/MOL
REMARK 924 INTRA-LIGAND FREE ENERGY PREDICTED BY IDOCK:   -0.02 KCAL/MOL
REMARK 927      BINDING AFFINITY PREDICTED BY RF-SCORE:    0.00 PKD
ROOT
HETATM    1  C   UNL     1      -5.747  10.759  66.187  1.00  0.00    -0.129 C  
HETATM    2  O   UNL     1      -6.379   9.485  66.113  1.00  0.00    -0.066 OA 
ENDROOT
BRANCH   2   3
HETATM    3  C   UNL     1      -7.486   9.417  66.935  1.00  0.00    -0.091 A  
HETATM    4  N   UNL     1      -8.588  10.151  66.629  1.00  0.00    -0.126 NA 
HETATM    5  C   UNL     1      -9.675  10.032  67.399  1.00  0.00    -0.161 A  
HETATM    6  N   UNL     1     -10.804  10.708  66.982  1.00  0.00    -0.261 NA 
HETATM    7  N   UNL     1      -9.814   9.237  68.463  1.00  0.00    -0.154 NA 
HETATM    8  H2  UNL     1     -11.031  10.437  66.024  1.00  0.00     0.000 HD 
HETATM    9  C   UNL     1      -8.722   8.498  68.711  1.00  0.00    -0.139 A  
HETATM   10  H1  UNL     1     -11.633  10.618  67.569  1.00  0.00     0.000 HD 
HETATM   11  C   UNL     1      -7.528   8.528  68.008  1.00  0.00    -0.097 A  
HETATM   12  N   UNL     1      -6.637   7.616  68.531  1.00  0.00    -0.052 NA 
HETATM   13  C   UNL     1      -7.293   7.021  69.504  1.00  0.00    -0.094 A  
HETATM   14  N   UNL     1      -8.568   7.512  69.643  1.00  0.00    -0.136 NA 
BRANCH  14  15
HETATM   15  C1* UNL     1      -9.568   6.922  70.506  1.00  0.00    -0.169 C  
HETATM   16  O4* UNL     1      -9.010   6.844  71.836  1.00  0.00    -0.137 OA 
HETATM   17  C4* UNL     1      -8.689   5.463  72.132  1.00  0.00    -0.130 C  
HETATM   18  H2* UNL     1     -10.552   4.362  68.607  1.00  0.00     0.000 HD 
HETATM   19  C3* UNL     1      -9.284   4.585  71.025  1.00  0.00    -0.140 C  
HETATM   20  C2* UNL     1     -10.129   5.538  70.187  1.00  0.00    -0.239 C  
HETATM   21  O3* UNL     1     -10.111   3.544  71.560  1.00  0.00    -0.142 OA 
HETATM   22  H3* UNL     1     -10.479   3.000  70.874  1.00  0.00     0.000 HD 
HETATM   23  O2* UNL     1     -10.202   5.223  68.805  1.00  0.00    -0.182 OA 
BRANCH  17  24
HETATM   24  C5* UNL     1      -7.165   5.311  72.265  1.00  0.00    -0.091 C  
HETATM   25  O5* UNL     1      -6.840   4.705  73.515  1.00  0.00    -0.064 OA 
HETATM   26  H5* UNL     1      -5.899   4.611  73.597  1.00  0.00     0.000 HD 
ENDBRANCH  17  24
ENDBRANCH  14  15
ENDBRANCH   2   3
TORSDOF 3
ENDMDL
MODEL      230
REMARK 921   NORMALIZED FREE ENERGY PREDICTED BY IDOCK:   -2.19 KCAL/MOL
REMARK 922        TOTAL FREE ENERGY PREDICTED BY IDOCK:   -2.80 KCAL/MOL
REMARK 923 INTER-LIGAND FREE ENERGY PREDICTED BY IDOCK:   -4.47 KCAL/MOL
REMARK 924 INTRA-LIGAND FREE ENERGY PREDICTED BY IDOCK:    1.67 KCAL/MOL
REMARK 927      BINDING AFFINITY PREDICTED BY RF-SCORE:    0.00 PKD
ROOT
HETATM    1  C   UNL     1      -7.063   9.932  62.371  1.00  0.00    -0.115 C  
HETATM    2  O   UNL     1      -8.471   9.765  62.503  1.00  0.00    -0.141 OA 
ENDROOT
BRANCH   2   3
HETATM    3  C   UNL     1      -8.994  10.597  63.473  1.00  0.00    -0.208 A  
HETATM    4  N   UNL     1     -10.215  11.161  63.280  1.00  0.00    -0.365 NA 
HETATM    5  C   UNL     1     -10.737  11.917  64.251  1.00  0.00    -0.338 A  
HETATM    6  N   UNL     1     -12.025  12.372  64.054  1.00  0.00    -0.421 NA 
HETATM    7  N   UNL     1     -10.185  12.180  65.439  1.00  0.00    -0.264 NA 
HETATM    8  H2  UNL     1     -12.642  11.582  63.866  1.00  0.00     0.000 HD 
HETATM    9  C   UNL     1      -9.000  11.574  65.612  1.00  0.00    -0.074 A  
HETATM   10  H1  UNL     1     -12.423  12.949  64.795  1.00  0.00     0.000 HD 
HETATM   11  C   UNL     1      -8.338  10.778  64.691  1.00  0.00     0.021 A  
HETATM   12  N   UNL     1      -7.157  10.306  65.221  1.00  0.00    -0.137 NA 
HETATM   13  C   UNL     1      -7.127  10.776  66.449  1.00  0.00    -0.134 A  
HETATM   14  N   UNL     1      -8.230  11.540  66.739  1.00  0.00    -0.163 NA 
BRANCH  14  15
HETATM   15  C1* UNL     1      -8.547  12.028  68.063  1.00  0.00    -0.170 C  
HETATM   16  O4* UNL     1      -8.911  10.890  68.875  1.00  0.00    -0.163 OA 
HETATM   17  C4* UNL     1     -10.343  10.905  69.092  1.00  0.00    -0.208 C  
HETATM   18  H2* UNL     1     -10.494  14.624  67.288  1.00  0.00     0.000 HD 
HETATM   19  C3* UNL     1     -10.890  12.245  68.587  1.00  0.00    -0.236 C  
HETATM   20  C2* UNL     1      -9.651  13.066  68.249  1.00  0.00    -0.213 C  
HETATM   21  O3* UNL     1     -11.659  12.916  69.593  1.00  0.00    -0.356 OA 
HETATM   22  H3* UNL     1     -11.999  13.746  69.279  1.00  0.00     0.000 HD 
HETATM   23  O2* UNL     1      -9.808  13.978  67.172  1.00  0.00    -0.231 OA 
BRANCH  17  24
HETATM   24  C5* UNL     1     -10.978   9.694  68.390  1.00  0.00    -0.113 C  
HETATM   25  O5* UNL     1     -11.257   8.667  69.341  1.00  0.00    -0.439 OA 
HETATM   26  H5* UNL     1     -11.650   7.919  68.907  1.00  0.00     0.000 HD 
ENDBRANCH  17  24
ENDBRANCH  14  15
ENDBRANCH   2   3
TORSDOF 3
ENDMDL
MODEL      231
REMARK 921   NORMALIZED FREE ENERGY PREDICTED BY IDOCK:   -2.07 KCAL/MOL
REMARK 922        TOTAL FREE ENERGY PREDICTED BY IDOCK:   -2.66 KCAL/MOL
REMARK 923 INTER-LIGAND FREE ENERGY PREDICTED BY IDOCK:   -3.20 KCAL/MOL
REMARK 924 INTRA-LIGAND FREE ENERGY PREDICTED BY IDOCK:    0.55 KCAL/MOL
REMARK 927      BINDING AFFINITY PREDICTED BY RF-SCORE:    0.00 PKD
ROOT
HETATM    1  C   UNL     1      -5.376  12.613  67.722  1.00  0.00    -0.112 C  
HETATM    2  O   UNL     1      -6.412  12.585  68.698  1.00  0.00    -0.067 OA 
ENDROOT
BRANCH   2   3
HETATM    3  C   UNL     1      -7.401  11.681  68.365  1.00  0.00    -0.096 A  
HETATM    4  N   UNL     1      -8.227  11.952  67.321  1.00  0.00    -0.162 NA 
HETATM    5  C   UNL     1      -9.143  11.043  66.971  1.00  0.00    -0.147 A  
HETATM    6  N   UNL     1      -9.880  11.314  65.836  1.00  0.00    -0.222 NA 
HETATM    7  N   UNL     1      -9.338   9.849  67.538  1.00  0.00    -0.140 NA 
HETATM    8  H2  UNL     1      -9.250  11.486  65.052  1.00  0.00     0.000 HD 
HETATM    9  C   UNL     1      -8.478   9.598  68.538  1.00  0.00    -0.118 A  
HETATM   10  H1  UNL     1     -10.578  10.621  65.569  1.00  0.00     0.000 HD 
HETATM   11  C   UNL     1      -7.493  10.449  69.013  1.00  0.00    -0.106 A  
HETATM   12  N   UNL     1      -6.786   9.848  70.032  1.00  0.00    -0.084 NA 
HETATM   13  C   UNL     1      -7.307   8.646  70.142  1.00  0.00    -0.053 A  
HETATM   14  N   UNL     1      -8.329   8.441  69.247  1.00  0.00    -0.120 NA 
BRANCH  14  15
HETATM   15  C1* UNL     1      -8.958   7.157  69.022  1.00  0.00    -0.134 C  
HETATM   16  O4* UNL     1      -8.140   6.427  68.081  1.00  0.00    -0.111 OA 
HETATM   17  C4* UNL     1      -8.811   6.397  66.798  1.00  0.00    -0.124 C  
HETATM   18  H2* UNL     1     -12.123   8.116  68.585  1.00  0.00     0.000 HD 
HETATM   19  C3* UNL     1     -10.234   6.937  66.990  1.00  0.00    -0.248 C  
HETATM   20  C2* UNL     1     -10.390   7.091  68.498  1.00  0.00    -0.186 C  
HETATM   21  O3* UNL     1     -11.219   6.023  66.490  1.00  0.00    -0.741 OA 
HETATM   22  H3* UNL     1     -12.100   6.358  66.608  1.00  0.00     0.000 HD 
HETATM   23  O2* UNL     1     -11.232   8.157  68.911  1.00  0.00     0.201 OA 
BRANCH  17  24
HETATM   24  C5* UNL     1      -7.995   7.205  65.776  1.00  0.00    -0.123 C  
HETATM   25  O5* UNL     1      -8.365   6.832  64.450  1.00  0.00    -0.313 OA 
HETATM   26  H5* UNL     1      -7.861   7.332  63.818  1.00  0.00     0.000 HD 
ENDBRANCH  17  24
ENDBRANCH  14  15
ENDBRANCH   2   3
TORSDOF 3
ENDMDL
MODEL      232
REMARK 921   NORMALIZED FREE ENERGY PREDICTED BY IDOCK:   -2.07 KCAL/MOL
REMARK 922        TOTAL FREE ENERGY PREDICTED BY IDOCK:   -2.65 KCAL/MOL
REMARK 923 INTER-LIGAND FREE ENERGY PREDICTED BY IDOCK:   -3.48 KCAL/MOL
REMARK 924 INTRA-LIGAND FREE ENERGY PREDICTED BY IDOCK:    0.83 KCAL/MOL
REMARK 927      BINDING AFFINITY PREDICTED BY RF-SCORE:    0.00 PKD
ROOT
HETATM    1  C   UNL     1     -12.784   7.417  71.031  1.00  0.00    -0.205 C  
HETATM    2  O   UNL     1     -11.866   6.401  70.643  1.00  0.00    -0.367 OA 
ENDROOT
BRANCH   2   3
HETATM    3  C   UNL     1     -11.288   6.676  69.420  1.00  0.00    -0.271 A  
HETATM    4  N   UNL     1     -11.527   5.849  68.369  1.00  0.00     0.363 NA 
HETATM    5  C   UNL     1     -11.009   6.157  67.175  1.00  0.00    -0.331 A  
HETATM    6  N   UNL     1     -11.375   5.350  66.117  1.00  0.00    -0.596 NA 
HETATM    7  N   UNL     1     -10.271   7.231  66.881  1.00  0.00    -0.261 NA 
HETATM    8  H2  UNL     1     -12.393   5.314  66.050  1.00  0.00     0.000 HD 
HETATM    9  C   UNL     1     -10.089   8.046  67.931  1.00  0.00    -0.194 A  
HETATM   10  H1  UNL     1     -10.980   5.586  65.206  1.00  0.00     0.000 HD 
HETATM   11  C   UNL     1     -10.553   7.845  69.222  1.00  0.00    -0.188 A  
HETATM   12  N   UNL     1     -10.197   8.900  70.033  1.00  0.00    -0.192 NA 
HETATM   13  C   UNL     1      -9.565   9.738  69.239  1.00  0.00    -0.197 A  
HETATM   14  N   UNL     1      -9.485   9.270  67.951  1.00  0.00    -0.136 NA 
BRANCH  14  15
HETATM   15  C1* UNL     1      -9.009  10.059  66.835  1.00  0.00    -0.135 C  
HETATM   16  O4* UNL     1      -8.922   9.187  65.687  1.00  0.00    -0.177 OA 
HETATM   17  C4* UNL     1      -7.527   8.908  65.413  1.00  0.00    -0.086 C  
HETATM   18  H2* UNL     1      -6.490  11.687  68.295  1.00  0.00     0.000 HD 
HETATM   19  C3* UNL     1      -6.673   9.831  66.289  1.00  0.00    -0.087 C  
HETATM   20  C2* UNL     1      -7.670  10.787  66.933  1.00  0.00    -0.130 C  
HETATM   21  O3* UNL     1      -5.723  10.571  65.511  1.00  0.00    -0.104 OA 
HETATM   22  H3* UNL     1      -5.193  11.142  66.054  1.00  0.00     0.000 HD 
HETATM   23  O2* UNL     1      -7.322  11.234  68.234  1.00  0.00    -0.085 OA 
BRANCH  17  24
HETATM   24  C5* UNL     1      -7.248   7.417  65.660  1.00  0.00    -0.066 C  
HETATM   25  O5* UNL     1      -6.084   7.265  66.471  1.00  0.00    -0.037 OA 
HETATM   26  H5* UNL     1      -5.911   6.343  66.624  1.00  0.00     0.000 HD 
ENDBRANCH  17  24
ENDBRANCH  14  15
ENDBRANCH   2   3
TORSDOF 3
ENDMDL
MODEL      233
REMARK 921   NORMALIZED FREE ENERGY PREDICTED BY IDOCK:   -2.07 KCAL/MOL
REMARK 922        TOTAL FREE ENERGY PREDICTED BY IDOCK:   -2.65 KCAL/MOL
REMARK 923 INTER-LIGAND FREE ENERGY PREDICTED BY IDOCK:   -3.14 KCAL/MOL
REMARK 924 INTRA-LIGAND FREE ENERGY PREDICTED BY IDOCK:    0.48 KCAL/MOL
REMARK 927      BINDING AFFINITY PREDICTED BY RF-SCORE:    0.00 PKD
ROOT
HETATM    1  C   UNL     1      -6.419  10.720  62.593  1.00  0.00    -0.013 C  
HETATM    2  O   UNL     1      -7.631  10.101  63.010  1.00  0.00    -0.138 OA 
ENDROOT
BRANCH   2   3
HETATM    3  C   UNL     1      -7.744  10.075  64.385  1.00  0.00    -0.145 A  
HETATM    4  N   UNL     1      -6.846   9.362  65.114  1.00  0.00    -0.082 NA 
HETATM    5  C   UNL     1      -6.930   9.391  66.448  1.00  0.00    -0.084 A  
HETATM    6  N   UNL     1      -5.928   8.747  67.144  1.00  0.00    -0.052 NA 
HETATM    7  N   UNL     1      -7.816  10.078  67.175  1.00  0.00    -0.099 NA 
HETATM    8  H2  UNL     1      -5.020   9.107  66.850  1.00  0.00     0.000 HD 
HETATM    9  C   UNL     1      -8.661  10.802  66.425  1.00  0.00    -0.158 A  
HETATM   10  H1  UNL     1      -5.992   8.769  68.162  1.00  0.00     0.000 HD 
HETATM   11  C   UNL     1      -8.697  10.855  65.041  1.00  0.00    -0.101 A  
HETATM   12  N   UNL     1      -9.681  11.721  64.616  1.00  0.00    -0.196 NA 
HETATM   13  C   UNL     1     -10.201  12.210  65.721  1.00  0.00    -0.254 A  
HETATM   14  N   UNL     1      -9.606  11.693  66.846  1.00  0.00    -0.184 NA 
BRANCH  14  15
HETATM   15  C1* UNL     1      -9.850  12.184  68.185  1.00  0.00    -0.207 C  
HETATM   16  O4* UNL     1     -11.281  12.230  68.381  1.00  0.00    -0.226 OA 
HETATM   17  C4* UNL     1     -11.715  13.612  68.354  1.00  0.00    -0.358 C  
HETATM   18  H2* UNL     1      -7.746  14.771  68.260  1.00  0.00     0.000 HD 
HETATM   19  C3* UNL     1     -10.470  14.505  68.372  1.00  0.00    -0.246 C  
HETATM   20  C2* UNL     1      -9.308  13.547  68.608  1.00  0.00    -0.035 C  
HETATM   21  O3* UNL     1     -10.525  15.471  69.429  1.00  0.00    -0.220 OA 
HETATM   22  H3* UNL     1      -9.754  16.025  69.440  1.00  0.00     0.000 HD 
HETATM   23  O2* UNL     1      -8.083  13.923  67.996  1.00  0.00    -0.130 OA 
BRANCH  17  24
HETATM   24  C5* UNL     1     -12.603  13.844  67.121  1.00  0.00     0.163 C  
HETATM   25  O5* UNL     1     -11.823  14.366  66.047  1.00  0.00    -0.373 OA 
HETATM   26  H5* UNL     1     -12.372  14.509  65.285  1.00  0.00     0.000 HD 
ENDBRANCH  17  24
ENDBRANCH  14  15
ENDBRANCH   2   3
TORSDOF 3
ENDMDL
MODEL      234
REMARK 921   NORMALIZED FREE ENERGY PREDICTED BY IDOCK:   -2.05 KCAL/MOL
REMARK 922        TOTAL FREE ENERGY PREDICTED BY IDOCK:   -2.64 KCAL/MOL
REMARK 923 INTER-LIGAND FREE ENERGY PREDICTED BY IDOCK:   -2.56 KCAL/MOL
REMARK 924 INTRA-LIGAND FREE ENERGY PREDICTED BY IDOCK:   -0.07 KCAL/MOL
REMARK 927      BINDING AFFINITY PREDICTED BY RF-SCORE:    0.00 PKD
ROOT
HETATM    1  C   UNL     1      -7.609   5.231  72.407  1.00  0.00    -0.097 C  
HETATM    2  O   UNL     1      -8.520   5.867  71.516  1.00  0.00    -0.126 OA 
ENDROOT
BRANCH   2   3
HETATM    3  C   UNL     1      -7.970   6.039  70.262  1.00  0.00    -0.107 A  
HETATM    4  N   UNL     1      -7.672   4.948  69.509  1.00  0.00    -0.066 NA 
HETATM    5  C   UNL     1      -7.194   5.128  68.274  1.00  0.00    -0.067 A  
HETATM    6  N   UNL     1      -7.016   3.993  67.509  1.00  0.00    -0.055 NA 
HETATM    7  N   UNL     1      -6.981   6.299  67.665  1.00  0.00    -0.073 NA 
HETATM    8  H2  UNL     1      -7.891   3.470  67.465  1.00  0.00     0.000 HD 
HETATM    9  C   UNL     1      -7.324   7.352  68.421  1.00  0.00    -0.103 A  
HETATM   10  H1  UNL     1      -6.651   4.131  66.566  1.00  0.00     0.000 HD 
HETATM   11  C   UNL     1      -7.816   7.314  69.716  1.00  0.00    -0.117 A  
HETATM   12  N   UNL     1      -8.080   8.588  70.170  1.00  0.00    -0.107 NA 
HETATM   13  C   UNL     1      -7.791   9.375  69.157  1.00  0.00    -0.080 A  
HETATM   14  N   UNL     1      -7.340   8.671  68.067  1.00  0.00    -0.091 NA 
BRANCH  14  15
HETATM   15  C1* UNL     1      -7.124   9.258  66.763  1.00  0.00    -0.082 C  
HETATM   16  O4* UNL     1      -6.583  10.582  66.962  1.00  0.00    -0.071 OA 
HETATM   17  C4* UNL     1      -7.607  11.560  66.658  1.00  0.00    -0.088 C  
HETATM   18  H2* UNL     1     -10.013   8.490  65.282  1.00  0.00     0.000 HD 
HETATM   19  C3* UNL     1      -8.790  10.830  66.012  1.00  0.00    -0.180 C  
HETATM   20  C2* UNL     1      -8.292   9.406  65.790  1.00  0.00    -0.122 C  
HETATM   21  O3* UNL     1      -9.154  11.418  64.757  1.00  0.00    -0.386 OA 
HETATM   22  H3* UNL     1      -9.888  10.966  64.357  1.00  0.00     0.000 HD 
HETATM   23  O2* UNL     1      -9.287   8.398  65.887  1.00  0.00    -0.200 OA 
BRANCH  17  24
HETATM   24  C5* UNL     1      -7.993  12.310  67.942  1.00  0.00    -0.152 C  
HETATM   25  O5* UNL     1      -9.408  12.277  68.122  1.00  0.00    -0.196 OA 
HETATM   26  H5* UNL     1      -9.647  12.741  68.916  1.00  0.00     0.000 HD 
ENDBRANCH  17  24
ENDBRANCH  14  15
ENDBRANCH   2   3
TORSDOF 3
ENDMDL
MODEL      235
REMARK 921   NORMALIZED FREE ENERGY PREDICTED BY IDOCK:   -2.04 KCAL/MOL
REMARK 922        TOTAL FREE ENERGY PREDICTED BY IDOCK:   -2.63 KCAL/MOL
REMARK 923 INTER-LIGAND FREE ENERGY PREDICTED BY IDOCK:   -2.55 KCAL/MOL
REMARK 924 INTRA-LIGAND FREE ENERGY PREDICTED BY IDOCK:   -0.07 KCAL/MOL
REMARK 927      BINDING AFFINITY PREDICTED BY RF-SCORE:    0.00 PKD
ROOT
HETATM    1  C   UNL     1      -6.980   8.430  73.386  1.00  0.00    -0.080 C  
HETATM    2  O   UNL     1      -6.046   8.156  72.347  1.00  0.00    -0.047 OA 
ENDROOT
BRANCH   2   3
HETATM    3  C   UNL     1      -6.622   7.431  71.323  1.00  0.00    -0.043 A  
HETATM    4  N   UNL     1      -6.814   6.095  71.478  1.00  0.00    -0.066 NA 
HETATM    5  C   UNL     1      -7.425   5.414  70.504  1.00  0.00    -0.072 A  
HETATM    6  N   UNL     1      -7.699   4.085  70.757  1.00  0.00    -0.051 NA 
HETATM    7  N   UNL     1      -7.901   5.914  69.360  1.00  0.00    -0.093 NA 
HETATM    8  H2  UNL     1      -8.237   4.005  71.621  1.00  0.00     0.000 HD 
HETATM    9  C   UNL     1      -7.731   7.242  69.258  1.00  0.00    -0.107 A  
HETATM   10  H1  UNL     1      -8.165   3.566  70.014  1.00  0.00     0.000 HD 
HETATM   11  C   UNL     1      -7.106   8.067  70.180  1.00  0.00    -0.049 A  
HETATM   12  N   UNL     1      -7.137   9.377  69.754  1.00  0.00    -0.062 NA 
HETATM   13  C   UNL     1      -7.801   9.348  68.619  1.00  0.00    -0.088 A  
HETATM   14  N   UNL     1      -8.195   8.076  68.282  1.00  0.00    -0.122 NA 
BRANCH  14  15
HETATM   15  C1* UNL     1      -9.091   7.773  67.187  1.00  0.00    -0.134 C  
HETATM   16  O4* UNL     1      -8.284   7.390  66.052  1.00  0.00    -0.116 OA 
HETATM   17  C4* UNL     1      -8.296   8.464  65.081  1.00  0.00    -0.167 C  
HETATM   18  H2* UNL     1     -11.153  10.389  67.370  1.00  0.00     0.000 HD 
HETATM   19  C3* UNL     1      -9.349   9.490  65.515  1.00  0.00    -0.255 C  
HETATM   20  C2* UNL     1     -10.069   8.833  66.688  1.00  0.00    -0.288 C  
HETATM   21  O3* UNL     1     -10.284   9.768  64.465  1.00  0.00    -0.344 OA 
HETATM   22  H3* UNL     1     -10.936  10.404  64.734  1.00  0.00     0.000 HD 
HETATM   23  O2* UNL     1     -10.544   9.729  67.681  1.00  0.00    -0.242 OA 
BRANCH  17  24
HETATM   24  C5* UNL     1      -6.886   9.064  64.966  1.00  0.00    -0.076 C  
HETATM   25  O5* UNL     1      -5.985   8.098  64.425  1.00  0.00    -0.055 OA 
HETATM   26  H5* UNL     1      -5.114   8.469  64.354  1.00  0.00     0.000 HD 
ENDBRANCH  17  24
ENDBRANCH  14  15
ENDBRANCH   2   3
TORSDOF 3
ENDMDL
MODEL      236
REMARK 921   NORMALIZED FREE ENERGY PREDICTED BY IDOCK:   -1.98 KCAL/MOL
REMARK 922        TOTAL FREE ENERGY PREDICTED BY IDOCK:   -2.55 KCAL/MOL
REMARK 923 INTER-LIGAND FREE ENERGY PREDICTED BY IDOCK:   -3.16 KCAL/MOL
REMARK 924 INTRA-LIGAND FREE ENERGY PREDICTED BY IDOCK:    0.62 KCAL/MOL
REMARK 927      BINDING AFFINITY PREDICTED BY RF-SCORE:    0.00 PKD
ROOT
HETATM    1  C   UNL     1      -9.955   4.108  64.560  1.00  0.00    -0.161 C  
HETATM    2  O   UNL     1     -10.567   4.697  65.703  1.00  0.00    -0.287 OA 
ENDROOT
BRANCH   2   3
HETATM    3  C   UNL     1      -9.717   5.580  66.338  1.00  0.00    -0.163 A  
HETATM    4  N   UNL     1      -8.546   5.923  65.741  1.00  0.00    -0.150 NA 
HETATM    5  C   UNL     1      -7.758   6.823  66.338  1.00  0.00    -0.098 A  
HETATM    6  N   UNL     1      -6.638   7.224  65.638  1.00  0.00    -0.047 NA 
HETATM    7  N   UNL     1      -8.004   7.460  67.486  1.00  0.00    -0.112 NA 
HETATM    8  H2  UNL     1      -6.913   7.566  64.717  1.00  0.00     0.000 HD 
HETATM    9  C   UNL     1      -9.186   7.128  68.026  1.00  0.00    -0.130 A  
HETATM   10  H1  UNL     1      -6.037   7.911  66.093  1.00  0.00     0.000 HD 
HETATM   11  C   UNL     1     -10.092   6.205  67.527  1.00  0.00    -0.158 A  
HETATM   12  N   UNL     1     -11.208   6.140  68.332  1.00  0.00    -0.258 NA 
HETATM   13  C   UNL     1     -10.998   7.032  69.275  1.00  0.00    -0.178 A  
HETATM   14  N   UNL     1      -9.790   7.668  69.125  1.00  0.00    -0.168 NA 
BRANCH  14  15
HETATM   15  C1* UNL     1      -9.381   8.815  69.907  1.00  0.00    -0.162 C  
HETATM   16  O4* UNL     1      -8.007   9.108  69.571  1.00  0.00    -0.089 OA 
HETATM   17  C4* UNL     1      -7.157   8.708  70.673  1.00  0.00    -0.056 C  
HETATM   18  H2* UNL     1     -10.554   7.938  72.904  1.00  0.00     0.000 HD 
HETATM   19  C3* UNL     1      -8.054   8.353  71.865  1.00  0.00    -0.145 C  
HETATM   20  C2* UNL     1      -9.456   8.765  71.431  1.00  0.00    -0.259 C  
HETATM   21  O3* UNL     1      -7.678   9.075  73.045  1.00  0.00    -0.268 OA 
HETATM   22  H3* UNL     1      -8.234   8.855  73.783  1.00  0.00     0.000 HD 
HETATM   23  O2* UNL     1     -10.508   7.969  71.956  1.00  0.00    -0.215 OA 
BRANCH  17  24
HETATM   24  C5* UNL     1      -6.261   7.541  70.228  1.00  0.00    -0.034 C  
HETATM   25  O5* UNL     1      -5.173   8.030  69.444  1.00  0.00    -0.025 OA 
HETATM   26  H5* UNL     1      -4.619   7.309  69.170  1.00  0.00     0.000 HD 
ENDBRANCH  17  24
ENDBRANCH  14  15
ENDBRANCH   2   3
TORSDOF 3
ENDMDL
MODEL      237
REMARK 921   NORMALIZED FREE ENERGY PREDICTED BY IDOCK:   -1.90 KCAL/MOL
REMARK 922        TOTAL FREE ENERGY PREDICTED BY IDOCK:   -2.45 KCAL/MOL
REMARK 923 INTER-LIGAND FREE ENERGY PREDICTED BY IDOCK:   -4.03 KCAL/MOL
REMARK 924 INTRA-LIGAND FREE ENERGY PREDICTED BY IDOCK:    1.58 KCAL/MOL
REMARK 927      BINDING AFFINITY PREDICTED BY RF-SCORE:    0.00 PKD
ROOT
HETATM    1  C   UNL     1      -9.305  15.762  68.125  1.00  0.00    -0.194 C  
HETATM    2  O   UNL     1      -8.857  14.476  68.541  1.00  0.00    -0.174 OA 
ENDROOT
BRANCH   2   3
HETATM    3  C   UNL     1      -9.694  13.475  68.089  1.00  0.00    -0.233 A  
HETATM    4  N   UNL     1     -10.706  13.785  67.238  1.00  0.00    -0.281 NA 
HETATM    5  C   UNL     1     -11.473  12.800  66.761  1.00  0.00    -0.343 A  
HETATM    6  N   UNL     1     -12.412  13.151  65.812  1.00  0.00    -0.462 NA 
HETATM    7  N   UNL     1     -11.346  11.495  67.021  1.00  0.00    -0.420 NA 
HETATM    8  H2  UNL     1     -11.953  13.633  65.039  1.00  0.00     0.000 HD 
HETATM    9  C   UNL     1     -10.312  11.221  67.832  1.00  0.00    -0.182 A  
HETATM   10  H1  UNL     1     -12.997  12.399  65.449  1.00  0.00     0.000 HD 
HETATM   11  C   UNL     1      -9.448  12.139  68.407  1.00  0.00    -0.179 A  
HETATM   12  N   UNL     1      -8.492  11.495  69.163  1.00  0.00     0.124 NA 
HETATM   13  C   UNL     1      -8.751  10.214  69.014  1.00  0.00    -0.161 A  
HETATM   14  N   UNL     1      -9.838   9.996  68.204  1.00  0.00    -0.140 NA 
BRANCH  14  15
HETATM   15  C1* UNL     1     -10.236   8.690  67.723  1.00  0.00    -0.225 C  
HETATM   16  O4* UNL     1      -9.915   7.727  68.751  1.00  0.00    -0.166 OA 
HETATM   17  C4* UNL     1      -8.762   6.957  68.332  1.00  0.00    -0.124 C  
HETATM   18  H2* UNL     1      -8.986   8.793  64.632  1.00  0.00     0.000 HD 
HETATM   19  C3* UNL     1      -8.473   7.290  66.863  1.00  0.00    -0.119 C  
HETATM   20  C2* UNL     1      -9.652   8.148  66.421  1.00  0.00    -0.216 C  
HETATM   21  O3* UNL     1      -8.402   6.107  66.056  1.00  0.00    -0.123 OA 
HETATM   22  H3* UNL     1      -8.222   6.313  65.147  1.00  0.00     0.000 HD 
HETATM   23  O2* UNL     1      -9.348   9.131  65.442  1.00  0.00    -0.234 OA 
BRANCH  17  24
HETATM   24  C5* UNL     1      -7.578   7.265  69.261  1.00  0.00    -0.102 C  
HETATM   25  O5* UNL     1      -7.417   8.676  69.400  1.00  0.00    -0.077 OA 
HETATM   26  H5* UNL     1      -6.685   8.867  69.974  1.00  0.00     0.000 HD 
ENDBRANCH  17  24
ENDBRANCH  14  15
ENDBRANCH   2   3
TORSDOF 3
ENDMDL
MODEL      238
REMARK 921   NORMALIZED FREE ENERGY PREDICTED BY IDOCK:   -1.74 KCAL/MOL
REMARK 922        TOTAL FREE ENERGY PREDICTED BY IDOCK:   -2.27 KCAL/MOL
REMARK 923 INTER-LIGAND FREE ENERGY PREDICTED BY IDOCK:   -3.08 KCAL/MOL
REMARK 924 INTRA-LIGAND FREE ENERGY PREDICTED BY IDOCK:    0.81 KCAL/MOL
REMARK 927      BINDING AFFINITY PREDICTED BY RF-SCORE:    0.00 PKD
ROOT
HETATM    1  C   UNL     1      -7.728  10.451  64.828  1.00  0.00    -0.069 C  
HETATM    2  O   UNL     1      -7.156  10.605  66.123  1.00  0.00    -0.128 OA 
ENDROOT
BRANCH   2   3
HETATM    3  C   UNL     1      -7.334   9.475  66.896  1.00  0.00    -0.087 A  
HETATM    4  N   UNL     1      -6.282   8.972  67.592  1.00  0.00    -0.055 NA 
HETATM    5  C   UNL     1      -6.479   7.912  68.383  1.00  0.00    -0.053 A  
HETATM    6  N   UNL     1      -5.409   7.511  69.156  1.00  0.00    -0.015 NA 
HETATM    7  N   UNL     1      -7.636   7.276  68.588  1.00  0.00    -0.111 NA 
HETATM    8  H2  UNL     1      -5.075   8.297  69.714  1.00  0.00     0.000 HD 
HETATM    9  C   UNL     1      -8.661   7.825  67.917  1.00  0.00    -0.122 A  
HETATM   10  H1  UNL     1      -5.560   6.702  69.759  1.00  0.00     0.000 HD 
HETATM   11  C   UNL     1      -8.599   8.909  67.056  1.00  0.00    -0.116 A  
HETATM   12  N   UNL     1      -9.851   9.209  66.566  1.00  0.00    -0.242 NA 
HETATM   13  C   UNL     1     -10.657   8.348  67.148  1.00  0.00    -0.256 A  
HETATM   14  N   UNL     1      -9.984   7.495  67.988  1.00  0.00    -0.165 NA 
BRANCH  14  15
HETATM   15  C1* UNL     1     -10.637   6.573  68.892  1.00  0.00    -0.241 C  
HETATM   16  O4* UNL     1     -10.834   7.255  70.149  1.00  0.00    -0.245 OA 
HETATM   17  C4* UNL     1      -9.897   6.732  71.121  1.00  0.00    -0.177 C  
HETATM   18  H2* UNL     1      -8.796   3.838  68.378  1.00  0.00     0.000 HD 
HETATM   19  C3* UNL     1      -9.223   5.494  70.518  1.00  0.00    -0.148 C  
HETATM   20  C2* UNL     1      -9.980   5.234  69.221  1.00  0.00    -0.215 C  
HETATM   21  O3* UNL     1      -9.336   4.356  71.382  1.00  0.00    -0.129 OA 
HETATM   22  H3* UNL     1      -8.918   3.589  71.009  1.00  0.00     0.000 HD 
HETATM   23  O2* UNL     1      -9.204   4.671  68.173  1.00  0.00    -0.115 OA 
BRANCH  17  24
HETATM   24  C5* UNL     1      -8.895   7.832  71.508  1.00  0.00    -0.129 C  
HETATM   25  O5* UNL     1      -9.425   9.115  71.179  1.00  0.00    -0.261 OA 
HETATM   26  H5* UNL     1      -8.806   9.795  71.418  1.00  0.00     0.000 HD 
ENDBRANCH  17  24
ENDBRANCH  14  15
ENDBRANCH   2   3
TORSDOF 3
ENDMDL
MODEL      239
REMARK 921   NORMALIZED FREE ENERGY PREDICTED BY IDOCK:   -1.60 KCAL/MOL
REMARK 922        TOTAL FREE ENERGY PREDICTED BY IDOCK:   -2.11 KCAL/MOL
REMARK 923 INTER-LIGAND FREE ENERGY PREDICTED BY IDOCK:   -2.76 KCAL/MOL
REMARK 924 INTRA-LIGAND FREE ENERGY PREDICTED BY IDOCK:    0.65 KCAL/MOL
REMARK 927      BINDING AFFINITY PREDICTED BY RF-SCORE:    0.00 PKD
ROOT
HETATM    1  C   UNL     1      -9.904   4.003  64.218  1.00  0.00    -0.172 C  
HETATM    2  O   UNL     1     -10.414   4.332  65.506  1.00  0.00    -0.233 OA 
ENDROOT
BRANCH   2   3
HETATM    3  C   UNL     1      -9.541   5.140  66.208  1.00  0.00    -0.164 A  
HETATM    4  N   UNL     1      -8.462   5.665  65.572  1.00  0.00    -0.141 NA 
HETATM    5  C   UNL     1      -7.656   6.493  66.246  1.00  0.00    -0.090 A  
HETATM    6  N   UNL     1      -6.642   7.090  65.525  1.00  0.00    -0.050 NA 
HETATM    7  N   UNL     1      -7.803   6.890  67.513  1.00  0.00    -0.110 NA 
HETATM    8  H2  UNL     1      -7.035   7.576  64.718  1.00  0.00     0.000 HD 
HETATM    9  C   UNL     1      -8.900   6.384  68.097  1.00  0.00    -0.114 A  
HETATM   10  H1  UNL     1      -6.028   7.721  66.039  1.00  0.00     0.000 HD 
HETATM   11  C   UNL     1      -9.810   5.509  67.526  1.00  0.00    -0.144 A  
HETATM   12  N   UNL     1     -10.825   5.221  68.412  1.00  0.00     0.095 NA 
HETATM   13  C   UNL     1     -10.553   5.938  69.481  1.00  0.00    -0.308 A  
HETATM   14  N   UNL     1      -9.402   6.671  69.334  1.00  0.00    -0.147 NA 
BRANCH  14  15
HETATM   15  C1* UNL     1      -8.964   7.681  70.273  1.00  0.00    -0.146 C  
HETATM   16  O4* UNL     1      -9.788   8.851  70.075  1.00  0.00    -0.166 OA 
HETATM   17  C4* UNL     1      -9.004   9.872  69.411  1.00  0.00    -0.195 C  
HETATM   18  H2* UNL     1      -5.660   7.480  69.861  1.00  0.00     0.000 HD 
HETATM   19  C3* UNL     1      -7.541   9.414  69.389  1.00  0.00    -0.083 C  
HETATM   20  C2* UNL     1      -7.515   8.161  70.257  1.00  0.00    -0.067 C  
HETATM   21  O3* UNL     1      -6.667  10.406  69.942  1.00  0.00    -0.100 OA 
HETATM   22  H3* UNL     1      -5.760  10.122  69.928  1.00  0.00     0.000 HD 
HETATM   23  O2* UNL     1      -6.561   7.181  69.871  1.00  0.00    -0.042 OA 
BRANCH  17  24
HETATM   24  C5* UNL     1      -9.576  10.120  68.006  1.00  0.00    -0.145 C  
HETATM   25  O5* UNL     1     -10.519   9.102  67.674  1.00  0.00    -0.240 OA 
HETATM   26  H5* UNL     1     -10.872   9.255  66.806  1.00  0.00     0.000 HD 
ENDBRANCH  17  24
ENDBRANCH  14  15
ENDBRANCH   2   3
TORSDOF 3
ENDMDL
MODEL      240
REMARK 921   NORMALIZED FREE ENERGY PREDICTED BY IDOCK:   -1.53 KCAL/MOL
REMARK 922        TOTAL FREE ENERGY PREDICTED BY IDOCK:   -2.02 KCAL/MOL
REMARK 923 INTER-LIGAND FREE ENERGY PREDICTED BY IDOCK:   -2.42 KCAL/MOL
REMARK 924 INTRA-LIGAND FREE ENERGY PREDICTED BY IDOCK:    0.41 KCAL/MOL
REMARK 927      BINDING AFFINITY PREDICTED BY RF-SCORE:    0.00 PKD
ROOT
HETATM    1  C   UNL     1      -7.737  10.448  64.831  1.00  0.00    -0.084 C  
HETATM    2  O   UNL     1      -7.207  10.610  66.142  1.00  0.00    -0.129 OA 
ENDROOT
BRANCH   2   3
HETATM    3  C   UNL     1      -7.434   9.496  66.925  1.00  0.00    -0.094 A  
HETATM    4  N   UNL     1      -6.655   8.395  66.760  1.00  0.00    -0.056 NA 
HETATM    5  C   UNL     1      -6.847   7.343  67.563  1.00  0.00    -0.078 A  
HETATM    6  N   UNL     1      -5.957   6.297  67.433  1.00  0.00    -0.017 NA 
HETATM    7  N   UNL     1      -7.737   7.251  68.556  1.00  0.00    -0.118 NA 
HETATM    8  H2  UNL     1      -5.003   6.643  67.542  1.00  0.00     0.000 HD 
HETATM    9  C   UNL     1      -8.460   8.370  68.717  1.00  0.00    -0.124 A  
HETATM   10  H1  UNL     1      -6.103   5.495  68.046  1.00  0.00     0.000 HD 
HETATM   11  C   UNL     1      -8.377   9.523  67.952  1.00  0.00    -0.115 A  
HETATM   12  N   UNL     1      -9.255  10.477  68.421  1.00  0.00    -0.148 NA 
HETATM   13  C   UNL     1      -9.826   9.924  69.469  1.00  0.00    -0.223 A  
HETATM   14  N   UNL     1      -9.367   8.650  69.698  1.00  0.00    -0.160 NA 
BRANCH  14  15
HETATM   15  C1* UNL     1      -9.684   7.880  70.881  1.00  0.00    -0.164 C  
HETATM   16  O4* UNL     1      -8.669   8.158  71.870  1.00  0.00    -0.125 OA 
HETATM   17  C4* UNL     1      -7.798   7.007  71.987  1.00  0.00    -0.093 C  
HETATM   18  H2* UNL     1     -10.357   4.920  69.497  1.00  0.00     0.000 HD 
HETATM   19  C3* UNL     1      -8.424   5.850  71.200  1.00  0.00    -0.124 C  
HETATM   20  C2* UNL     1      -9.801   6.360  70.792  1.00  0.00    -0.184 C  
HETATM   21  O3* UNL     1      -8.561   4.673  72.006  1.00  0.00    -0.115 OA 
HETATM   22  H3* UNL     1      -8.948   3.956  71.517  1.00  0.00     0.000 HD 
HETATM   23  O2* UNL     1     -10.284   5.866  69.551  1.00  0.00    -0.186 OA 
BRANCH  17  24
HETATM   24  C5* UNL     1      -6.392   7.379  71.491  1.00  0.00    -0.036 C  
HETATM   25  O5* UNL     1      -6.229   8.797  71.497  1.00  0.00    -0.051 OA 
HETATM   26  H5* UNL     1      -5.360   9.027  71.190  1.00  0.00     0.000 HD 
ENDBRANCH  17  24
ENDBRANCH  14  15
ENDBRANCH   2   3
TORSDOF 3
ENDMDL
MODEL      241
REMARK 921   NORMALIZED FREE ENERGY PREDICTED BY IDOCK:   -1.49 KCAL/MOL
REMARK 922        TOTAL FREE ENERGY PREDICTED BY IDOCK:   -1.98 KCAL/MOL
REMARK 923 INTER-LIGAND FREE ENERGY PREDICTED BY IDOCK:   -2.31 KCAL/MOL
REMARK 924 INTRA-LIGAND FREE ENERGY PREDICTED BY IDOCK:    0.33 KCAL/MOL
REMARK 927      BINDING AFFINITY PREDICTED BY RF-SCORE:    0.00 PKD
ROOT
HETATM    1  C   UNL     1      -6.686   8.120  74.236  1.00  0.00    -0.129 C  
HETATM    2  O   UNL     1      -6.273   7.074  73.364  1.00  0.00    -0.061 OA 
ENDROOT
BRANCH   2   3
HETATM    3  C   UNL     1      -7.130   6.936  72.291  1.00  0.00    -0.073 A  
HETATM    4  N   UNL     1      -8.189   7.780  72.172  1.00  0.00    -0.106 NA 
HETATM    5  C   UNL     1      -8.979   7.675  71.098  1.00  0.00    -0.138 A  
HETATM    6  N   UNL     1      -9.970   8.627  70.966  1.00  0.00    -0.199 NA 
HETATM    7  N   UNL     1      -8.835   6.817  70.084  1.00  0.00    -0.141 NA 
HETATM    8  H2  UNL     1      -9.556   9.559  70.997  1.00  0.00     0.000 HD 
HETATM    9  C   UNL     1      -7.758   6.028  70.215  1.00  0.00    -0.097 A  
HETATM   10  H1  UNL     1     -10.572   8.547  70.147  1.00  0.00     0.000 HD 
HETATM   11  C   UNL     1      -6.865   6.018  71.275  1.00  0.00    -0.067 A  
HETATM   12  N   UNL     1      -5.867   5.093  71.058  1.00  0.00    -0.019 NA 
HETATM   13  C   UNL     1      -6.131   4.583  69.874  1.00  0.00    -0.018 A  
HETATM   14  N   UNL     1      -7.261   5.128  69.316  1.00  0.00    -0.056 NA 
BRANCH  14  15
HETATM   15  C1* UNL     1      -7.681   4.889  67.952  1.00  0.00    -0.083 C  
HETATM   16  O4* UNL     1      -7.158   5.961  67.137  1.00  0.00    -0.067 OA 
HETATM   17  C4* UNL     1      -8.243   6.845  66.768  1.00  0.00    -0.114 C  
HETATM   18  H2* UNL     1     -10.898   4.152  68.445  1.00  0.00     0.000 HD 
HETATM   19  C3* UNL     1      -9.563   6.180  67.175  1.00  0.00    -0.124 C  
HETATM   20  C2* UNL     1      -9.167   4.777  67.621  1.00  0.00    -0.128 C  
HETATM   21  O3* UNL     1     -10.478   6.100  66.075  1.00  0.00    -0.416 OA 
HETATM   22  H3* UNL     1     -11.296   5.688  66.328  1.00  0.00     0.000 HD 
HETATM   23  O2* UNL     1      -9.973   4.222  68.651  1.00  0.00    -0.093 OA 
BRANCH  17  24
HETATM   24  C5* UNL     1      -8.033   8.216  67.430  1.00  0.00    -0.117 C  
HETATM   25  O5* UNL     1      -6.858   8.193  68.240  1.00  0.00    -0.065 OA 
HETATM   26  H5* UNL     1      -6.728   9.041  68.649  1.00  0.00     0.000 HD 
ENDBRANCH  17  24
ENDBRANCH  14  15
ENDBRANCH   2   3
TORSDOF 3
ENDMDL
MODEL      242
REMARK 921   NORMALIZED FREE ENERGY PREDICTED BY IDOCK:   -0.01 KCAL/MOL
REMARK 922        TOTAL FREE ENERGY PREDICTED BY IDOCK:   -0.23 KCAL/MOL
REMARK 923 INTER-LIGAND FREE ENERGY PREDICTED BY IDOCK:   -1.20 KCAL/MOL
REMARK 924 INTRA-LIGAND FREE ENERGY PREDICTED BY IDOCK:    0.96 KCAL/MOL
REMARK 927      BINDING AFFINITY PREDICTED BY RF-SCORE:    0.00 PKD
ROOT
HETATM    1  C   UNL     1     -11.192   6.887  66.115  1.00  0.00     1.978 C  
HETATM    2  O   UNL     1     -10.084   6.392  66.860  1.00  0.00    -0.160 OA 
ENDROOT
BRANCH   2   3
HETATM    3  C   UNL     1      -9.463   7.396  67.575  1.00  0.00    -0.138 A  
HETATM    4  N   UNL     1      -8.297   7.130  68.220  1.00  0.00    -0.124 NA 
HETATM    5  C   UNL     1      -7.674   8.124  68.861  1.00  0.00    -0.103 A  
HETATM    6  N   UNL     1      -6.438   7.832  69.402  1.00  0.00    -0.035 NA 
HETATM    7  N   UNL     1      -8.070   9.399  68.931  1.00  0.00    -0.101 NA 
HETATM    8  H2  UNL     1      -5.827   7.456  68.676  1.00  0.00     0.000 HD 
HETATM    9  C   UNL     1      -9.202   9.633  68.250  1.00  0.00    -0.129 A  
HETATM   10  H1  UNL     1      -5.963   8.591  69.891  1.00  0.00     0.000 HD 
HETATM   11  C   UNL     1      -9.956   8.700  67.556  1.00  0.00    -0.199 A  
HETATM   12  N   UNL     1     -11.041   9.304  66.958  1.00  0.00     0.173 NA 
HETATM   13  C   UNL     1     -10.922  10.581  67.253  1.00  0.00    -0.260 A  
HETATM   14  N   UNL     1      -9.814  10.833  68.024  1.00  0.00    -0.162 NA 
BRANCH  14  15
HETATM   15  C1* UNL     1      -9.338  12.162  68.341  1.00  0.00    -0.170 C  
HETATM   16  O4* UNL     1     -10.477  12.948  68.757  1.00  0.00    -0.233 OA 
HETATM   17  C4* UNL     1     -10.814  13.883  67.704  1.00  0.00    -0.254 C  
HETATM   18  H2* UNL     1      -7.381  12.736  65.702  1.00  0.00     0.000 HD 
HETATM   19  C3* UNL     1      -9.693  13.850  66.659  1.00  0.00    -0.289 C  
HETATM   20  C2* UNL     1      -8.606  12.983  67.283  1.00  0.00    -0.206 C  
HETATM   21  O3* UNL     1      -9.177  15.161  66.394  1.00  0.00    -0.266 OA 
HETATM   22  H3* UNL     1      -8.483  15.141  65.746  1.00  0.00     0.000 HD 
HETATM   23  O2* UNL     1      -7.837  12.225  66.361  1.00  0.00     0.164 OA 
BRANCH  17  24
HETATM   24  C5* UNL     1     -12.189  13.521  67.121  1.00  0.00    -0.281 C  
HETATM   25  O5* UNL     1     -12.241  13.867  65.738  1.00  0.00    -0.405 OA 
HETATM   26  H5* UNL     1     -13.091  13.643  65.378  1.00  0.00     0.000 HD 
ENDBRANCH  17  24
ENDBRANCH  14  15
ENDBRANCH   2   3
TORSDOF 3
ENDMDL
MODEL      243
REMARK 921   NORMALIZED FREE ENERGY PREDICTED BY IDOCK:    0.67 KCAL/MOL
REMARK 922        TOTAL FREE ENERGY PREDICTED BY IDOCK:    0.56 KCAL/MOL
REMARK 923 INTER-LIGAND FREE ENERGY PREDICTED BY IDOCK:   -1.27 KCAL/MOL
REMARK 924 INTRA-LIGAND FREE ENERGY PREDICTED BY IDOCK:    1.83 KCAL/MOL
REMARK 927      BINDING AFFINITY PREDICTED BY RF-SCORE:    0.00 PKD
ROOT
HETATM    1  C   UNL     1     -11.308  19.530  67.144  1.00  0.00     0.302 C  
HETATM    2  O   UNL     1     -10.397  19.214  68.192  1.00  0.00    -0.381 OA 
ENDROOT
BRANCH   2   3
HETATM    3  C   UNL     1     -10.428  17.870  68.505  1.00  0.00    -0.305 A  
HETATM    4  N   UNL     1     -11.582  17.173  68.340  1.00  0.00     0.385 NA 
HETATM    5  C   UNL     1     -11.584  15.859  68.591  1.00  0.00    -0.380 A  
HETATM    6  N   UNL     1     -12.747  15.176  68.298  1.00  0.00     0.226 NA 
HETATM    7  N   UNL     1     -10.541  15.122  68.985  1.00  0.00    -0.236 NA 
HETATM    8  H2  UNL     1     -13.004  15.340  67.324  1.00  0.00     0.000 HD 
HETATM    9  C   UNL     1      -9.410  15.835  69.098  1.00  0.00    -0.258 A  
HETATM   10  H1  UNL     1     -12.748  14.175  68.490  1.00  0.00     0.000 HD 
HETATM   11  C   UNL     1      -9.266  17.196  68.884  1.00  0.00    -0.200 A  
HETATM   12  N   UNL     1      -7.956  17.579  69.071  1.00  0.00    -0.163 NA 
HETATM   13  C   UNL     1      -7.315  16.465  69.353  1.00  0.00    -0.150 A  
HETATM   14  N   UNL     1      -8.152  15.377  69.368  1.00  0.00    -0.247 NA 
BRANCH  14  15
HETATM   15  C1* UNL     1      -7.692  14.008  69.469  1.00  0.00     0.363 C  
HETATM   16  O4* UNL     1      -6.252  14.020  69.352  1.00  0.00    -0.096 OA 
HETATM   17  C4* UNL     1      -5.882  13.501  68.051  1.00  0.00    -0.130 C  
HETATM   18  H2* UNL     1      -9.845  12.507  67.409  1.00  0.00     0.000 HD 
HETATM   19  C3* UNL     1      -7.137  12.916  67.393  1.00  0.00    -0.125 C  
HETATM   20  C2* UNL     1      -8.201  12.959  68.484  1.00  0.00    -0.065 C  
HETATM   21  O3* UNL     1      -6.930  11.562  66.969  1.00  0.00    -0.126 OA 
HETATM   22  H3* UNL     1      -7.708  11.200  66.561  1.00  0.00     0.000 HD 
HETATM   23  O2* UNL     1      -9.529  13.161  68.022  1.00  0.00    -0.207 OA 
BRANCH  17  24
HETATM   24  C5* UNL     1      -5.236  14.622  67.221  1.00  0.00     0.632 C  
HETATM   25  O5* UNL     1      -5.385  15.874  67.888  1.00  0.00    -0.115 OA 
HETATM   26  H5* UNL     1      -4.986  16.567  67.374  1.00  0.00     0.000 HD 
ENDBRANCH  17  24
ENDBRANCH  14  15
ENDBRANCH   2   3
TORSDOF 3
ENDMDL
MODEL      244
REMARK 921   NORMALIZED FREE ENERGY PREDICTED BY IDOCK:    1.06 KCAL/MOL
REMARK 922        TOTAL FREE ENERGY PREDICTED BY IDOCK:    1.02 KCAL/MOL
REMARK 923 INTER-LIGAND FREE ENERGY PREDICTED BY IDOCK:   -1.61 KCAL/MOL
REMARK 924 INTRA-LIGAND FREE ENERGY PREDICTED BY IDOCK:    2.64 KCAL/MOL
REMARK 927      BINDING AFFINITY PREDICTED BY RF-SCORE:    0.00 PKD
ROOT
HETATM    1  C   UNL     1      -5.354  17.617  70.423  1.00  0.00    -0.263 C  
HETATM    2  O   UNL     1      -5.311  16.855  69.221  1.00  0.00    -0.130 OA 
ENDROOT
BRANCH   2   3
HETATM    3  C   UNL     1      -6.554  16.354  68.890  1.00  0.00    -0.165 A  
HETATM    4  N   UNL     1      -7.175  15.498  69.742  1.00  0.00    -0.158 NA 
HETATM    5  C   UNL     1      -8.403  15.065  69.438  1.00  0.00    -0.141 A  
HETATM    6  N   UNL     1      -9.037  14.290  70.388  1.00  0.00     1.392 NA 
HETATM    7  N   UNL     1      -9.123  15.400  68.364  1.00  0.00    -0.186 NA 
HETATM    8  H2  UNL     1      -9.060  14.789  71.278  1.00  0.00     0.000 HD 
HETATM    9  C   UNL     1      -8.496  16.278  67.566  1.00  0.00    -0.169 A  
HETATM   10  H1  UNL     1      -9.974  13.960  70.157  1.00  0.00     0.000 HD 
HETATM   11  C   UNL     1      -7.224  16.798  67.749  1.00  0.00    -0.138 A  
HETATM   12  N   UNL     1      -6.917  17.689  66.744  1.00  0.00    -0.182 NA 
HETATM   13  C   UNL     1      -7.995  17.735  65.992  1.00  0.00    -0.129 A  
HETATM   14  N   UNL     1      -8.987  16.906  66.458  1.00  0.00    -0.255 NA 
BRANCH  14  15
HETATM   15  C1* UNL     1     -10.336  16.894  65.937  1.00  0.00    -0.315 C  
HETATM   16  O4* UNL     1     -11.214  17.369  66.980  1.00  0.00     0.148 OA 
HETATM   17  C4* UNL     1     -11.964  16.250  67.512  1.00  0.00     0.875 C  
HETATM   18  H2* UNL     1     -10.391  13.879  64.509  1.00  0.00     0.000 HD 
HETATM   19  C3* UNL     1     -11.720  15.037  66.606  1.00  0.00    -0.139 C  
HETATM   20  C2* UNL     1     -10.941  15.591  65.418  1.00  0.00    -0.357 C  
HETATM   21  O3* UNL     1     -12.950  14.458  66.153  1.00  0.00    -0.409 OA 
HETATM   22  H3* UNL     1     -12.798  13.706  65.592  1.00  0.00     0.000 HD 
HETATM   23  O2* UNL     1     -10.015  14.689  64.832  1.00  0.00    -0.301 OA 
BRANCH  17  24
HETATM   24  C5* UNL     1     -11.547  16.003  68.970  1.00  0.00    -0.349 C  
HETATM   25  O5* UNL     1     -11.243  14.623  69.166  1.00  0.00    -0.245 OA 
HETATM   26  H5* UNL     1     -10.985  14.470  70.068  1.00  0.00     0.000 HD 
ENDBRANCH  17  24
ENDBRANCH  14  15
ENDBRANCH   2   3
TORSDOF 3
ENDMDL
MODEL      245
REMARK 921   NORMALIZED FREE ENERGY PREDICTED BY IDOCK:    2.33 KCAL/MOL
REMARK 922        TOTAL FREE ENERGY PREDICTED BY IDOCK:    2.51 KCAL/MOL
REMARK 923 INTER-LIGAND FREE ENERGY PREDICTED BY IDOCK:   -2.71 KCAL/MOL
REMARK 924 INTRA-LIGAND FREE ENERGY PREDICTED BY IDOCK:    5.22 KCAL/MOL
REMARK 927      BINDING AFFINITY PREDICTED BY RF-SCORE:    0.00 PKD
ROOT
HETATM    1  C   UNL     1      -5.501  12.771  69.453  1.00  0.00    -0.079 C  
HETATM    2  O   UNL     1      -6.659  12.776  68.624  1.00  0.00    -0.072 OA 
ENDROOT
BRANCH   2   3
HETATM    3  C   UNL     1      -7.029  14.059  68.272  1.00  0.00    -0.107 A  
HETATM    4  N   UNL     1      -7.793  14.252  67.166  1.00  0.00    -0.132 NA 
HETATM    5  C   UNL     1      -8.193  15.492  66.868  1.00  0.00    -0.252 A  
HETATM    6  N   UNL     1      -9.061  15.622  65.802  1.00  0.00    -0.345 NA 
HETATM    7  N   UNL     1      -7.933  16.602  67.565  1.00  0.00    -0.164 NA 
HETATM    8  H2  UNL     1      -9.875  15.025  65.949  1.00  0.00     0.000 HD 
HETATM    9  C   UNL     1      -7.212  16.369  68.672  1.00  0.00    -0.178 A  
HETATM   10  H1  UNL     1      -9.366  16.568  65.575  1.00  0.00     0.000 HD 
HETATM   11  C   UNL     1      -6.721  15.143  69.094  1.00  0.00    -0.130 A  
HETATM   12  N   UNL     1      -6.045  15.279  70.287  1.00  0.00    -0.138 NA 
HETATM   13  C   UNL     1      -6.159  16.552  70.597  1.00  0.00     0.450 A  
HETATM   14  N   UNL     1      -6.871  17.253  69.655  1.00  0.00    -0.082 NA 
BRANCH  14  15
HETATM   15  C1* UNL     1      -7.304  18.622  69.827  1.00  0.00     0.439 C  
HETATM   16  O4* UNL     1      -8.714  18.678  69.519  1.00  0.00     0.275 OA 
HETATM   17  C4* UNL     1      -8.891  19.330  68.238  1.00  0.00    -0.337 C  
HETATM   18  H2* UNL     1      -4.853  20.224  68.229  1.00  0.00     0.000 HD 
HETATM   19  C3* UNL     1      -7.543  19.925  67.813  1.00  0.00    -0.287 C  
HETATM   20  C2* UNL     1      -6.639  19.739  69.026  1.00  0.00    -0.333 C  
HETATM   21  O3* UNL     1      -7.655  21.320  67.500  1.00  0.00    -0.514 OA 
HETATM   22  H3* UNL     1      -6.820  21.688  67.236  1.00  0.00     0.000 HD 
HETATM   23  O2* UNL     1      -5.266  19.529  68.727  1.00  0.00    -0.187 OA 
BRANCH  17  24
HETATM   24  C5* UNL     1      -9.447  18.319  67.223  1.00  0.00    -0.264 C  
HETATM   25  O5* UNL     1     -10.013  17.201  67.905  1.00  0.00    -0.272 OA 
HETATM   26  H5* UNL     1     -10.356  16.576  67.278  1.00  0.00     0.000 HD 
ENDBRANCH  17  24
ENDBRANCH  14  15
ENDBRANCH   2   3
TORSDOF 3
ENDMDL
MODEL      246
REMARK 921   NORMALIZED FREE ENERGY PREDICTED BY IDOCK:    2.58 KCAL/MOL
REMARK 922        TOTAL FREE ENERGY PREDICTED BY IDOCK:    2.81 KCAL/MOL
REMARK 923 INTER-LIGAND FREE ENERGY PREDICTED BY IDOCK:    0.85 KCAL/MOL
REMARK 924 INTRA-LIGAND FREE ENERGY PREDICTED BY IDOCK:    1.96 KCAL/MOL
REMARK 927      BINDING AFFINITY PREDICTED BY RF-SCORE:    0.00 PKD
ROOT
HETATM    1  C   UNL     1      -5.182  12.417  69.583  1.00  0.00    -0.075 C  
HETATM    2  O   UNL     1      -5.445  11.834  68.311  1.00  0.00    -0.043 OA 
ENDROOT
BRANCH   2   3
HETATM    3  C   UNL     1      -6.368  12.568  67.595  1.00  0.00    -0.140 A  
HETATM    4  N   UNL     1      -6.851  12.072  66.425  1.00  0.00     0.280 NA 
HETATM    5  C   UNL     1      -7.788  12.765  65.769  1.00  0.00     2.485 A  
HETATM    6  N   UNL     1      -8.328  12.165  64.649  1.00  0.00     1.259 NA 
HETATM    7  N   UNL     1      -8.337  13.921  66.151  1.00  0.00     0.932 NA 
HETATM    8  H2  UNL     1      -8.691  11.244  64.895  1.00  0.00     0.000 HD 
HETATM    9  C   UNL     1      -7.868  14.360  67.330  1.00  0.00    -0.163 A  
HETATM   10  H1  UNL     1      -9.042  12.694  64.149  1.00  0.00     0.000 HD 
HETATM   11  C   UNL     1      -6.892  13.755  68.106  1.00  0.00    -0.122 A  
HETATM   12  N   UNL     1      -6.680  14.475  69.262  1.00  0.00    -0.118 NA 
HETATM   13  C   UNL     1      -7.537  15.471  69.202  1.00  0.00    -0.204 A  
HETATM   14  N   UNL     1      -8.290  15.437  68.054  1.00  0.00    -0.140 NA 
BRANCH  14  15
HETATM   15  C1* UNL     1      -9.428  16.298  67.811  1.00  0.00    -0.221 C  
HETATM   16  O4* UNL     1     -10.619  15.487  67.904  1.00  0.00    -0.260 OA 
HETATM   17  C4* UNL     1     -11.152  15.278  66.574  1.00  0.00    -0.271 C  
HETATM   18  H2* UNL     1      -8.352  17.955  65.123  1.00  0.00     0.000 HD 
HETATM   19  C3* UNL     1     -10.392  16.192  65.605  1.00  0.00    -0.382 C  
HETATM   20  C2* UNL     1      -9.530  17.074  66.501  1.00  0.00    -0.276 C  
HETATM   21  O3* UNL     1     -11.285  17.007  64.835  1.00  0.00    -0.598 OA 
HETATM   22  H3* UNL     1     -10.814  17.573  64.234  1.00  0.00     0.000 HD 
HETATM   23  O2* UNL     1      -8.288  17.472  65.939  1.00  0.00    -0.538 OA 
BRANCH  17  24
HETATM   24  C5* UNL     1     -11.040  13.790  66.207  1.00  0.00    -0.302 C  
HETATM   25  O5* UNL     1     -11.091  12.989  67.387  1.00  0.00    -0.257 OA 
HETATM   26  H5* UNL     1     -11.022  12.070  67.160  1.00  0.00     0.000 HD 
ENDBRANCH  17  24
ENDBRANCH  14  15
ENDBRANCH   2   3
TORSDOF 3
ENDMDL
MODEL      247
REMARK 921   NORMALIZED FREE ENERGY PREDICTED BY IDOCK:    7.33 KCAL/MOL
REMARK 922        TOTAL FREE ENERGY PREDICTED BY IDOCK:    8.39 KCAL/MOL
REMARK 923 INTER-LIGAND FREE ENERGY PREDICTED BY IDOCK:    8.11 KCAL/MOL
REMARK 924 INTRA-LIGAND FREE ENERGY PREDICTED BY IDOCK:    0.28 KCAL/MOL
REMARK 927      BINDING AFFINITY PREDICTED BY RF-SCORE:    0.00 PKD
ROOT
HETATM    1  C   UNL     1     -11.332  14.568  62.572  1.00  0.00     6.097 C  
HETATM    2  O   UNL     1     -10.627  15.200  63.635  1.00  0.00     1.602 OA 
ENDROOT
BRANCH   2   3
HETATM    3  C   UNL     1     -11.154  14.864  64.866  1.00  0.00    -0.414 A  
HETATM    4  N   UNL     1     -12.294  14.128  64.925  1.00  0.00    -0.503 NA 
HETATM    5  C   UNL     1     -12.763  13.759  66.122  1.00  0.00    -0.283 A  
HETATM    6  N   UNL     1     -13.856  12.917  66.124  1.00  0.00     2.914 NA 
HETATM    7  N   UNL     1     -12.212  14.027  67.309  1.00  0.00    -0.365 NA 
HETATM    8  H2  UNL     1     -13.651  12.088  65.566  1.00  0.00     0.000 HD 
HETATM    9  C   UNL     1     -11.067  14.720  67.212  1.00  0.00    -0.332 A  
HETATM   10  H1  UNL     1     -14.214  12.636  67.037  1.00  0.00     0.000 HD 
HETATM   11  C   UNL     1     -10.476  15.177  66.045  1.00  0.00    -0.319 A  
HETATM   12  N   UNL     1      -9.295  15.830  66.325  1.00  0.00    -0.296 NA 
HETATM   13  C   UNL     1      -9.158  15.735  67.630  1.00  0.00    -0.192 A  
HETATM   14  N   UNL     1     -10.202  15.058  68.212  1.00  0.00    -0.219 NA 
BRANCH  14  15
HETATM   15  C1* UNL     1     -10.222  14.649  69.600  1.00  0.00     0.044 C  
HETATM   16  O4* UNL     1      -9.546  13.376  69.692  1.00  0.00     0.973 OA 
HETATM   17  C4* UNL     1     -10.529  12.335  69.911  1.00  0.00     1.221 C  
HETATM   18  H2* UNL     1     -13.413  15.267  70.352  1.00  0.00     0.000 HD 
HETATM   19  C3* UNL     1     -11.878  13.004  70.202  1.00  0.00    -0.252 C  
HETATM   20  C2* UNL     1     -11.555  14.488  70.327  1.00  0.00    -0.268 C  
HETATM   21  O3* UNL     1     -12.454  12.526  71.424  1.00  0.00    -0.251 OA 
HETATM   22  H3* UNL     1     -13.290  12.940  71.604  1.00  0.00     0.000 HD 
HETATM   23  O2* UNL     1     -12.584  15.367  69.899  1.00  0.00    -0.291 OA 
BRANCH  17  24
HETATM   24  C5* UNL     1     -10.571  11.408  68.686  1.00  0.00    -0.199 C  
HETATM   25  O5* UNL     1     -11.905  10.956  68.459  1.00  0.00    -0.553 OA 
HETATM   26  H5* UNL     1     -11.931  10.383  67.702  1.00  0.00     0.000 HD 
ENDBRANCH  17  24
ENDBRANCH  14  15
ENDBRANCH   2   3
TORSDOF 3
ENDMDL
MODEL      248
REMARK 921   NORMALIZED FREE ENERGY PREDICTED BY IDOCK:   10.05 KCAL/MOL
REMARK 922        TOTAL FREE ENERGY PREDICTED BY IDOCK:   11.59 KCAL/MOL
REMARK 923 INTER-LIGAND FREE ENERGY PREDICTED BY IDOCK:   11.74 KCAL/MOL
REMARK 924 INTRA-LIGAND FREE ENERGY PREDICTED BY IDOCK:   -0.15 KCAL/MOL
REMARK 927      BINDING AFFINITY PREDICTED BY RF-SCORE:    0.00 PKD
ROOT
HETATM    1  C   UNL     1      -9.408  14.229  64.910  1.00  0.00     1.307 C  
HETATM    2  O   UNL     1      -9.634  14.646  66.252  1.00  0.00    -0.282 OA 
ENDROOT
BRANCH   2   3
HETATM    3  C   UNL     1     -10.932  14.398  66.651  1.00  0.00    -0.318 A  
HETATM    4  N   UNL     1     -11.889  14.184  65.711  1.00  0.00    -0.367 NA 
HETATM    5  C   UNL     1     -13.130  13.887  66.110  1.00  0.00     0.345 A  
HETATM    6  N   UNL     1     -14.036  13.565  65.120  1.00  0.00     1.765 NA 
HETATM    7  N   UNL     1     -13.551  13.756  67.371  1.00  0.00     4.258 NA 
HETATM    8  H2  UNL     1     -13.667  12.802  64.552  1.00  0.00     0.000 HD 
HETATM    9  C   UNL     1     -12.572  13.934  68.271  1.00  0.00     0.601 A  
HETATM   10  H1  UNL     1     -14.983  13.338  65.425  1.00  0.00     0.000 HD 
HETATM   11  C   UNL     1     -11.252  14.258  68.002  1.00  0.00    -0.280 A  
HETATM   12  N   UNL     1     -10.526  14.338  69.170  1.00  0.00    -0.203 NA 
HETATM   13  C   UNL     1     -11.381  14.030  70.121  1.00  0.00    -0.047 A  
HETATM   14  N   UNL     1     -12.634  13.764  69.625  1.00  0.00    -0.118 NA 
BRANCH  14  15
HETATM   15  C1* UNL     1     -13.717  13.225  70.418  1.00  0.00     1.691 C  
HETATM   16  O4* UNL     1     -14.177  14.271  71.301  1.00  0.00    -0.280 OA 
HETATM   17  C4* UNL     1     -13.736  13.978  72.649  1.00  0.00    -0.477 C  
HETATM   18  H2* UNL     1     -12.392  10.299  71.320  1.00  0.00     0.000 HD 
HETATM   19  C3* UNL     1     -13.162  12.557  72.666  1.00  0.00     0.397 C  
HETATM   20  C2* UNL     1     -13.485  11.992  71.288  1.00  0.00     0.435 C  
HETATM   21  O3* UNL     1     -13.776  11.749  73.679  1.00  0.00     3.619 OA 
HETATM   22  H3* UNL     1     -13.419  10.869  73.690  1.00  0.00     0.000 HD 
HETATM   23  O2* UNL     1     -12.536  11.066  70.778  1.00  0.00    -0.344 OA 
BRANCH  17  24
HETATM   24  C5* UNL     1     -12.719  15.041  73.095  1.00  0.00    -0.486 C  
HETATM   25  O5* UNL     1     -11.525  14.413  73.560  1.00  0.00     0.526 OA 
HETATM   26  H5* UNL     1     -10.897  15.071  73.836  1.00  0.00     0.000 HD 
ENDBRANCH  17  24
ENDBRANCH  14  15
ENDBRANCH   2   3
TORSDOF 3
ENDMDL
