MODEL        1
REMARK 921   NORMALIZED FREE ENERGY PREDICTED BY IDOCK:   -7.92 KCAL/MOL
REMARK 922        TOTAL FREE ENERGY PREDICTED BY IDOCK:  -14.93 KCAL/MOL
REMARK 923 INTER-LIGAND FREE ENERGY PREDICTED BY IDOCK:  -12.09 KCAL/MOL
REMARK 924 INTRA-LIGAND FREE ENERGY PREDICTED BY IDOCK:   -2.84 KCAL/MOL
REMARK 927      BINDING AFFINITY PREDICTED BY RF-SCORE:    0.00 PKD
ROOT
HETATM    1  C   UNL     1      -9.884   6.604  66.751  1.00  0.00    -0.227 C  
HETATM    2  C   UNL     1     -10.229   5.219  67.307  1.00  0.00    -0.252 C  
HETATM    3  C   UNL     1      -9.874   5.097  68.784  1.00  0.00    -0.235 C  
HETATM    4  C   UNL     1      -8.394   5.374  69.013  1.00  0.00    -0.100 C  
HETATM    5  C   UNL     1      -7.942   6.717  68.440  1.00  0.00    -0.115 C  
HETATM    6  C   UNL     1      -8.423   6.981  67.005  1.00  0.00    -0.121 C  
HETATM    7  C   UNL     1      -8.202   8.435  66.553  1.00  0.00    -0.105 C  
HETATM    8  N   UNL     1      -8.962   9.429  67.318  1.00  0.00    -0.130 NA 
HETATM    9  C   UNL     1     -10.361   9.058  67.601  1.00  0.00    -0.257 C  
HETATM   10  C   UNL     1     -10.891   7.662  67.220  1.00  0.00    -0.263 C  
ENDROOT
BRANCH   8  11
HETATM   11  C   UNL     1      -8.837  10.776  66.705  1.00  0.00    -0.142 C  
BRANCH  11  12
HETATM   12  C   UNL     1      -8.322  11.972  67.573  1.00  0.00    -0.166 C  
HETATM   13  H   UNL     1      -6.665  13.067  67.736  1.00  0.00     0.000 HD 
HETATM   14  O   UNL     1      -6.978  12.341  67.210  1.00  0.00    -0.143 OA 
BRANCH  12  15
HETATM   15  C   UNL     1      -9.257  13.212  67.567  1.00  0.00    -0.206 C  
BRANCH  15  16
HETATM   16  N   UNL     1     -10.029  13.369  68.807  1.00  0.00    -0.416 N  
HETATM   17  C   UNL     1     -11.376  13.646  68.829  1.00  0.00    -0.289 C  
HETATM   18  O   UNL     1     -12.068  13.802  67.829  1.00  0.00    -0.362 OA 
HETATM   19  H   UNL     1      -9.540  13.268  69.697  1.00  0.00     0.000 HD 
BRANCH  17  20
HETATM   20  C   UNL     1     -11.995  13.812  70.165  1.00  0.00    -0.404 A  
HETATM   21  C   UNL     1     -12.661  12.702  70.716  1.00  0.00    -0.302 A  
HETATM   22  H   UNL     1     -13.262  16.361  73.575  1.00  0.00     0.000 HD 
HETATM   23  C   UNL     1     -11.978  15.056  70.833  1.00  0.00    -0.374 A  
HETATM   24  C   UNL     1     -12.679  15.140  72.045  1.00  0.00    -0.342 A  
HETATM   25  C   UNL     1     -13.302  12.808  71.944  1.00  0.00    -0.510 A  
HETATM   26  C   UNL     1     -11.246  16.267  70.311  1.00  0.00    -0.343 C  
HETATM   27  O   UNL     1     -12.787  16.305  72.754  1.00  0.00    -0.400 OA 
HETATM   28  C   UNL     1     -13.314  14.032  72.604  1.00  0.00    -0.643 A  
ENDBRANCH  17  20
ENDBRANCH  15  16
BRANCH  15  29
HETATM   29  C   UNL     1      -8.539  14.525  67.135  1.00  0.00    -0.222 C  
BRANCH  29  30
HETATM   30  S   UNL     1      -9.466  15.593  65.973  1.00  0.00    -0.351 SA 
BRANCH  30  31
HETATM   31  C   UNL     1      -9.518  17.176  66.780  1.00  0.00    -0.267 A  
HETATM   32  C   UNL     1     -10.721  19.273  67.044  1.00  0.00    -0.565 A  
HETATM   33  C   UNL     1     -10.529  18.061  66.380  1.00  0.00    -0.345 A  
HETATM   34  C   UNL     1      -8.887  18.743  68.517  1.00  0.00    -0.378 A  
HETATM   35  C   UNL     1      -9.902  19.611  68.118  1.00  0.00    -0.524 A  
HETATM   36  C   UNL     1      -8.695  17.529  67.850  1.00  0.00    -0.247 A  
ENDBRANCH  30  31
ENDBRANCH  29  30
ENDBRANCH  15  29
ENDBRANCH  12  15
ENDBRANCH  11  12
ENDBRANCH   8  11
BRANCH   9  37
HETATM   37  C   UNL     1     -10.656   9.302  69.114  1.00  0.00    -0.212 C  
HETATM   38  C   UNL     1     -12.763   9.075  71.438  1.00  0.00    -0.361 C  
HETATM   39  O   UNL     1     -10.422  10.356  69.701  1.00  0.00    -0.231 OA 
HETATM   40  C   UNL     1     -12.005   6.703  71.479  1.00  0.00    -0.402 C  
HETATM   41  C   UNL     1     -11.570   8.146  71.170  1.00  0.00    -0.279 C  
HETATM   42  N   UNL     1     -11.170   8.187  69.757  1.00  0.00    -0.450 N  
HETATM   43  C   UNL     1     -10.406   8.515  72.100  1.00  0.00    -0.409 C  
HETATM   44  H   UNL     1     -11.279   7.334  69.209  1.00  0.00     0.000 HD 
ENDBRANCH   9  37
TORSDOF 9
ENDMDL
MODEL        2
REMARK 921   NORMALIZED FREE ENERGY PREDICTED BY IDOCK:   -7.81 KCAL/MOL
REMARK 922        TOTAL FREE ENERGY PREDICTED BY IDOCK:  -14.76 KCAL/MOL
REMARK 923 INTER-LIGAND FREE ENERGY PREDICTED BY IDOCK:  -12.06 KCAL/MOL
REMARK 924 INTRA-LIGAND FREE ENERGY PREDICTED BY IDOCK:   -2.70 KCAL/MOL
REMARK 927      BINDING AFFINITY PREDICTED BY RF-SCORE:    0.00 PKD
ROOT
HETATM    1  C   UNL     1      -9.774   7.786  73.070  1.00  0.00    -0.329 C  
HETATM    2  C   UNL     1     -10.318   6.626  73.911  1.00  0.00    -0.385 C  
HETATM    3  C   UNL     1     -10.932   5.535  73.041  1.00  0.00    -0.336 C  
HETATM    4  C   UNL     1     -12.054   6.096  72.177  1.00  0.00    -0.263 C  
HETATM    5  C   UNL     1     -11.618   7.297  71.339  1.00  0.00    -0.305 C  
HETATM    6  C   UNL     1     -10.832   8.358  72.124  1.00  0.00    -0.407 C  
HETATM    7  C   UNL     1     -10.168   9.410  71.218  1.00  0.00    -0.270 C  
HETATM    8  N   UNL     1      -9.142   8.871  70.319  1.00  0.00    -0.167 NA 
HETATM    9  C   UNL     1      -8.225   7.894  70.936  1.00  0.00    -0.103 C  
HETATM   10  C   UNL     1      -8.458   7.407  72.379  1.00  0.00    -0.132 C  
ENDROOT
BRANCH   8  11
HETATM   11  C   UNL     1      -8.426   9.967  69.617  1.00  0.00    -0.180 C  
BRANCH  11  12
HETATM   12  C   UNL     1      -8.682  10.202  68.091  1.00  0.00    -0.122 C  
HETATM   13  H   UNL     1      -9.519   9.223  66.571  1.00  0.00     0.000 HD 
HETATM   14  O   UNL     1      -9.363   9.081  67.497  1.00  0.00    -0.134 OA 
BRANCH  12  15
HETATM   15  C   UNL     1      -9.415  11.532  67.766  1.00  0.00    -0.168 C  
BRANCH  15  16
HETATM   16  N   UNL     1     -10.215  12.048  68.884  1.00  0.00    -0.407 N  
HETATM   17  C   UNL     1     -11.585  11.947  68.944  1.00  0.00    -0.311 C  
HETATM   18  O   UNL     1     -12.281  11.433  68.075  1.00  0.00    -0.607 OA 
HETATM   19  H   UNL     1      -9.729  12.505  69.656  1.00  0.00     0.000 HD 
BRANCH  17  20
HETATM   20  C   UNL     1     -12.243  12.556  70.124  1.00  0.00    -0.307 A  
HETATM   21  C   UNL     1     -12.727  11.687  71.119  1.00  0.00    -0.426 A  
HETATM   22  H   UNL     1     -13.955  16.062  72.246  1.00  0.00     0.000 HD 
HETATM   23  C   UNL     1     -12.437  13.951  70.219  1.00  0.00    -0.380 A  
HETATM   24  C   UNL     1     -13.160  14.421  71.325  1.00  0.00    -0.351 A  
HETATM   25  C   UNL     1     -13.395  12.192  72.227  1.00  0.00    -0.316 A  
HETATM   26  C   UNL     1     -11.904  14.933  69.206  1.00  0.00    -0.350 C  
HETATM   27  O   UNL     1     -13.465  15.744  71.497  1.00  0.00    -0.473 OA 
HETATM   28  C   UNL     1     -13.615  13.562  72.324  1.00  0.00    -0.690 A  
ENDBRANCH  17  20
ENDBRANCH  15  16
BRANCH  15  29
HETATM   29  C   UNL     1      -8.483  12.613  67.143  1.00  0.00    -0.186 C  
BRANCH  29  30
HETATM   30  S   UNL     1      -9.320  14.112  66.506  1.00  0.00    -0.230 SA 
BRANCH  30  31
HETATM   31  C   UNL     1     -10.599  13.482  65.444  1.00  0.00    -0.308 A  
HETATM   32  C   UNL     1     -11.119  12.171  63.463  1.00  0.00    -0.525 A  
HETATM   33  C   UNL     1     -10.189  12.804  64.288  1.00  0.00    -0.352 A  
HETATM   34  C   UNL     1     -12.891  12.887  64.932  1.00  0.00    -0.370 A  
HETATM   35  C   UNL     1     -12.472  12.207  63.790  1.00  0.00    -0.620 A  
HETATM   36  C   UNL     1     -11.958  13.523  65.757  1.00  0.00    -0.439 A  
ENDBRANCH  30  31
ENDBRANCH  29  30
ENDBRANCH  15  29
ENDBRANCH  12  15
ENDBRANCH  11  12
ENDBRANCH   8  11
BRANCH   9  37
HETATM   37  C   UNL     1      -8.112   6.645  70.006  1.00  0.00    -0.121 C  
HETATM   38  C   UNL     1      -9.558   4.101  68.854  1.00  0.00    -0.222 C  
HETATM   39  O   UNL     1      -7.172   5.854  70.027  1.00  0.00    -0.068 OA 
HETATM   40  C   UNL     1     -10.571   5.760  67.298  1.00  0.00    -0.353 C  
HETATM   41  C   UNL     1      -9.325   5.441  68.142  1.00  0.00    -0.114 C  
HETATM   42  N   UNL     1      -9.161   6.536  69.108  1.00  0.00    -0.136 N  
HETATM   43  C   UNL     1      -8.116   5.327  67.202  1.00  0.00    -0.101 C  
HETATM   44  H   UNL     1      -9.870   7.269  69.118  1.00  0.00     0.000 HD 
ENDBRANCH   9  37
TORSDOF 9
ENDMDL
MODEL        3
REMARK 921   NORMALIZED FREE ENERGY PREDICTED BY IDOCK:   -7.60 KCAL/MOL
REMARK 922        TOTAL FREE ENERGY PREDICTED BY IDOCK:  -14.43 KCAL/MOL
REMARK 923 INTER-LIGAND FREE ENERGY PREDICTED BY IDOCK:  -12.08 KCAL/MOL
REMARK 924 INTRA-LIGAND FREE ENERGY PREDICTED BY IDOCK:   -2.35 KCAL/MOL
REMARK 927      BINDING AFFINITY PREDICTED BY RF-SCORE:    0.00 PKD
ROOT
HETATM    1  C   UNL     1      -9.664   6.461  67.192  1.00  0.00    -0.170 C  
HETATM    2  C   UNL     1      -9.926   5.085  67.813  1.00  0.00    -0.198 C  
HETATM    3  C   UNL     1      -9.636   5.074  69.309  1.00  0.00    -0.230 C  
HETATM    4  C   UNL     1      -8.196   5.482  69.588  1.00  0.00    -0.101 C  
HETATM    5  C   UNL     1      -7.823   6.823  68.958  1.00  0.00    -0.111 C  
HETATM    6  C   UNL     1      -8.251   6.968  67.489  1.00  0.00    -0.116 C  
HETATM    7  C   UNL     1      -8.121   8.408  66.962  1.00  0.00    -0.104 C  
HETATM    8  N   UNL     1      -8.994   9.377  67.632  1.00  0.00    -0.119 NA 
HETATM    9  C   UNL     1     -10.372   8.911  67.873  1.00  0.00    -0.230 C  
HETATM   10  C   UNL     1     -10.772   7.458  67.552  1.00  0.00    -0.310 C  
ENDROOT
BRANCH   8  11
HETATM   11  C   UNL     1      -8.945  10.694  66.948  1.00  0.00    -0.137 C  
BRANCH  11  12
HETATM   12  C   UNL     1      -8.467  11.957  67.739  1.00  0.00    -0.154 C  
HETATM   13  H   UNL     1      -6.848  13.116  67.825  1.00  0.00     0.000 HD 
HETATM   14  O   UNL     1      -7.138  12.349  67.345  1.00  0.00    -0.135 OA 
BRANCH  12  15
HETATM   15  C   UNL     1      -9.445  13.161  67.667  1.00  0.00    -0.207 C  
BRANCH  15  16
HETATM   16  N   UNL     1     -10.102  13.459  68.946  1.00  0.00    -0.431 N  
HETATM   17  C   UNL     1     -11.460  13.635  69.074  1.00  0.00    -0.301 C  
HETATM   18  O   UNL     1     -12.258  13.575  68.146  1.00  0.00    -0.302 OA 
HETATM   19  H   UNL     1      -9.522  13.540  69.781  1.00  0.00     0.000 HD 
BRANCH  17  20
HETATM   20  C   UNL     1     -11.958  13.969  70.430  1.00  0.00    -0.398 A  
HETATM   21  C   UNL     1     -12.764  13.016  71.080  1.00  0.00    -0.372 A  
HETATM   22  H   UNL     1     -12.566  16.859  73.747  1.00  0.00     0.000 HD 
HETATM   23  C   UNL     1     -11.692  15.223  71.022  1.00  0.00    -0.394 A  
HETATM   24  C   UNL     1     -12.292  15.483  72.263  1.00  0.00    -0.395 A  
HETATM   25  C   UNL     1     -13.300  13.289  72.331  1.00  0.00    -0.616 A  
HETATM   26  C   UNL     1     -10.803  16.265  70.392  1.00  0.00    -0.211 C  
HETATM   27  O   UNL     1     -12.160  16.682  72.907  1.00  0.00    -0.464 OA 
HETATM   28  C   UNL     1     -13.067  14.528  72.919  1.00  0.00    -0.614 A  
ENDBRANCH  17  20
ENDBRANCH  15  16
BRANCH  15  29
HETATM   29  C   UNL     1      -8.820  14.424  67.003  1.00  0.00    -0.237 C  
BRANCH  29  30
HETATM   30  S   UNL     1      -9.830  15.220  65.699  1.00  0.00    -0.328 SA 
BRANCH  30  31
HETATM   31  C   UNL     1     -10.735  13.877  64.967  1.00  0.00    -0.386 A  
HETATM   32  C   UNL     1     -12.926  12.980  64.412  1.00  0.00    -0.039 A  
HETATM   33  C   UNL     1     -12.133  13.924  65.064  1.00  0.00    -0.422 A  
HETATM   34  C   UNL     1     -10.938  11.915  63.559  1.00  0.00    -0.505 A  
HETATM   35  C   UNL     1     -12.327  11.978  63.653  1.00  0.00    -0.648 A  
HETATM   36  C   UNL     1     -10.144  12.861  64.213  1.00  0.00    -0.251 A  
ENDBRANCH  30  31
ENDBRANCH  29  30
ENDBRANCH  15  29
ENDBRANCH  12  15
ENDBRANCH  11  12
ENDBRANCH   8  11
BRANCH   9  37
HETATM   37  C   UNL     1     -10.760   9.214  69.355  1.00  0.00    -0.198 C  
HETATM   38  C   UNL     1     -13.076   9.336  71.479  1.00  0.00    -0.430 C  
HETATM   39  O   UNL     1     -10.421  10.226  69.963  1.00  0.00    -0.268 OA 
HETATM   40  C   UNL     1     -12.696   6.877  71.582  1.00  0.00    -0.396 C  
HETATM   41  C   UNL     1     -12.020   8.233  71.317  1.00  0.00    -0.287 C  
HETATM   42  N   UNL     1     -11.494   8.197  69.945  1.00  0.00    -0.449 N  
HETATM   43  C   UNL     1     -10.900   8.430  72.349  1.00  0.00    -0.416 C  
HETATM   44  H   UNL     1     -11.683   7.365  69.388  1.00  0.00     0.000 HD 
ENDBRANCH   9  37
TORSDOF 9
ENDMDL
MODEL        4
REMARK 921   NORMALIZED FREE ENERGY PREDICTED BY IDOCK:   -7.55 KCAL/MOL
REMARK 922        TOTAL FREE ENERGY PREDICTED BY IDOCK:  -14.36 KCAL/MOL
REMARK 923 INTER-LIGAND FREE ENERGY PREDICTED BY IDOCK:  -12.87 KCAL/MOL
REMARK 924 INTRA-LIGAND FREE ENERGY PREDICTED BY IDOCK:   -1.50 KCAL/MOL
REMARK 927      BINDING AFFINITY PREDICTED BY RF-SCORE:    0.00 PKD
ROOT
HETATM    1  C   UNL     1      -8.702   8.835  65.436  1.00  0.00    -0.217 C  
HETATM    2  C   UNL     1      -7.490   7.899  65.464  1.00  0.00    -0.079 C  
HETATM    3  C   UNL     1      -6.654   8.090  66.724  1.00  0.00    -0.056 C  
HETATM    4  C   UNL     1      -6.177   9.531  66.847  1.00  0.00    -0.065 C  
HETATM    5  C   UNL     1      -7.317  10.546  66.775  1.00  0.00    -0.114 C  
HETATM    6  C   UNL     1      -8.304  10.301  65.622  1.00  0.00    -0.159 C  
HETATM    7  C   UNL     1      -9.581  11.151  65.731  1.00  0.00    -0.221 C  
HETATM    8  N   UNL     1     -10.406  10.855  66.908  1.00  0.00    -0.228 NA 
HETATM    9  C   UNL     1     -10.569   9.420  67.208  1.00  0.00    -0.244 C  
HETATM   10  C   UNL     1      -9.798   8.360  66.398  1.00  0.00    -0.310 C  
ENDROOT
BRANCH   8  11
HETATM   11  C   UNL     1     -11.700  11.580  66.843  1.00  0.00     0.050 C  
BRANCH  11  12
HETATM   12  C   UNL     1     -11.861  12.783  65.854  1.00  0.00    -0.437 C  
HETATM   13  H   UNL     1     -13.100  13.332  64.394  1.00  0.00     0.000 HD 
HETATM   14  O   UNL     1     -13.002  12.602  64.994  1.00  0.00    -0.812 OA 
BRANCH  12  15
HETATM   15  C   UNL     1     -11.901  14.173  66.544  1.00  0.00    -0.419 C  
BRANCH  15  16
HETATM   16  N   UNL     1     -12.346  14.120  67.943  1.00  0.00    -0.533 N  
HETATM   17  C   UNL     1     -11.493  13.895  68.999  1.00  0.00    -0.299 C  
HETATM   18  O   UNL     1     -10.287  13.705  68.888  1.00  0.00    -0.209 OA 
HETATM   19  H   UNL     1     -13.337  14.256  68.141  1.00  0.00     0.000 HD 
BRANCH  17  20
HETATM   20  C   UNL     1     -12.109  13.833  70.345  1.00  0.00    -0.421 A  
HETATM   21  C   UNL     1     -12.710  12.622  70.731  1.00  0.00    -0.213 A  
HETATM   22  H   UNL     1     -13.480  15.793  74.088  1.00  0.00     0.000 HD 
HETATM   23  C   UNL     1     -12.152  14.967  71.186  1.00  0.00    -0.384 A  
HETATM   24  C   UNL     1     -12.846  14.837  72.398  1.00  0.00    -0.348 A  
HETATM   25  C   UNL     1     -13.346  12.515  71.961  1.00  0.00    -0.528 A  
HETATM   26  C   UNL     1     -11.488  16.278  70.844  1.00  0.00    -0.336 C  
HETATM   27  O   UNL     1     -13.009  15.880  73.268  1.00  0.00    -0.482 OA 
HETATM   28  C   UNL     1     -13.418  13.628  72.791  1.00  0.00    -0.466 A  
ENDBRANCH  17  20
ENDBRANCH  15  16
BRANCH  15  29
HETATM   29  C   UNL     1     -10.588  14.991  66.361  1.00  0.00    -0.310 C  
BRANCH  29  30
HETATM   30  S   UNL     1     -10.704  16.443  65.252  1.00  0.00    -0.200 SA 
BRANCH  30  31
HETATM   31  C   UNL     1     -10.532  17.839  66.339  1.00  0.00    -0.297 A  
HETATM   32  C   UNL     1     -10.025  18.596  68.593  1.00  0.00    -0.431 A  
HETATM   33  C   UNL     1     -10.296  17.565  67.693  1.00  0.00    -0.360 A  
HETATM   34  C   UNL     1     -10.229  20.198  66.803  1.00  0.00    -0.562 A  
HETATM   35  C   UNL     1      -9.985  19.914  68.145  1.00  0.00    -0.551 A  
HETATM   36  C   UNL     1     -10.502  19.164  65.901  1.00  0.00    -0.500 A  
ENDBRANCH  30  31
ENDBRANCH  29  30
ENDBRANCH  15  29
ENDBRANCH  12  15
ENDBRANCH  11  12
ENDBRANCH   8  11
BRANCH   9  37
HETATM   37  C   UNL     1     -10.289   9.182  68.725  1.00  0.00    -0.214 C  
HETATM   38  C   UNL     1     -11.465   9.229  71.641  1.00  0.00    -0.468 C  
HETATM   39  O   UNL     1      -9.317   9.635  69.326  1.00  0.00    -0.161 OA 
HETATM   40  C   UNL     1     -12.386   7.013  70.975  1.00  0.00    -0.402 C  
HETATM   41  C   UNL     1     -11.226   7.999  70.755  1.00  0.00    -0.265 C  
HETATM   42  N   UNL     1     -11.226   8.360  69.330  1.00  0.00    -0.429 N  
HETATM   43  C   UNL     1      -9.917   7.309  71.165  1.00  0.00    -0.186 C  
HETATM   44  H   UNL     1     -11.969   7.979  68.745  1.00  0.00     0.000 HD 
ENDBRANCH   9  37
TORSDOF 9
ENDMDL
MODEL        5
REMARK 921   NORMALIZED FREE ENERGY PREDICTED BY IDOCK:   -7.51 KCAL/MOL
REMARK 922        TOTAL FREE ENERGY PREDICTED BY IDOCK:  -14.30 KCAL/MOL
REMARK 923 INTER-LIGAND FREE ENERGY PREDICTED BY IDOCK:  -11.67 KCAL/MOL
REMARK 924 INTRA-LIGAND FREE ENERGY PREDICTED BY IDOCK:   -2.63 KCAL/MOL
REMARK 927      BINDING AFFINITY PREDICTED BY RF-SCORE:    0.00 PKD
ROOT
HETATM    1  C   UNL     1     -11.490   8.211  70.878  1.00  0.00    -0.288 C  
HETATM    2  C   UNL     1     -12.116   7.542  72.106  1.00  0.00    -0.305 C  
HETATM    3  C   UNL     1     -11.216   6.455  72.680  1.00  0.00    -0.290 C  
HETATM    4  C   UNL     1     -10.910   5.393  71.633  1.00  0.00    -0.232 C  
HETATM    5  C   UNL     1     -10.329   5.974  70.344  1.00  0.00    -0.282 C  
HETATM    6  C   UNL     1     -11.093   7.194  69.806  1.00  0.00    -0.239 C  
HETATM    7  C   UNL     1     -10.341   7.928  68.682  1.00  0.00    -0.201 C  
HETATM    8  N   UNL     1      -9.066   8.523  69.096  1.00  0.00    -0.146 NA 
HETATM    9  C   UNL     1      -9.097   9.216  70.398  1.00  0.00    -0.233 C  
HETATM   10  C   UNL     1     -10.360   9.169  71.278  1.00  0.00    -0.405 C  
ENDROOT
BRANCH   8  11
HETATM   11  C   UNL     1      -8.498   9.363  68.011  1.00  0.00    -0.120 C  
BRANCH  11  12
HETATM   12  C   UNL     1      -8.121  10.854  68.306  1.00  0.00    -0.124 C  
HETATM   13  H   UNL     1      -6.585  12.077  67.975  1.00  0.00     0.000 HD 
HETATM   14  O   UNL     1      -6.813  11.173  67.796  1.00  0.00    -0.070 OA 
BRANCH  12  15
HETATM   15  C   UNL     1      -9.175  11.884  67.818  1.00  0.00    -0.184 C  
BRANCH  15  16
HETATM   16  N   UNL     1     -10.064  12.362  68.885  1.00  0.00    -0.428 N  
HETATM   17  C   UNL     1     -11.387  11.998  68.986  1.00  0.00    -0.275 C  
HETATM   18  O   UNL     1     -11.962  11.254  68.201  1.00  0.00    -0.610 OA 
HETATM   19  H   UNL     1      -9.681  12.997  69.585  1.00  0.00     0.000 HD 
BRANCH  17  20
HETATM   20  C   UNL     1     -12.155  12.601  70.100  1.00  0.00    -0.368 A  
HETATM   21  C   UNL     1     -12.590  11.746  71.129  1.00  0.00    -0.412 A  
HETATM   22  H   UNL     1     -14.316  16.023  71.930  1.00  0.00     0.000 HD 
HETATM   23  C   UNL     1     -12.498  13.971  70.099  1.00  0.00    -0.380 A  
HETATM   24  C   UNL     1     -13.314  14.425  71.145  1.00  0.00    -0.331 A  
HETATM   25  C   UNL     1     -13.355  12.241  72.177  1.00  0.00    -0.473 A  
HETATM   26  C   UNL     1     -12.026  14.942  69.047  1.00  0.00    -0.307 C  
HETATM   27  O   UNL     1     -13.763  15.715  71.221  1.00  0.00    -0.568 OA 
HETATM   28  C   UNL     1     -13.721  13.583  72.179  1.00  0.00    -0.654 A  
ENDBRANCH  17  20
ENDBRANCH  15  16
BRANCH  15  29
HETATM   29  C   UNL     1      -8.559  13.046  66.983  1.00  0.00    -0.162 C  
BRANCH  29  30
HETATM   30  S   UNL     1      -9.736  14.334  66.424  1.00  0.00    -0.302 SA 
BRANCH  30  31
HETATM   31  C   UNL     1     -10.799  13.488  65.279  1.00  0.00    -0.310 A  
HETATM   32  C   UNL     1     -10.933  11.943  63.406  1.00  0.00    -0.470 A  
HETATM   33  C   UNL     1     -10.180  12.737  64.271  1.00  0.00    -0.352 A  
HETATM   34  C   UNL     1     -12.945  12.643  64.535  1.00  0.00    -0.236 A  
HETATM   35  C   UNL     1     -12.318  11.891  63.543  1.00  0.00    -0.603 A  
HETATM   36  C   UNL     1     -12.189  13.439  65.401  1.00  0.00    -0.492 A  
ENDBRANCH  30  31
ENDBRANCH  29  30
ENDBRANCH  15  29
ENDBRANCH  12  15
ENDBRANCH  11  12
ENDBRANCH   8  11
BRANCH   9  37
HETATM   37  C   UNL     1      -7.880   8.744  71.255  1.00  0.00    -0.134 C  
HETATM   38  C   UNL     1      -6.935   7.304  73.886  1.00  0.00    -0.086 C  
HETATM   39  O   UNL     1      -6.919   9.456  71.539  1.00  0.00    -0.307 OA 
HETATM   40  C   UNL     1      -7.413   5.248  72.567  1.00  0.00    -0.096 C  
HETATM   41  C   UNL     1      -6.973   6.718  72.468  1.00  0.00    -0.064 C  
HETATM   42  N   UNL     1      -7.961   7.413  71.631  1.00  0.00    -0.097 N  
HETATM   43  C   UNL     1      -5.569   6.767  71.848  1.00  0.00    -0.037 C  
HETATM   44  H   UNL     1      -8.764   6.877  71.303  1.00  0.00     0.000 HD 
ENDBRANCH   9  37
TORSDOF 9
ENDMDL
MODEL        6
REMARK 921   NORMALIZED FREE ENERGY PREDICTED BY IDOCK:   -7.48 KCAL/MOL
REMARK 922        TOTAL FREE ENERGY PREDICTED BY IDOCK:  -14.25 KCAL/MOL
REMARK 923 INTER-LIGAND FREE ENERGY PREDICTED BY IDOCK:  -11.84 KCAL/MOL
REMARK 924 INTRA-LIGAND FREE ENERGY PREDICTED BY IDOCK:   -2.41 KCAL/MOL
REMARK 927      BINDING AFFINITY PREDICTED BY RF-SCORE:    0.00 PKD
ROOT
HETATM    1  C   UNL     1      -9.695  18.136  68.627  1.00  0.00    -0.367 C  
HETATM    2  C   UNL     1     -10.347  19.424  68.113  1.00  0.00    -0.525 C  
HETATM    3  C   UNL     1     -10.164  19.591  66.609  1.00  0.00    -0.553 C  
HETATM    4  C   UNL     1      -8.687  19.596  66.238  1.00  0.00    -0.401 C  
HETATM    5  C   UNL     1      -7.937  18.370  66.757  1.00  0.00    -0.261 C  
HETATM    6  C   UNL     1      -8.220  18.039  68.231  1.00  0.00    -0.298 C  
HETATM    7  C   UNL     1      -7.684  16.660  68.653  1.00  0.00    -0.224 C  
HETATM    8  N   UNL     1      -8.312  15.530  67.960  1.00  0.00    -0.140 NA 
HETATM    9  C   UNL     1      -9.776  15.626  67.815  1.00  0.00    -0.218 C  
HETATM   10  C   UNL     1     -10.523  16.901  68.252  1.00  0.00    -0.352 C  
ENDROOT
BRANCH   8  11
HETATM   11  C   UNL     1      -7.876  14.239  68.551  1.00  0.00    -0.143 C  
BRANCH  11  12
HETATM   12  C   UNL     1      -7.572  13.025  67.611  1.00  0.00    -0.160 C  
HETATM   13  H   UNL     1      -6.045  12.351  66.523  1.00  0.00     0.000 HD 
HETATM   14  O   UNL     1      -6.230  13.088  67.093  1.00  0.00    -0.286 OA 
BRANCH  12  15
HETATM   15  C   UNL     1      -7.855  11.639  68.251  1.00  0.00    -0.136 C  
BRANCH  15  16
HETATM   16  N   UNL     1      -8.996  11.642  69.175  1.00  0.00    -0.351 N  
HETATM   17  C   UNL     1     -10.306  11.581  68.758  1.00  0.00    -0.196 C  
HETATM   18  O   UNL     1     -10.659  11.530  67.586  1.00  0.00    -0.186 OA 
HETATM   19  H   UNL     1      -8.808  11.693  70.176  1.00  0.00     0.000 HD 
BRANCH  17  20
HETATM   20  C   UNL     1     -11.340  11.633  69.819  1.00  0.00    -0.276 A  
HETATM   21  C   UNL     1     -11.821  12.900  70.197  1.00  0.00    -0.319 A  
HETATM   22  H   UNL     1     -13.751   9.684  73.000  1.00  0.00     0.000 HD 
HETATM   23  C   UNL     1     -11.781  10.462  70.474  1.00  0.00    -0.434 A  
HETATM   24  C   UNL     1     -12.686  10.625  71.532  1.00  0.00    -0.444 A  
HETATM   25  C   UNL     1     -12.756  13.019  71.217  1.00  0.00    -0.385 A  
HETATM   26  C   UNL     1     -11.333   9.076  70.083  1.00  0.00    -0.139 C  
HETATM   27  O   UNL     1     -13.138   9.574  72.282  1.00  0.00    -0.415 OA 
HETATM   28  C   UNL     1     -13.183  11.878  71.888  1.00  0.00    -0.467 A  
ENDBRANCH  17  20
ENDBRANCH  15  16
BRANCH  15  29
HETATM   29  C   UNL     1      -7.927  10.482  67.210  1.00  0.00    -0.114 C  
BRANCH  29  30
HETATM   30  S   UNL     1      -7.254   8.872  67.763  1.00  0.00    -0.084 SA 
BRANCH  30  31
HETATM   31  C   UNL     1      -8.660   7.785  67.764  1.00  0.00    -0.121 A  
HETATM   32  C   UNL     1      -9.802   5.956  68.888  1.00  0.00    -0.183 A  
HETATM   33  C   UNL     1      -8.682   6.774  68.734  1.00  0.00    -0.125 A  
HETATM   34  C   UNL     1     -10.898   7.139  67.096  1.00  0.00    -0.403 A  
HETATM   35  C   UNL     1     -10.914   6.144  68.071  1.00  0.00    -0.399 A  
HETATM   36  C   UNL     1      -9.775   7.958  66.941  1.00  0.00    -0.285 A  
ENDBRANCH  30  31
ENDBRANCH  29  30
ENDBRANCH  15  29
ENDBRANCH  12  15
ENDBRANCH  11  12
ENDBRANCH   8  11
BRANCH   9  37
HETATM   37  C   UNL     1     -10.163  15.310  66.336  1.00  0.00    -0.277 C  
HETATM   38  C   UNL     1     -10.459  13.092  64.126  1.00  0.00    -0.395 C  
HETATM   39  O   UNL     1      -9.745  15.937  65.365  1.00  0.00    -0.397 OA 
HETATM   40  C   UNL     1     -12.621  12.661  65.284  1.00  0.00    -0.388 C  
HETATM   41  C   UNL     1     -11.582  13.743  64.946  1.00  0.00    -0.351 C  
HETATM   42  N   UNL     1     -11.073  14.272  66.219  1.00  0.00    -0.317 N  
HETATM   43  C   UNL     1     -12.268  14.835  64.112  1.00  0.00    -0.321 C  
HETATM   44  H   UNL     1     -11.414  13.843  67.079  1.00  0.00     0.000 HD 
ENDBRANCH   9  37
TORSDOF 9
ENDMDL
MODEL        7
REMARK 921   NORMALIZED FREE ENERGY PREDICTED BY IDOCK:   -7.46 KCAL/MOL
REMARK 922        TOTAL FREE ENERGY PREDICTED BY IDOCK:  -14.21 KCAL/MOL
REMARK 923 INTER-LIGAND FREE ENERGY PREDICTED BY IDOCK:  -12.27 KCAL/MOL
REMARK 924 INTRA-LIGAND FREE ENERGY PREDICTED BY IDOCK:   -1.95 KCAL/MOL
REMARK 927      BINDING AFFINITY PREDICTED BY RF-SCORE:    0.00 PKD
ROOT
HETATM    1  C   UNL     1      -8.670   8.459  65.512  1.00  0.00    -0.196 C  
HETATM    2  C   UNL     1      -7.589   7.416  65.814  1.00  0.00    -0.090 C  
HETATM    3  C   UNL     1      -6.802   7.763  67.071  1.00  0.00    -0.069 C  
HETATM    4  C   UNL     1      -6.152   9.135  66.945  1.00  0.00    -0.061 C  
HETATM    5  C   UNL     1      -7.149  10.237  66.590  1.00  0.00    -0.108 C  
HETATM    6  C   UNL     1      -8.099   9.877  65.437  1.00  0.00    -0.137 C  
HETATM    7  C   UNL     1      -9.263  10.871  65.282  1.00  0.00    -0.210 C  
HETATM    8  N   UNL     1     -10.176  10.917  66.428  1.00  0.00    -0.231 NA 
HETATM    9  C   UNL     1     -10.535   9.602  66.990  1.00  0.00    -0.232 C  
HETATM   10  C   UNL     1      -9.865   8.318  66.463  1.00  0.00    -0.323 C  
ENDROOT
BRANCH   8  11
HETATM   11  C   UNL     1     -11.363  11.757  66.125  1.00  0.00    -0.280 C  
BRANCH  11  12
HETATM   12  C   UNL     1     -11.182  13.294  65.897  1.00  0.00    -0.290 C  
HETATM   13  H   UNL     1     -12.144  14.767  64.961  1.00  0.00     0.000 HD 
HETATM   14  O   UNL     1     -12.254  13.834  65.100  1.00  0.00    -0.385 OA 
BRANCH  12  15
HETATM   15  C   UNL     1     -10.994  14.114  67.201  1.00  0.00    -0.299 C  
BRANCH  15  16
HETATM   16  N   UNL     1     -10.646  15.521  66.964  1.00  0.00    -0.306 N  
HETATM   17  C   UNL     1      -9.748  16.218  67.738  1.00  0.00    -0.233 C  
HETATM   18  O   UNL     1      -9.157  15.751  68.705  1.00  0.00    -0.188 OA 
HETATM   19  H   UNL     1     -11.093  16.005  66.185  1.00  0.00     0.000 HD 
BRANCH  17  20
HETATM   20  C   UNL     1      -9.538  17.643  67.387  1.00  0.00    -0.267 A  
HETATM   21  C   UNL     1     -10.506  18.568  67.818  1.00  0.00    -0.443 A  
HETATM   22  H   UNL     1      -7.375  20.823  65.167  1.00  0.00     0.000 HD 
HETATM   23  C   UNL     1      -8.444  18.050  66.593  1.00  0.00    -0.283 A  
HETATM   24  C   UNL     1      -8.388  19.403  66.229  1.00  0.00    -0.336 A  
HETATM   25  C   UNL     1     -10.392  19.910  67.480  1.00  0.00    -0.557 A  
HETATM   26  C   UNL     1      -7.354  17.112  66.139  1.00  0.00    -0.281 C  
HETATM   27  O   UNL     1      -7.412  19.907  65.413  1.00  0.00    -0.361 OA 
HETATM   28  C   UNL     1      -9.333  20.325  66.679  1.00  0.00    -0.460 A  
ENDBRANCH  17  20
ENDBRANCH  15  16
BRANCH  15  29
HETATM   29  C   UNL     1     -12.169  13.947  68.210  1.00  0.00    -0.150 C  
BRANCH  29  30
HETATM   30  S   UNL     1     -11.743  13.153  69.804  1.00  0.00    -0.242 SA 
BRANCH  30  31
HETATM   31  C   UNL     1     -12.290  14.316  71.032  1.00  0.00    -0.361 A  
HETATM   32  C   UNL     1     -14.005  14.879  72.662  1.00  0.00    -0.457 A  
HETATM   33  C   UNL     1     -13.550  14.091  71.605  1.00  0.00    -0.430 A  
HETATM   34  C   UNL     1     -11.951  16.140  72.591  1.00  0.00    -0.653 A  
HETATM   35  C   UNL     1     -13.201  15.901  73.160  1.00  0.00    -0.692 A  
HETATM   36  C   UNL     1     -11.496  15.350  71.530  1.00  0.00    -0.478 A  
ENDBRANCH  30  31
ENDBRANCH  29  30
ENDBRANCH  15  29
ENDBRANCH  12  15
ENDBRANCH  11  12
ENDBRANCH   8  11
BRANCH   9  37
HETATM   37  C   UNL     1     -10.365   9.646  68.541  1.00  0.00    -0.205 C  
HETATM   38  C   UNL     1     -11.812   9.621  71.333  1.00  0.00    -0.484 C  
HETATM   39  O   UNL     1      -9.670  10.467  69.135  1.00  0.00    -0.203 OA 
HETATM   40  C   UNL     1     -11.875   7.164  70.933  1.00  0.00    -0.379 C  
HETATM   41  C   UNL     1     -11.084   8.453  70.652  1.00  0.00    -0.256 C  
HETATM   42  N   UNL     1     -11.043   8.629  69.194  1.00  0.00    -0.426 N  
HETATM   43  C   UNL     1      -9.676   8.301  71.246  1.00  0.00    -0.225 C  
HETATM   44  H   UNL     1     -11.549   7.955  68.621  1.00  0.00     0.000 HD 
ENDBRANCH   9  37
TORSDOF 9
ENDMDL
MODEL        8
REMARK 921   NORMALIZED FREE ENERGY PREDICTED BY IDOCK:   -7.37 KCAL/MOL
REMARK 922        TOTAL FREE ENERGY PREDICTED BY IDOCK:  -14.08 KCAL/MOL
REMARK 923 INTER-LIGAND FREE ENERGY PREDICTED BY IDOCK:  -11.15 KCAL/MOL
REMARK 924 INTRA-LIGAND FREE ENERGY PREDICTED BY IDOCK:   -2.94 KCAL/MOL
REMARK 927      BINDING AFFINITY PREDICTED BY RF-SCORE:    0.00 PKD
ROOT
HETATM    1  C   UNL     1      -9.681   7.864  72.808  1.00  0.00    -0.322 C  
HETATM    2  C   UNL     1     -10.325   6.740  73.625  1.00  0.00    -0.372 C  
HETATM    3  C   UNL     1     -11.057   5.740  72.738  1.00  0.00    -0.327 C  
HETATM    4  C   UNL     1     -12.130   6.433  71.908  1.00  0.00    -0.362 C  
HETATM    5  C   UNL     1     -11.590   7.609  71.096  1.00  0.00    -0.301 C  
HETATM    6  C   UNL     1     -10.691   8.565  71.896  1.00  0.00    -0.394 C  
HETATM    7  C   UNL     1      -9.939   9.571  71.007  1.00  0.00    -0.199 C  
HETATM    8  N   UNL     1      -8.984   8.960  70.076  1.00  0.00    -0.155 NA 
HETATM    9  C   UNL     1      -8.160   7.880  70.650  1.00  0.00    -0.102 C  
HETATM   10  C   UNL     1      -8.420   7.378  72.083  1.00  0.00    -0.124 C  
ENDROOT
BRANCH   8  11
HETATM   11  C   UNL     1      -8.174  10.000  69.392  1.00  0.00    -0.155 C  
BRANCH  11  12
HETATM   12  C   UNL     1      -8.497  10.375  67.907  1.00  0.00    -0.114 C  
HETATM   13  H   UNL     1      -9.511   9.598  66.379  1.00  0.00     0.000 HD 
HETATM   14  O   UNL     1      -9.316   9.370  67.280  1.00  0.00    -0.129 OA 
BRANCH  12  15
HETATM   15  C   UNL     1      -9.116  11.787  67.728  1.00  0.00    -0.178 C  
BRANCH  15  16
HETATM   16  N   UNL     1      -9.983  12.192  68.842  1.00  0.00    -0.422 N  
HETATM   17  C   UNL     1     -11.355  12.236  68.755  1.00  0.00    -0.289 C  
HETATM   18  O   UNL     1     -11.995  11.959  67.747  1.00  0.00    -0.559 OA 
HETATM   19  H   UNL     1      -9.545  12.454  69.725  1.00  0.00     0.000 HD 
BRANCH  17  20
HETATM   20  C   UNL     1     -12.080  12.704  69.960  1.00  0.00    -0.339 A  
HETATM   21  C   UNL     1     -12.527  11.730  70.870  1.00  0.00    -0.416 A  
HETATM   22  H   UNL     1     -14.076  15.911  72.297  1.00  0.00     0.000 HD 
HETATM   23  C   UNL     1     -12.372  14.072  70.157  1.00  0.00    -0.409 A  
HETATM   24  C   UNL     1     -13.150  14.404  71.275  1.00  0.00    -0.351 A  
HETATM   25  C   UNL     1     -13.253  12.100  71.994  1.00  0.00    -0.496 A  
HETATM   26  C   UNL     1     -11.883  15.164  69.238  1.00  0.00    -0.347 C  
HETATM   27  O   UNL     1     -13.549  15.686  71.539  1.00  0.00    -0.490 OA 
HETATM   28  C   UNL     1     -13.568  13.441  72.191  1.00  0.00    -0.660 A  
ENDBRANCH  17  20
ENDBRANCH  15  16
BRANCH  15  29
HETATM   29  C   UNL     1      -8.069  12.878  67.354  1.00  0.00    -0.181 C  
BRANCH  29  30
HETATM   30  S   UNL     1      -8.060  14.369  68.416  1.00  0.00    -0.148 SA 
BRANCH  30  31
HETATM   31  C   UNL     1      -8.854  15.615  67.428  1.00  0.00    -0.191 A  
HETATM   32  C   UNL     1     -10.283  16.072  65.515  1.00  0.00    -0.389 A  
HETATM   33  C   UNL     1      -9.530  15.182  66.280  1.00  0.00    -0.341 A  
HETATM   34  C   UNL     1      -9.692  17.853  67.029  1.00  0.00    -0.298 A  
HETATM   35  C   UNL     1     -10.370  17.409  65.895  1.00  0.00    -0.276 A  
HETATM   36  C   UNL     1      -8.936  16.960  67.794  1.00  0.00    -0.225 A  
ENDBRANCH  30  31
ENDBRANCH  29  30
ENDBRANCH  15  29
ENDBRANCH  12  15
ENDBRANCH  11  12
ENDBRANCH   8  11
BRANCH   9  37
HETATM   37  C   UNL     1      -8.184   6.653  69.685  1.00  0.00    -0.127 C  
HETATM   38  C   UNL     1      -9.900   4.315  68.469  1.00  0.00    -0.115 C  
HETATM   39  O   UNL     1      -7.336   5.764  69.679  1.00  0.00    -0.067 OA 
HETATM   40  C   UNL     1     -10.730   6.117  66.966  1.00  0.00    -0.423 C  
HETATM   41  C   UNL     1      -9.525   5.641  67.794  1.00  0.00    -0.115 C  
HETATM   42  N   UNL     1      -9.241   6.684  68.789  1.00  0.00    -0.130 N  
HETATM   43  C   UNL     1      -8.337   5.423  66.845  1.00  0.00    -0.108 C  
HETATM   44  H   UNL     1      -9.867   7.488  68.823  1.00  0.00     0.000 HD 
ENDBRANCH   9  37
TORSDOF 9
ENDMDL
MODEL        9
REMARK 921   NORMALIZED FREE ENERGY PREDICTED BY IDOCK:   -7.35 KCAL/MOL
REMARK 922        TOTAL FREE ENERGY PREDICTED BY IDOCK:  -14.05 KCAL/MOL
REMARK 923 INTER-LIGAND FREE ENERGY PREDICTED BY IDOCK:  -11.62 KCAL/MOL
REMARK 924 INTRA-LIGAND FREE ENERGY PREDICTED BY IDOCK:   -2.43 KCAL/MOL
REMARK 927      BINDING AFFINITY PREDICTED BY RF-SCORE:    0.00 PKD
ROOT
HETATM    1  C   UNL     1      -8.084  17.203  67.233  1.00  0.00    -0.206 C  
HETATM    2  C   UNL     1      -8.152  18.720  67.022  1.00  0.00    -0.266 C  
HETATM    3  C   UNL     1      -9.584  19.237  67.081  1.00  0.00    -0.397 C  
HETATM    4  C   UNL     1     -10.455  18.547  66.039  1.00  0.00    -0.433 C  
HETATM    5  C   UNL     1     -10.409  17.023  66.136  1.00  0.00    -0.326 C  
HETATM    6  C   UNL     1      -8.990  16.445  66.261  1.00  0.00    -0.368 C  
HETATM    7  C   UNL     1      -8.978  14.953  66.636  1.00  0.00    -0.270 C  
HETATM    8  N   UNL     1      -9.547  14.656  67.955  1.00  0.00    -0.209 NA 
HETATM    9  C   UNL     1      -9.144  15.584  69.028  1.00  0.00    -0.236 C  
HETATM   10  C   UNL     1      -8.301  16.833  68.705  1.00  0.00    -0.248 C  
ENDROOT
BRANCH   8  11
HETATM   11  C   UNL     1      -9.331  13.232  68.316  1.00  0.00    -0.205 C  
BRANCH  11  12
HETATM   12  C   UNL     1      -8.065  12.484  67.779  1.00  0.00    -0.164 C  
HETATM   13  H   UNL     1      -6.127  12.364  68.226  1.00  0.00     0.000 HD 
HETATM   14  O   UNL     1      -6.895  12.817  68.551  1.00  0.00    -0.081 OA 
BRANCH  12  15
HETATM   15  C   UNL     1      -8.235  10.945  67.667  1.00  0.00    -0.116 C  
BRANCH  15  16
HETATM   16  N   UNL     1      -9.341  10.417  68.476  1.00  0.00    -0.153 N  
HETATM   17  C   UNL     1      -9.180   9.945  69.759  1.00  0.00    -0.227 C  
HETATM   18  O   UNL     1      -8.110   9.902  70.353  1.00  0.00    -0.187 OA 
HETATM   19  H   UNL     1     -10.275  10.400  68.067  1.00  0.00     0.000 HD 
BRANCH  17  20
HETATM   20  C   UNL     1     -10.393   9.411  70.423  1.00  0.00    -0.318 A  
HETATM   21  C   UNL     1     -11.378  10.333  70.819  1.00  0.00    -0.421 A  
HETATM   22  H   UNL     1     -12.645   6.080  72.310  1.00  0.00     0.000 HD 
HETATM   23  C   UNL     1     -10.528   8.035  70.709  1.00  0.00    -0.221 A  
HETATM   24  C   UNL     1     -11.664   7.641  71.431  1.00  0.00    -0.283 A  
HETATM   25  C   UNL     1     -12.515   9.901  71.489  1.00  0.00    -0.506 A  
HETATM   26  C   UNL     1      -9.526   6.995  70.272  1.00  0.00    -0.165 C  
HETATM   27  O   UNL     1     -11.876   6.347  71.821  1.00  0.00    -0.314 OA 
HETATM   28  C   UNL     1     -12.652   8.552  71.799  1.00  0.00    -0.387 A  
ENDBRANCH  17  20
ENDBRANCH  15  16
BRANCH  15  29
HETATM   29  C   UNL     1      -8.270  10.434  66.196  1.00  0.00    -0.144 C  
BRANCH  29  30
HETATM   30  S   UNL     1      -9.865   9.733  65.635  1.00  0.00    -0.273 SA 
BRANCH  30  31
HETATM   31  C   UNL     1     -10.790  11.143  65.074  1.00  0.00    -0.173 A  
HETATM   32  C   UNL     1     -12.072  13.107  65.716  1.00  0.00    -0.502 A  
HETATM   33  C   UNL     1     -11.429  11.916  66.053  1.00  0.00    -0.344 A  
HETATM   34  C   UNL     1     -11.457  12.773  63.409  1.00  0.00    -0.454 A  
HETATM   35  C   UNL     1     -12.080  13.539  64.392  1.00  0.00    -0.468 A  
HETATM   36  C   UNL     1     -10.814  11.578  63.747  1.00  0.00    -0.486 A  
ENDBRANCH  30  31
ENDBRANCH  29  30
ENDBRANCH  15  29
ENDBRANCH  12  15
ENDBRANCH  11  12
ENDBRANCH   8  11
BRANCH   9  37
HETATM   37  C   UNL     1     -10.415  16.036  69.814  1.00  0.00    -0.300 C  
HETATM   38  C   UNL     1     -13.435  15.447  70.466  1.00  0.00    -0.079 C  
HETATM   39  O   UNL     1     -10.846  17.187  69.823  1.00  0.00    -0.128 OA 
HETATM   40  C   UNL     1     -12.452  13.805  72.058  1.00  0.00    -0.150 C  
HETATM   41  C   UNL     1     -12.217  15.151  71.352  1.00  0.00    -0.339 C  
HETATM   42  N   UNL     1     -10.994  15.015  70.549  1.00  0.00    -0.472 N  
HETATM   43  C   UNL     1     -12.075  16.244  72.422  1.00  0.00    -0.598 C  
HETATM   44  H   UNL     1     -10.538  14.103  70.532  1.00  0.00     0.000 HD 
ENDBRANCH   9  37
TORSDOF 9
ENDMDL
MODEL       10
REMARK 921   NORMALIZED FREE ENERGY PREDICTED BY IDOCK:   -7.22 KCAL/MOL
REMARK 922        TOTAL FREE ENERGY PREDICTED BY IDOCK:  -13.86 KCAL/MOL
REMARK 923 INTER-LIGAND FREE ENERGY PREDICTED BY IDOCK:  -11.16 KCAL/MOL
REMARK 924 INTRA-LIGAND FREE ENERGY PREDICTED BY IDOCK:   -2.70 KCAL/MOL
REMARK 927      BINDING AFFINITY PREDICTED BY RF-SCORE:    0.00 PKD
ROOT
HETATM    1  C   UNL     1      -9.568   6.694  69.422  1.00  0.00    -0.148 C  
HETATM    2  C   UNL     1      -9.879   5.249  69.017  1.00  0.00    -0.235 C  
HETATM    3  C   UNL     1      -9.839   5.062  67.506  1.00  0.00    -0.201 C  
HETATM    4  C   UNL     1     -10.823   5.997  66.815  1.00  0.00    -0.356 C  
HETATM    5  C   UNL     1     -10.625   7.463  67.201  1.00  0.00    -0.413 C  
HETATM    6  C   UNL     1     -10.478   7.700  68.712  1.00  0.00    -0.208 C  
HETATM    7  C   UNL     1     -10.004   9.123  69.056  1.00  0.00    -0.184 C  
HETATM    8  N   UNL     1      -8.662   9.449  68.562  1.00  0.00    -0.127 NA 
HETATM    9  C   UNL     1      -7.658   8.384  68.743  1.00  0.00    -0.101 C  
HETATM   10  C   UNL     1      -8.072   7.003  69.287  1.00  0.00    -0.120 C  
ENDROOT
BRANCH   8  11
HETATM   11  C   UNL     1      -8.209  10.761  69.090  1.00  0.00    -0.120 C  
BRANCH  11  12
HETATM   12  C   UNL     1      -7.928  11.936  68.095  1.00  0.00    -0.151 C  
HETATM   13  H   UNL     1      -7.106  12.178  66.296  1.00  0.00     0.000 HD 
HETATM   14  O   UNL     1      -7.277  11.465  66.900  1.00  0.00    -0.131 OA 
BRANCH  12  15
HETATM   15  C   UNL     1      -9.178  12.788  67.746  1.00  0.00    -0.199 C  
BRANCH  15  16
HETATM   16  N   UNL     1     -10.078  13.002  68.887  1.00  0.00    -0.438 N  
HETATM   17  C   UNL     1     -11.375  12.545  68.924  1.00  0.00    -0.297 C  
HETATM   18  O   UNL     1     -11.917  11.926  68.016  1.00  0.00    -0.527 OA 
HETATM   19  H   UNL     1      -9.723  13.518  69.692  1.00  0.00     0.000 HD 
BRANCH  17  20
HETATM   20  C   UNL     1     -12.160  12.880  70.135  1.00  0.00    -0.373 A  
HETATM   21  C   UNL     1     -12.589  11.816  70.948  1.00  0.00    -0.384 A  
HETATM   22  H   UNL     1     -14.385  15.794  72.643  1.00  0.00     0.000 HD 
HETATM   23  C   UNL     1     -12.524  14.213  70.428  1.00  0.00    -0.424 A  
HETATM   24  C   UNL     1     -13.353  14.418  71.540  1.00  0.00    -0.355 A  
HETATM   25  C   UNL     1     -13.369  12.062  72.071  1.00  0.00    -0.447 A  
HETATM   26  C   UNL     1     -12.059  15.397  69.617  1.00  0.00    -0.354 C  
HETATM   27  O   UNL     1     -13.823  15.655  71.890  1.00  0.00    -0.471 OA 
HETATM   28  C   UNL     1     -13.755  13.366  72.361  1.00  0.00    -0.698 A  
ENDBRANCH  17  20
ENDBRANCH  15  16
BRANCH  15  29
HETATM   29  C   UNL     1      -8.836  14.108  66.994  1.00  0.00    -0.221 C  
BRANCH  29  30
HETATM   30  S   UNL     1     -10.264  15.028  66.311  1.00  0.00    -0.312 SA 
BRANCH  30  31
HETATM   31  C   UNL     1     -11.023  13.884  65.183  1.00  0.00    -0.350 A  
HETATM   32  C   UNL     1     -10.667  12.154  63.511  1.00  0.00    -0.509 A  
HETATM   33  C   UNL     1     -10.169  13.161  64.339  1.00  0.00    -0.319 A  
HETATM   34  C   UNL     1     -12.887  12.580  64.348  1.00  0.00    -0.366 A  
HETATM   35  C   UNL     1     -12.028  11.859  63.521  1.00  0.00    -0.567 A  
HETATM   36  C   UNL     1     -12.388  13.589  65.177  1.00  0.00    -0.488 A  
ENDBRANCH  30  31
ENDBRANCH  29  30
ENDBRANCH  15  29
ENDBRANCH  12  15
ENDBRANCH  11  12
ENDBRANCH   8  11
BRANCH   9  37
HETATM   37  C   UNL     1      -6.890   8.175  67.400  1.00  0.00    -0.074 C  
HETATM   38  C   UNL     1      -7.001   7.026  64.474  1.00  0.00    -0.051 C  
HETATM   39  O   UNL     1      -5.751   7.718  67.321  1.00  0.00    -0.034 OA 
HETATM   40  C   UNL     1      -8.196   9.161  64.011  1.00  0.00    -0.168 C  
HETATM   41  C   UNL     1      -7.135   8.494  64.903  1.00  0.00    -0.080 C  
HETATM   42  N   UNL     1      -7.602   8.604  66.292  1.00  0.00    -0.093 N  
HETATM   43  C   UNL     1      -5.797   9.220  64.695  1.00  0.00    -0.065 C  
HETATM   44  H   UNL     1      -8.517   9.025  66.451  1.00  0.00     0.000 HD 
ENDBRANCH   9  37
TORSDOF 9
ENDMDL
MODEL       11
REMARK 921   NORMALIZED FREE ENERGY PREDICTED BY IDOCK:   -7.17 KCAL/MOL
REMARK 922        TOTAL FREE ENERGY PREDICTED BY IDOCK:  -13.78 KCAL/MOL
REMARK 923 INTER-LIGAND FREE ENERGY PREDICTED BY IDOCK:  -11.33 KCAL/MOL
REMARK 924 INTRA-LIGAND FREE ENERGY PREDICTED BY IDOCK:   -2.45 KCAL/MOL
REMARK 927      BINDING AFFINITY PREDICTED BY RF-SCORE:    0.00 PKD
ROOT
HETATM    1  C   UNL     1      -9.951   9.083  71.535  1.00  0.00    -0.391 C  
HETATM    2  C   UNL     1      -9.867   8.199  72.784  1.00  0.00    -0.353 C  
HETATM    3  C   UNL     1     -10.144   6.736  72.463  1.00  0.00    -0.190 C  
HETATM    4  C   UNL     1     -11.516   6.569  71.823  1.00  0.00    -0.346 C  
HETATM    5  C   UNL     1     -11.713   7.456  70.594  1.00  0.00    -0.270 C  
HETATM    6  C   UNL     1     -11.282   8.917  70.799  1.00  0.00    -0.321 C  
HETATM    7  C   UNL     1     -11.224   9.718  69.487  1.00  0.00    -0.142 C  
HETATM    8  N   UNL     1     -10.225   9.236  68.527  1.00  0.00    -0.194 NA 
HETATM    9  C   UNL     1      -8.919   8.883  69.114  1.00  0.00    -0.140 C  
HETATM   10  C   UNL     1      -8.717   8.905  70.641  1.00  0.00    -0.230 C  
ENDROOT
BRANCH   8  11
HETATM   11  C   UNL     1     -10.106  10.166  67.376  1.00  0.00    -0.205 C  
BRANCH  11  12
HETATM   12  C   UNL     1      -9.120  11.378  67.463  1.00  0.00    -0.157 C  
HETATM   13  H   UNL     1      -7.556  12.080  66.447  1.00  0.00     0.000 HD 
HETATM   14  O   UNL     1      -8.155  11.345  66.394  1.00  0.00    -0.162 OA 
BRANCH  12  15
HETATM   15  C   UNL     1      -9.818  12.763  67.536  1.00  0.00    -0.211 C  
BRANCH  15  16
HETATM   16  N   UNL     1     -10.431  13.041  68.841  1.00  0.00    -0.415 N  
HETATM   17  C   UNL     1     -11.683  13.593  68.986  1.00  0.00    -0.333 C  
HETATM   18  O   UNL     1     -12.409  13.918  68.054  1.00  0.00    -0.239 OA 
HETATM   19  H   UNL     1      -9.901  12.815  69.683  1.00  0.00     0.000 HD 
BRANCH  17  20
HETATM   20  C   UNL     1     -12.137  13.846  70.374  1.00  0.00    -0.421 A  
HETATM   21  C   UNL     1     -12.893  12.841  71.005  1.00  0.00    -0.262 A  
HETATM   22  H   UNL     1     -12.689  16.551  73.853  1.00  0.00     0.000 HD 
HETATM   23  C   UNL     1     -11.880  15.075  71.019  1.00  0.00    -0.373 A  
HETATM   24  C   UNL     1     -12.438  15.258  72.292  1.00  0.00    -0.361 A  
HETATM   25  C   UNL     1     -13.389  13.037  72.287  1.00  0.00    -0.606 A  
HETATM   26  C   UNL     1     -11.040  16.170  70.409  1.00  0.00    -0.362 C  
HETATM   27  O   UNL     1     -12.311  16.427  72.991  1.00  0.00    -0.476 OA 
HETATM   28  C   UNL     1     -13.164  14.251  72.927  1.00  0.00    -0.593 A  
ENDBRANCH  17  20
ENDBRANCH  15  16
BRANCH  15  29
HETATM   29  C   UNL     1      -8.923  13.933  67.030  1.00  0.00    -0.240 C  
BRANCH  29  30
HETATM   30  S   UNL     1      -9.750  15.154  65.945  1.00  0.00    -0.345 SA 
BRANCH  30  31
HETATM   31  C   UNL     1      -9.621  16.688  66.834  1.00  0.00    -0.249 A  
HETATM   32  C   UNL     1      -8.352  17.989  68.449  1.00  0.00    -0.305 A  
HETATM   33  C   UNL     1      -8.604  16.784  67.793  1.00  0.00    -0.199 A  
HETATM   34  C   UNL     1     -10.138  19.026  67.205  1.00  0.00    -0.435 A  
HETATM   35  C   UNL     1      -9.116  19.113  68.149  1.00  0.00    -0.371 A  
HETATM   36  C   UNL     1     -10.391  17.817  66.549  1.00  0.00    -0.345 A  
ENDBRANCH  30  31
ENDBRANCH  29  30
ENDBRANCH  15  29
ENDBRANCH  12  15
ENDBRANCH  11  12
ENDBRANCH   8  11
BRANCH   9  37
HETATM   37  C   UNL     1      -8.482   7.482  68.579  1.00  0.00    -0.129 C  
HETATM   38  C   UNL     1      -9.208   4.432  68.336  1.00  0.00    -0.186 C  
HETATM   39  O   UNL     1      -7.367   6.997  68.751  1.00  0.00    -0.088 OA 
HETATM   40  C   UNL     1     -10.629   5.235  66.456  1.00  0.00    -0.348 C  
HETATM   41  C   UNL     1      -9.341   5.509  67.250  1.00  0.00    -0.114 C  
HETATM   42  N   UNL     1      -9.468   6.848  67.841  1.00  0.00    -0.121 N  
HETATM   43  C   UNL     1      -8.148   5.425  66.287  1.00  0.00    -0.105 C  
HETATM   44  H   UNL     1     -10.346   7.347  67.697  1.00  0.00     0.000 HD 
ENDBRANCH   9  37
TORSDOF 9
ENDMDL
MODEL       12
REMARK 921   NORMALIZED FREE ENERGY PREDICTED BY IDOCK:   -7.15 KCAL/MOL
REMARK 922        TOTAL FREE ENERGY PREDICTED BY IDOCK:  -13.75 KCAL/MOL
REMARK 923 INTER-LIGAND FREE ENERGY PREDICTED BY IDOCK:  -11.89 KCAL/MOL
REMARK 924 INTRA-LIGAND FREE ENERGY PREDICTED BY IDOCK:   -1.86 KCAL/MOL
REMARK 927      BINDING AFFINITY PREDICTED BY RF-SCORE:    0.00 PKD
ROOT
HETATM    1  C   UNL     1     -10.562  17.644  66.376  1.00  0.00    -0.208 C  
HETATM    2  C   UNL     1     -10.459  19.089  65.878  1.00  0.00    -0.468 C  
HETATM    3  C   UNL     1      -9.464  19.902  66.697  1.00  0.00    -0.513 C  
HETATM    4  C   UNL     1      -9.848  19.906  68.171  1.00  0.00    -0.524 C  
HETATM    5  C   UNL     1     -10.028  18.502  68.746  1.00  0.00    -0.417 C  
HETATM    6  C   UNL     1     -10.881  17.570  67.870  1.00  0.00    -0.255 C  
HETATM    7  C   UNL     1     -10.818  16.099  68.317  1.00  0.00    -0.326 C  
HETATM    8  N   UNL     1      -9.489  15.490  68.207  1.00  0.00    -0.198 NA 
HETATM    9  C   UNL     1      -8.760  15.808  66.966  1.00  0.00    -0.224 C  
HETATM   10  C   UNL     1      -9.338  16.819  65.957  1.00  0.00    -0.245 C  
ENDROOT
BRANCH   8  11
HETATM   11  C   UNL     1      -9.552  14.031  68.479  1.00  0.00    -0.201 C  
BRANCH  11  12
HETATM   12  C   UNL     1      -8.299  13.138  68.191  1.00  0.00    -0.161 C  
HETATM   13  H   UNL     1      -6.512  12.803  69.004  1.00  0.00     0.000 HD 
HETATM   14  O   UNL     1      -7.272  13.344  69.179  1.00  0.00    -0.068 OA 
BRANCH  12  15
HETATM   15  C   UNL     1      -8.618  11.627  68.030  1.00  0.00    -0.152 C  
BRANCH  15  16
HETATM   16  N   UNL     1      -9.775  11.185  68.819  1.00  0.00    -0.246 N  
HETATM   17  C   UNL     1      -9.690  10.251  69.826  1.00  0.00    -0.144 C  
HETATM   18  O   UNL     1      -8.657   9.684  70.160  1.00  0.00    -0.193 OA 
HETATM   19  H   UNL     1     -10.687  11.592  68.611  1.00  0.00     0.000 HD 
BRANCH  17  20
HETATM   20  C   UNL     1     -10.960   9.887  70.499  1.00  0.00    -0.391 A  
HETATM   21  C   UNL     1     -11.791  10.937  70.931  1.00  0.00    -0.363 A  
HETATM   22  H   UNL     1     -13.658   6.886  72.352  1.00  0.00     0.000 HD 
HETATM   23  C   UNL     1     -11.294   8.540  70.758  1.00  0.00    -0.296 A  
HETATM   24  C   UNL     1     -12.466   8.303  71.490  1.00  0.00    -0.312 A  
HETATM   25  C   UNL     1     -12.970  10.663  71.610  1.00  0.00    -0.582 A  
HETATM   26  C   UNL     1     -10.465   7.374  70.281  1.00  0.00    -0.229 C  
HETATM   27  O   UNL     1     -12.864   7.046  71.856  1.00  0.00    -0.324 OA 
HETATM   28  C   UNL     1     -13.303   9.342  71.894  1.00  0.00    -0.508 A  
ENDBRANCH  17  20
ENDBRANCH  15  16
BRANCH  15  29
HETATM   29  C   UNL     1      -8.694  11.168  66.543  1.00  0.00    -0.174 C  
BRANCH  29  30
HETATM   30  S   UNL     1     -10.318  10.528  65.991  1.00  0.00    -0.173 SA 
BRANCH  30  31
HETATM   31  C   UNL     1     -11.157  11.957  65.349  1.00  0.00    -0.306 A  
HETATM   32  C   UNL     1     -12.376  13.993  65.879  1.00  0.00    -0.515 A  
HETATM   33  C   UNL     1     -11.800  12.787  66.278  1.00  0.00    -0.485 A  
HETATM   34  C   UNL     1     -11.686  13.559  63.610  1.00  0.00    -0.298 A  
HETATM   35  C   UNL     1     -12.313  14.382  64.543  1.00  0.00    -0.440 A  
HETATM   36  C   UNL     1     -11.109  12.349  64.011  1.00  0.00    -0.452 A  
ENDBRANCH  30  31
ENDBRANCH  29  30
ENDBRANCH  15  29
ENDBRANCH  12  15
ENDBRANCH  11  12
ENDBRANCH   8  11
BRANCH   9  37
HETATM   37  C   UNL     1      -7.306  16.248  67.327  1.00  0.00    -0.182 C  
HETATM   38  C   UNL     1      -5.215  18.597  67.359  1.00  0.00    -0.148 C  
HETATM   39  O   UNL     1      -6.297  15.622  67.008  1.00  0.00    -0.298 OA 
HETATM   40  C   UNL     1      -6.436  19.245  69.430  1.00  0.00    -0.346 C  
HETATM   41  C   UNL     1      -6.024  18.055  68.546  1.00  0.00    -0.188 C  
HETATM   42  N   UNL     1      -7.259  17.400  68.095  1.00  0.00    -0.193 N  
HETATM   43  C   UNL     1      -5.151  17.107  69.381  1.00  0.00    -0.147 C  
HETATM   44  H   UNL     1      -8.146  17.824  68.365  1.00  0.00     0.000 HD 
ENDBRANCH   9  37
TORSDOF 9
ENDMDL
MODEL       13
REMARK 921   NORMALIZED FREE ENERGY PREDICTED BY IDOCK:   -7.09 KCAL/MOL
REMARK 922        TOTAL FREE ENERGY PREDICTED BY IDOCK:  -13.65 KCAL/MOL
REMARK 923 INTER-LIGAND FREE ENERGY PREDICTED BY IDOCK:  -11.47 KCAL/MOL
REMARK 924 INTRA-LIGAND FREE ENERGY PREDICTED BY IDOCK:   -2.19 KCAL/MOL
REMARK 927      BINDING AFFINITY PREDICTED BY RF-SCORE:    0.00 PKD
ROOT
HETATM    1  C   UNL     1      -8.425  17.205  68.068  1.00  0.00    -0.219 C  
HETATM    2  C   UNL     1      -8.686  18.582  68.688  1.00  0.00    -0.325 C  
HETATM    3  C   UNL     1     -10.173  18.914  68.727  1.00  0.00    -0.325 C  
HETATM    4  C   UNL     1     -10.777  18.871  67.330  1.00  0.00    -0.519 C  
HETATM    5  C   UNL     1     -10.521  17.549  66.608  1.00  0.00    -0.270 C  
HETATM    6  C   UNL     1      -9.064  17.065  66.685  1.00  0.00    -0.278 C  
HETATM    7  C   UNL     1      -8.885  15.615  66.202  1.00  0.00    -0.276 C  
HETATM    8  N   UNL     1      -9.582  14.616  67.017  1.00  0.00    -0.232 NA 
HETATM    9  C   UNL     1      -9.476  14.818  68.474  1.00  0.00    -0.214 C  
HETATM   10  C   UNL     1      -8.790  16.076  69.040  1.00  0.00    -0.244 C  
ENDROOT
BRANCH   8  11
HETATM   11  C   UNL     1      -9.211  13.240  66.599  1.00  0.00    -0.215 C  
BRANCH  11  12
HETATM   12  C   UNL     1     -10.332  12.166  66.398  1.00  0.00    -0.218 C  
HETATM   13  H   UNL     1     -11.486  11.503  64.915  1.00  0.00     0.000 HD 
HETATM   14  O   UNL     1     -10.805  12.154  65.037  1.00  0.00    -0.282 OA 
BRANCH  12  15
HETATM   15  C   UNL     1      -9.937  10.738  66.861  1.00  0.00    -0.200 C  
BRANCH  15  16
HETATM   16  N   UNL     1     -10.683  10.277  68.039  1.00  0.00    -0.235 N  
HETATM   17  C   UNL     1     -10.113  10.125  69.282  1.00  0.00    -0.222 C  
HETATM   18  O   UNL     1      -8.935  10.344  69.536  1.00  0.00    -0.182 OA 
HETATM   19  H   UNL     1     -11.673  10.058  67.929  1.00  0.00     0.000 HD 
BRANCH  17  20
HETATM   20  C   UNL     1     -10.997   9.613  70.356  1.00  0.00    -0.356 A  
HETATM   21  C   UNL     1     -12.286  10.166  70.457  1.00  0.00    -0.330 A  
HETATM   22  H   UNL     1     -11.661   7.201  74.026  1.00  0.00     0.000 HD 
HETATM   23  C   UNL     1     -10.542   8.653  71.286  1.00  0.00    -0.308 A  
HETATM   24  C   UNL     1     -11.416   8.307  72.326  1.00  0.00    -0.384 A  
HETATM   25  C   UNL     1     -13.145   9.762  71.471  1.00  0.00    -0.506 A  
HETATM   26  C   UNL     1      -9.187   7.995  71.202  1.00  0.00    -0.174 C  
HETATM   27  O   UNL     1     -11.068   7.436  73.321  1.00  0.00    -0.365 OA 
HETATM   28  C   UNL     1     -12.704   8.835  72.409  1.00  0.00    -0.433 A  
ENDBRANCH  17  20
ENDBRANCH  15  16
BRANCH  15  29
HETATM   29  C   UNL     1      -9.933   9.694  65.705  1.00  0.00    -0.251 C  
BRANCH  29  30
HETATM   30  S   UNL     1      -8.539   8.508  65.710  1.00  0.00    -0.177 SA 
BRANCH  30  31
HETATM   31  C   UNL     1      -8.971   7.329  66.969  1.00  0.00    -0.130 A  
HETATM   32  C   UNL     1     -10.743   6.002  67.974  1.00  0.00    -0.359 A  
HETATM   33  C   UNL     1     -10.328   7.006  67.098  1.00  0.00    -0.351 A  
HETATM   34  C   UNL     1      -8.449   5.629  68.615  1.00  0.00    -0.105 A  
HETATM   35  C   UNL     1      -9.800   5.308  68.728  1.00  0.00    -0.224 A  
HETATM   36  C   UNL     1      -8.034   6.637  67.738  1.00  0.00    -0.112 A  
ENDBRANCH  30  31
ENDBRANCH  29  30
ENDBRANCH  15  29
ENDBRANCH  12  15
ENDBRANCH  11  12
ENDBRANCH   8  11
BRANCH   9  37
HETATM   37  C   UNL     1     -10.897  14.703  69.110  1.00  0.00    -0.259 C  
HETATM   38  C   UNL     1     -12.651  13.413  71.379  1.00  0.00    -0.374 C  
HETATM   39  O   UNL     1     -11.923  14.482  68.469  1.00  0.00    -0.327 OA 
HETATM   40  C   UNL     1     -11.663  15.237  72.755  1.00  0.00    -0.502 C  
HETATM   41  C   UNL     1     -12.095  14.843  71.333  1.00  0.00    -0.337 C  
HETATM   42  N   UNL     1     -10.903  14.924  70.477  1.00  0.00    -0.504 N  
HETATM   43  C   UNL     1     -13.192  15.813  70.870  1.00  0.00    -0.143 C  
HETATM   44  H   UNL     1     -10.016  15.159  70.922  1.00  0.00     0.000 HD 
ENDBRANCH   9  37
TORSDOF 9
ENDMDL
MODEL       14
REMARK 921   NORMALIZED FREE ENERGY PREDICTED BY IDOCK:   -7.03 KCAL/MOL
REMARK 922        TOTAL FREE ENERGY PREDICTED BY IDOCK:  -13.57 KCAL/MOL
REMARK 923 INTER-LIGAND FREE ENERGY PREDICTED BY IDOCK:  -11.29 KCAL/MOL
REMARK 924 INTRA-LIGAND FREE ENERGY PREDICTED BY IDOCK:   -2.28 KCAL/MOL
REMARK 927      BINDING AFFINITY PREDICTED BY RF-SCORE:    0.00 PKD
ROOT
HETATM    1  C   UNL     1      -9.823   6.954  72.560  1.00  0.00    -0.174 C  
HETATM    2  C   UNL     1     -10.780   6.109  73.406  1.00  0.00    -0.280 C  
HETATM    3  C   UNL     1     -11.965   5.606  72.591  1.00  0.00    -0.120 C  
HETATM    4  C   UNL     1     -12.734   6.767  71.975  1.00  0.00    -0.230 C  
HETATM    5  C   UNL     1     -11.848   7.701  71.152  1.00  0.00    -0.314 C  
HETATM    6  C   UNL     1     -10.541   8.106  71.853  1.00  0.00    -0.324 C  
HETATM    7  C   UNL     1      -9.546   8.808  70.914  1.00  0.00    -0.221 C  
HETATM    8  N   UNL     1      -9.056   7.969  69.815  1.00  0.00    -0.149 NA 
HETATM    9  C   UNL     1      -8.704   6.589  70.197  1.00  0.00    -0.140 C  
HETATM   10  C   UNL     1      -8.980   6.078  71.624  1.00  0.00    -0.143 C  
ENDROOT
BRANCH   8  11
HETATM   11  C   UNL     1      -7.969   8.654  69.070  1.00  0.00    -0.115 C  
BRANCH  11  12
HETATM   12  C   UNL     1      -7.942  10.218  69.012  1.00  0.00    -0.125 C  
HETATM   13  H   UNL     1      -6.657  11.649  68.493  1.00  0.00     0.000 HD 
HETATM   14  O   UNL     1      -6.674  10.700  68.529  1.00  0.00    -0.055 OA 
BRANCH  12  15
HETATM   15  C   UNL     1      -9.115  10.845  68.212  1.00  0.00    -0.158 C  
BRANCH  15  16
HETATM   16  N   UNL     1      -9.855  11.867  68.963  1.00  0.00    -0.415 N  
HETATM   17  C   UNL     1     -11.225  11.992  68.922  1.00  0.00    -0.261 C  
HETATM   18  O   UNL     1     -11.965  11.281  68.252  1.00  0.00    -0.582 OA 
HETATM   19  H   UNL     1      -9.327  12.517  69.546  1.00  0.00     0.000 HD 
BRANCH  17  20
HETATM   20  C   UNL     1     -11.812  13.101  69.709  1.00  0.00    -0.386 A  
HETATM   21  C   UNL     1     -11.583  14.413  69.256  1.00  0.00    -0.345 A  
HETATM   22  H   UNL     1     -13.879  14.630  73.331  1.00  0.00     0.000 HD 
HETATM   23  C   UNL     1     -12.519  12.857  70.907  1.00  0.00    -0.383 A  
HETATM   24  C   UNL     1     -12.948  13.977  71.634  1.00  0.00    -0.352 A  
HETATM   25  C   UNL     1     -12.067  15.497  69.977  1.00  0.00    -0.391 A  
HETATM   26  C   UNL     1     -12.831  11.473  71.418  1.00  0.00    -0.489 C  
HETATM   27  O   UNL     1     -13.588  13.872  72.839  1.00  0.00    -0.680 OA 
HETATM   28  C   UNL     1     -12.745  15.276  71.171  1.00  0.00    -0.476 A  
ENDBRANCH  17  20
ENDBRANCH  15  16
BRANCH  15  29
HETATM   29  C   UNL     1      -8.704  11.326  66.788  1.00  0.00    -0.166 C  
BRANCH  29  30
HETATM   30  S   UNL     1      -9.700  10.659  65.405  1.00  0.00    -0.274 SA 
BRANCH  30  31
HETATM   31  C   UNL     1     -10.736  12.018  64.915  1.00  0.00    -0.301 A  
HETATM   32  C   UNL     1     -11.317  14.351  65.280  1.00  0.00    -0.346 A  
HETATM   33  C   UNL     1     -10.636  13.197  65.667  1.00  0.00    -0.289 A  
HETATM   34  C   UNL     1     -12.221  13.167  63.384  1.00  0.00    -0.521 A  
HETATM   35  C   UNL     1     -12.106  14.337  64.132  1.00  0.00    -0.423 A  
HETATM   36  C   UNL     1     -11.538  12.010  63.773  1.00  0.00    -0.565 A  
ENDBRANCH  30  31
ENDBRANCH  29  30
ENDBRANCH  15  29
ENDBRANCH  12  15
ENDBRANCH  11  12
ENDBRANCH   8  11
BRANCH   9  37
HETATM   37  C   UNL     1      -9.358   5.597  69.183  1.00  0.00    -0.124 C  
HETATM   38  C   UNL     1      -9.858   4.901  66.158  1.00  0.00    -0.222 C  
HETATM   39  O   UNL     1     -10.519   5.202  69.258  1.00  0.00    -0.219 OA 
HETATM   40  C   UNL     1      -7.553   3.973  66.309  1.00  0.00    -0.089 C  
HETATM   41  C   UNL     1      -8.838   4.253  67.105  1.00  0.00    -0.113 C  
HETATM   42  N   UNL     1      -8.481   5.160  68.204  1.00  0.00    -0.100 N  
HETATM   43  C   UNL     1      -9.390   2.918  67.627  1.00  0.00    -0.234 C  
HETATM   44  H   UNL     1      -7.518   5.493  68.249  1.00  0.00     0.000 HD 
ENDBRANCH   9  37
TORSDOF 9
ENDMDL
MODEL       15
REMARK 921   NORMALIZED FREE ENERGY PREDICTED BY IDOCK:   -7.03 KCAL/MOL
REMARK 922        TOTAL FREE ENERGY PREDICTED BY IDOCK:  -13.56 KCAL/MOL
REMARK 923 INTER-LIGAND FREE ENERGY PREDICTED BY IDOCK:  -11.28 KCAL/MOL
REMARK 924 INTRA-LIGAND FREE ENERGY PREDICTED BY IDOCK:   -2.29 KCAL/MOL
REMARK 927      BINDING AFFINITY PREDICTED BY RF-SCORE:    0.00 PKD
ROOT
HETATM    1  C   UNL     1     -11.226   5.604  72.728  1.00  0.00    -0.347 C  
HETATM    2  C   UNL     1     -11.024   4.427  73.688  1.00  0.00    -0.374 C  
HETATM    3  C   UNL     1      -9.572   3.965  73.721  1.00  0.00    -0.132 C  
HETATM    4  C   UNL     1      -9.097   3.564  72.331  1.00  0.00    -0.135 C  
HETATM    5  C   UNL     1      -9.309   4.660  71.288  1.00  0.00    -0.205 C  
HETATM    6  C   UNL     1     -10.708   5.296  71.321  1.00  0.00    -0.198 C  
HETATM    7  C   UNL     1     -10.811   6.571  70.466  1.00  0.00    -0.271 C  
HETATM    8  N   UNL     1      -9.962   7.676  70.924  1.00  0.00    -0.181 NA 
HETATM    9  C   UNL     1      -9.950   7.888  72.383  1.00  0.00    -0.229 C  
HETATM   10  C   UNL     1     -10.683   6.910  73.321  1.00  0.00    -0.349 C  
ENDROOT
BRANCH   8  11
HETATM   11  C   UNL     1     -10.255   8.918  70.164  1.00  0.00    -0.196 C  
BRANCH  11  12
HETATM   12  C   UNL     1      -9.223   9.438  69.108  1.00  0.00    -0.155 C  
HETATM   13  H   UNL     1      -8.126   8.683  67.627  1.00  0.00     0.000 HD 
HETATM   14  O   UNL     1      -8.752   8.368  68.267  1.00  0.00    -0.141 OA 
BRANCH  12  15
HETATM   15  C   UNL     1      -9.732  10.631  68.255  1.00  0.00    -0.161 C  
BRANCH  15  16
HETATM   16  N   UNL     1     -10.328  11.710  69.053  1.00  0.00    -0.385 N  
HETATM   17  C   UNL     1     -11.596  12.198  68.837  1.00  0.00    -0.324 C  
HETATM   18  O   UNL     1     -12.352  11.799  67.958  1.00  0.00    -0.391 OA 
HETATM   19  H   UNL     1      -9.774  12.118  69.806  1.00  0.00     0.000 HD 
BRANCH  17  20
HETATM   20  C   UNL     1     -12.032  13.315  69.708  1.00  0.00    -0.391 A  
HETATM   21  C   UNL     1     -11.787  14.625  69.257  1.00  0.00    -0.357 A  
HETATM   22  H   UNL     1     -13.595  14.855  73.570  1.00  0.00     0.000 HD 
HETATM   23  C   UNL     1     -12.612  13.077  70.973  1.00  0.00    -0.386 A  
HETATM   24  C   UNL     1     -12.897  14.199  71.765  1.00  0.00    -0.347 A  
HETATM   25  C   UNL     1     -12.129  15.714  70.048  1.00  0.00    -0.379 A  
HETATM   26  C   UNL     1     -12.936  11.698  71.490  1.00  0.00    -0.463 C  
HETATM   27  O   UNL     1     -13.402  14.095  73.033  1.00  0.00    -0.635 OA 
HETATM   28  C   UNL     1     -12.679  15.497  71.307  1.00  0.00    -0.526 A  
ENDBRANCH  17  20
ENDBRANCH  15  16
BRANCH  15  29
HETATM   29  C   UNL     1      -8.678  11.152  67.233  1.00  0.00    -0.139 C  
BRANCH  29  30
HETATM   30  S   UNL     1      -9.080  10.877  65.468  1.00  0.00    -0.201 SA 
BRANCH  30  31
HETATM   31  C   UNL     1     -10.165  12.222  65.051  1.00  0.00    -0.285 A  
HETATM   32  C   UNL     1     -12.097  12.936  63.759  1.00  0.00    -0.583 A  
HETATM   33  C   UNL     1     -11.127  11.980  64.061  1.00  0.00    -0.452 A  
HETATM   34  C   UNL     1     -11.157  14.401  65.427  1.00  0.00    -0.331 A  
HETATM   35  C   UNL     1     -12.116  14.146  64.449  1.00  0.00    -0.486 A  
HETATM   36  C   UNL     1     -10.183  13.443  65.728  1.00  0.00    -0.300 A  
ENDBRANCH  30  31
ENDBRANCH  29  30
ENDBRANCH  15  29
ENDBRANCH  12  15
ENDBRANCH  11  12
ENDBRANCH   8  11
BRANCH   9  37
HETATM   37  C   UNL     1      -8.472   8.022  72.866  1.00  0.00    -0.186 C  
HETATM   38  C   UNL     1      -5.785   6.522  73.513  1.00  0.00    -0.050 C  
HETATM   39  O   UNL     1      -8.128   8.649  73.866  1.00  0.00    -0.398 OA 
HETATM   40  C   UNL     1      -5.488   6.631  71.044  1.00  0.00    -0.026 C  
HETATM   41  C   UNL     1      -6.114   7.340  72.257  1.00  0.00    -0.040 C  
HETATM   42  N   UNL     1      -7.564   7.401  72.025  1.00  0.00    -0.083 N  
HETATM   43  C   UNL     1      -5.499   8.742  72.373  1.00  0.00    -0.059 C  
HETATM   44  H   UNL     1      -7.928   6.952  71.185  1.00  0.00     0.000 HD 
ENDBRANCH   9  37
TORSDOF 9
ENDMDL
MODEL       16
REMARK 921   NORMALIZED FREE ENERGY PREDICTED BY IDOCK:   -6.99 KCAL/MOL
REMARK 922        TOTAL FREE ENERGY PREDICTED BY IDOCK:  -13.51 KCAL/MOL
REMARK 923 INTER-LIGAND FREE ENERGY PREDICTED BY IDOCK:  -10.58 KCAL/MOL
REMARK 924 INTRA-LIGAND FREE ENERGY PREDICTED BY IDOCK:   -2.93 KCAL/MOL
REMARK 927      BINDING AFFINITY PREDICTED BY RF-SCORE:    0.00 PKD
ROOT
HETATM    1  C   UNL     1      -8.727  17.403  68.648  1.00  0.00    -0.261 C  
HETATM    2  C   UNL     1      -7.493  18.038  67.998  1.00  0.00    -0.238 C  
HETATM    3  C   UNL     1      -6.903  17.148  66.911  1.00  0.00    -0.242 C  
HETATM    4  C   UNL     1      -6.527  15.783  67.472  1.00  0.00    -0.203 C  
HETATM    5  C   UNL     1      -7.685  15.092  68.191  1.00  0.00    -0.115 C  
HETATM    6  C   UNL     1      -8.440  15.997  69.177  1.00  0.00    -0.247 C  
HETATM    7  C   UNL     1      -9.758  15.377  69.675  1.00  0.00    -0.246 C  
HETATM    8  N   UNL     1     -10.760  15.164  68.625  1.00  0.00    -0.232 NA 
HETATM    9  C   UNL     1     -10.903  16.276  67.667  1.00  0.00    -0.293 C  
HETATM   10  C   UNL     1      -9.950  17.486  67.726  1.00  0.00    -0.312 C  
ENDROOT
BRANCH   8  11
HETATM   11  C   UNL     1     -12.057  14.740  69.211  1.00  0.00    -0.261 C  
BRANCH  11  12
HETATM   12  C   UNL     1     -12.068  13.859  70.505  1.00  0.00    -0.356 C  
HETATM   13  H   UNL     1     -13.155  13.698  72.167  1.00  0.00     0.000 HD 
HETATM   14  O   UNL     1     -13.148  14.232  71.382  1.00  0.00    -0.321 OA 
BRANCH  12  15
HETATM   15  C   UNL     1     -12.076  12.331  70.234  1.00  0.00    -0.295 C  
BRANCH  15  16
HETATM   16  N   UNL     1     -10.873  11.853  69.540  1.00  0.00    -0.460 N  
HETATM   17  C   UNL     1     -10.911  11.156  68.354  1.00  0.00    -0.227 C  
HETATM   18  O   UNL     1     -11.940  10.852  67.762  1.00  0.00    -0.553 OA 
HETATM   19  H   UNL     1      -9.963  12.047  69.958  1.00  0.00     0.000 HD 
BRANCH  17  20
HETATM   20  C   UNL     1      -9.608  10.713  67.805  1.00  0.00    -0.172 A  
HETATM   21  C   UNL     1      -8.757  11.698  67.271  1.00  0.00    -0.159 A  
HETATM   22  H   UNL     1      -6.811   7.503  66.540  1.00  0.00     0.000 HD 
HETATM   23  C   UNL     1      -9.257   9.346  67.759  1.00  0.00    -0.141 A  
HETATM   24  C   UNL     1      -8.048   9.018  67.129  1.00  0.00    -0.106 A  
HETATM   25  C   UNL     1      -7.543  11.341  66.699  1.00  0.00    -0.140 A  
HETATM   26  C   UNL     1     -10.108   8.252  68.353  1.00  0.00    -0.227 C  
HETATM   27  O   UNL     1      -7.630   7.725  66.967  1.00  0.00    -0.096 OA 
HETATM   28  C   UNL     1      -7.194   9.996  66.624  1.00  0.00    -0.099 A  
ENDBRANCH  17  20
ENDBRANCH  15  16
BRANCH  15  29
HETATM   29  C   UNL     1     -12.419  11.483  71.494  1.00  0.00    -0.160 C  
BRANCH  29  30
HETATM   30  S   UNL     1     -13.331   9.926  71.181  1.00  0.00    -0.210 SA 
BRANCH  30  31
HETATM   31  C   UNL     1     -12.125   8.649  71.454  1.00  0.00    -0.303 A  
HETATM   32  C   UNL     1      -9.892   8.115  72.254  1.00  0.00    -0.329 A  
HETATM   33  C   UNL     1     -10.859   9.055  71.897  1.00  0.00    -0.413 A  
HETATM   34  C   UNL     1     -11.438   6.342  71.725  1.00  0.00    -0.355 A  
HETATM   35  C   UNL     1     -10.185   6.756  72.174  1.00  0.00    -0.213 A  
HETATM   36  C   UNL     1     -12.406   7.285  71.366  1.00  0.00    -0.403 A  
ENDBRANCH  30  31
ENDBRANCH  29  30
ENDBRANCH  15  29
ENDBRANCH  12  15
ENDBRANCH  11  12
ENDBRANCH   8  11
BRANCH   9  37
HETATM   37  C   UNL     1     -10.882  15.703  66.215  1.00  0.00    -0.262 C  
HETATM   38  C   UNL     1     -10.345  13.189  64.402  1.00  0.00    -0.390 C  
HETATM   39  O   UNL     1     -10.334  16.255  65.264  1.00  0.00    -0.552 OA 
HETATM   40  C   UNL     1     -12.642  12.558  65.129  1.00  0.00    -0.358 C  
HETATM   41  C   UNL     1     -11.707  13.745  64.841  1.00  0.00    -0.363 C  
HETATM   42  N   UNL     1     -11.591  14.519  66.085  1.00  0.00    -0.368 N  
HETATM   43  C   UNL     1     -12.317  14.582  63.707  1.00  0.00     0.104 C  
HETATM   44  H   UNL     1     -12.065  14.159  66.913  1.00  0.00     0.000 HD 
ENDBRANCH   9  37
TORSDOF 9
ENDMDL
MODEL       17
REMARK 921   NORMALIZED FREE ENERGY PREDICTED BY IDOCK:   -6.97 KCAL/MOL
REMARK 922        TOTAL FREE ENERGY PREDICTED BY IDOCK:  -13.47 KCAL/MOL
REMARK 923 INTER-LIGAND FREE ENERGY PREDICTED BY IDOCK:  -11.00 KCAL/MOL
REMARK 924 INTRA-LIGAND FREE ENERGY PREDICTED BY IDOCK:   -2.47 KCAL/MOL
REMARK 927      BINDING AFFINITY PREDICTED BY RF-SCORE:    0.00 PKD
ROOT
HETATM    1  C   UNL     1     -10.549   8.814  69.419  1.00  0.00    -0.218 C  
HETATM    2  C   UNL     1     -11.089   7.613  70.202  1.00  0.00    -0.229 C  
HETATM    3  C   UNL     1     -10.610   6.291  69.614  1.00  0.00    -0.323 C  
HETATM    4  C   UNL     1     -11.024   6.163  68.154  1.00  0.00    -0.398 C  
HETATM    5  C   UNL     1     -10.575   7.348  67.300  1.00  0.00    -0.393 C  
HETATM    6  C   UNL     1     -10.870   8.720  67.926  1.00  0.00    -0.078 C  
HETATM    7  C   UNL     1     -10.169   9.879  67.195  1.00  0.00    -0.228 C  
HETATM    8  N   UNL     1      -8.704   9.828  67.247  1.00  0.00    -0.132 NA 
HETATM    9  C   UNL     1      -8.141   9.472  68.562  1.00  0.00    -0.101 C  
HETATM   10  C   UNL     1      -9.066   9.060  69.723  1.00  0.00    -0.163 C  
ENDROOT
BRANCH   8  11
HETATM   11  C   UNL     1      -8.112  11.068  66.683  1.00  0.00    -0.155 C  
BRANCH  11  12
HETATM   12  C   UNL     1      -7.841  12.289  67.624  1.00  0.00    -0.156 C  
HETATM   13  H   UNL     1      -6.394  13.626  67.920  1.00  0.00     0.000 HD 
HETATM   14  O   UNL     1      -6.559  12.885  67.349  1.00  0.00    -0.161 OA 
BRANCH  12  15
HETATM   15  C   UNL     1      -8.964  13.360  67.616  1.00  0.00    -0.202 C  
BRANCH  15  16
HETATM   16  N   UNL     1      -9.850  13.288  68.785  1.00  0.00    -0.421 N  
HETATM   17  C   UNL     1     -11.209  13.095  68.693  1.00  0.00    -0.276 C  
HETATM   18  O   UNL     1     -11.822  12.977  67.638  1.00  0.00    -0.353 OA 
HETATM   19  H   UNL     1      -9.436  13.387  69.712  1.00  0.00     0.000 HD 
BRANCH  17  20
HETATM   20  C   UNL     1     -11.964  13.086  69.968  1.00  0.00    -0.383 A  
HETATM   21  C   UNL     1     -12.240  11.837  70.551  1.00  0.00    -0.438 A  
HETATM   22  H   UNL     1     -14.348  15.157  73.091  1.00  0.00     0.000 HD 
HETATM   23  C   UNL     1     -12.447  14.281  70.544  1.00  0.00    -0.428 A  
HETATM   24  C   UNL     1     -13.237  14.161  71.696  1.00  0.00    -0.353 A  
HETATM   25  C   UNL     1     -12.984  11.758  71.721  1.00  0.00    -0.466 A  
HETATM   26  C   UNL     1     -12.146  15.650  69.987  1.00  0.00    -0.379 C  
HETATM   27  O   UNL     1     -13.813  15.239  72.310  1.00  0.00    -0.439 OA 
HETATM   28  C   UNL     1     -13.488  12.924  72.289  1.00  0.00    -0.631 A  
ENDBRANCH  17  20
ENDBRANCH  15  16
BRANCH  15  29
HETATM   29  C   UNL     1      -8.439  14.802  67.347  1.00  0.00    -0.201 C  
BRANCH  29  30
HETATM   30  S   UNL     1      -9.381  15.774  66.114  1.00  0.00    -0.354 SA 
BRANCH  30  31
HETATM   31  C   UNL     1      -9.604  17.360  66.885  1.00  0.00    -0.277 A  
HETATM   32  C   UNL     1     -10.725  19.516  66.787  1.00  0.00    -0.569 A  
HETATM   33  C   UNL     1     -10.395  18.294  66.201  1.00  0.00    -0.414 A  
HETATM   34  C   UNL     1      -9.472  18.899  68.752  1.00  0.00    -0.407 A  
HETATM   35  C   UNL     1     -10.268  19.815  68.068  1.00  0.00    -0.581 A  
HETATM   36  C   UNL     1      -9.141  17.674  68.164  1.00  0.00    -0.276 A  
ENDBRANCH  30  31
ENDBRANCH  29  30
ENDBRANCH  15  29
ENDBRANCH  12  15
ENDBRANCH  11  12
ENDBRANCH   8  11
BRANCH   9  37
HETATM   37  C   UNL     1      -7.063   8.359  68.370  1.00  0.00    -0.080 C  
HETATM   38  C   UNL     1      -6.405   5.291  68.586  1.00  0.00    -0.035 C  
HETATM   39  O   UNL     1      -5.914   8.430  68.800  1.00  0.00    -0.042 OA 
HETATM   40  C   UNL     1      -7.578   5.199  66.392  1.00  0.00    -0.088 C  
HETATM   41  C   UNL     1      -6.723   6.087  67.312  1.00  0.00    -0.061 C  
HETATM   42  N   UNL     1      -7.514   7.287  67.618  1.00  0.00    -0.099 N  
HETATM   43  C   UNL     1      -5.420   6.437  66.579  1.00  0.00    -0.013 C  
HETATM   44  H   UNL     1      -8.464   7.334  67.249  1.00  0.00     0.000 HD 
ENDBRANCH   9  37
TORSDOF 9
ENDMDL
MODEL       18
REMARK 921   NORMALIZED FREE ENERGY PREDICTED BY IDOCK:   -6.88 KCAL/MOL
REMARK 922        TOTAL FREE ENERGY PREDICTED BY IDOCK:  -13.34 KCAL/MOL
REMARK 923 INTER-LIGAND FREE ENERGY PREDICTED BY IDOCK:  -10.37 KCAL/MOL
REMARK 924 INTRA-LIGAND FREE ENERGY PREDICTED BY IDOCK:   -2.98 KCAL/MOL
REMARK 927      BINDING AFFINITY PREDICTED BY RF-SCORE:    0.00 PKD
ROOT
HETATM    1  C   UNL     1     -10.171  14.318  65.529  1.00  0.00    -0.379 C  
HETATM    2  C   UNL     1     -11.264  14.842  64.592  1.00  0.00    -0.349 C  
HETATM    3  C   UNL     1     -12.631  14.264  64.934  1.00  0.00    -0.339 C  
HETATM    4  C   UNL     1     -12.608  12.742  64.874  1.00  0.00    -0.541 C  
HETATM    5  C   UNL     1     -11.510  12.126  65.739  1.00  0.00    -0.414 C  
HETATM    6  C   UNL     1     -10.133  12.789  65.571  1.00  0.00    -0.278 C  
HETATM    7  C   UNL     1      -9.118  12.349  66.641  1.00  0.00    -0.204 C  
HETATM    8  N   UNL     1      -9.478  12.732  68.010  1.00  0.00    -0.208 NA 
HETATM    9  C   UNL     1      -9.998  14.104  68.154  1.00  0.00    -0.232 C  
HETATM   10  C   UNL     1     -10.255  14.978  66.911  1.00  0.00    -0.258 C  
ENDROOT
BRANCH   8  11
HETATM   11  C   UNL     1      -8.367  12.436  68.951  1.00  0.00     0.248 C  
BRANCH  11  12
HETATM   12  C   UNL     1      -7.136  11.608  68.454  1.00  0.00    -0.083 C  
HETATM   13  H   UNL     1      -5.155  11.647  68.662  1.00  0.00     0.000 HD 
HETATM   14  O   UNL     1      -5.902  12.149  68.963  1.00  0.00    -0.059 OA 
BRANCH  12  15
HETATM   15  C   UNL     1      -7.235  10.086  68.743  1.00  0.00    -0.076 C  
BRANCH  15  16
HETATM   16  N   UNL     1      -8.539   9.675  69.279  1.00  0.00    -0.142 N  
HETATM   17  C   UNL     1      -8.733   9.298  70.588  1.00  0.00    -0.234 C  
HETATM   18  O   UNL     1      -7.848   9.254  71.435  1.00  0.00    -0.335 OA 
HETATM   19  H   UNL     1      -9.341   9.668  68.649  1.00  0.00     0.000 HD 
BRANCH  17  20
HETATM   20  C   UNL     1     -10.104   8.874  70.957  1.00  0.00    -0.324 A  
HETATM   21  C   UNL     1     -11.083   9.876  71.086  1.00  0.00    -0.359 A  
HETATM   22  H   UNL     1     -12.981   5.783  72.334  1.00  0.00     0.000 HD 
HETATM   23  C   UNL     1     -10.405   7.523  71.236  1.00  0.00    -0.203 A  
HETATM   24  C   UNL     1     -11.705   7.236  71.676  1.00  0.00    -0.284 A  
HETATM   25  C   UNL     1     -12.375   9.549  71.476  1.00  0.00    -0.465 A  
HETATM   26  C   UNL     1      -9.409   6.402  71.075  1.00  0.00    -0.171 C  
HETATM   27  O   UNL     1     -12.100   5.977  72.036  1.00  0.00    -0.280 OA 
HETATM   28  C   UNL     1     -12.682   8.226  71.777  1.00  0.00    -0.364 A  
ENDBRANCH  17  20
ENDBRANCH  15  16
BRANCH  15  29
HETATM   29  C   UNL     1      -6.769   9.200  67.549  1.00  0.00    -0.069 C  
BRANCH  29  30
HETATM   30  S   UNL     1      -8.032   8.868  66.265  1.00  0.00    -0.104 SA 
BRANCH  30  31
HETATM   31  C   UNL     1      -8.930   7.466  66.886  1.00  0.00    -0.135 A  
HETATM   32  C   UNL     1     -11.114   6.535  67.412  1.00  0.00    -0.411 A  
HETATM   33  C   UNL     1     -10.314   7.618  67.049  1.00  0.00    -0.400 A  
HETATM   34  C   UNL     1      -9.159   5.124  67.464  1.00  0.00    -0.118 A  
HETATM   35  C   UNL     1     -10.536   5.284  67.613  1.00  0.00    -0.176 A  
HETATM   36  C   UNL     1      -8.358   6.211  67.102  1.00  0.00    -0.105 A  
ENDBRANCH  30  31
ENDBRANCH  29  30
ENDBRANCH  15  29
ENDBRANCH  12  15
ENDBRANCH  11  12
ENDBRANCH   8  11
BRANCH   9  37
HETATM   37  C   UNL     1     -11.304  14.066  69.009  1.00  0.00    -0.281 C  
HETATM   38  C   UNL     1     -12.633  13.179  71.718  1.00  0.00    -0.175 C  
HETATM   39  O   UNL     1     -12.395  13.692  68.584  1.00  0.00    -0.258 OA 
HETATM   40  C   UNL     1     -11.572  15.266  72.566  1.00  0.00    -0.498 C  
HETATM   41  C   UNL     1     -12.178  14.591  71.324  1.00  0.00    -0.355 C  
HETATM   42  N   UNL     1     -11.128  14.546  70.297  1.00  0.00    -0.471 N  
HETATM   43  C   UNL     1     -13.388  15.417  70.862  1.00  0.00    -0.476 C  
HETATM   44  H   UNL     1     -10.203  14.892  70.550  1.00  0.00     0.000 HD 
ENDBRANCH   9  37
TORSDOF 9
ENDMDL
MODEL       19
REMARK 921   NORMALIZED FREE ENERGY PREDICTED BY IDOCK:   -6.87 KCAL/MOL
REMARK 922        TOTAL FREE ENERGY PREDICTED BY IDOCK:  -13.31 KCAL/MOL
REMARK 923 INTER-LIGAND FREE ENERGY PREDICTED BY IDOCK:  -11.38 KCAL/MOL
REMARK 924 INTRA-LIGAND FREE ENERGY PREDICTED BY IDOCK:   -1.93 KCAL/MOL
REMARK 927      BINDING AFFINITY PREDICTED BY RF-SCORE:    0.00 PKD
ROOT
HETATM    1  C   UNL     1      -9.005  10.172  68.033  1.00  0.00    -0.125 C  
HETATM    2  C   UNL     1      -7.973   9.111  68.429  1.00  0.00    -0.103 C  
HETATM    3  C   UNL     1      -7.921   7.966  67.424  1.00  0.00    -0.122 C  
HETATM    4  C   UNL     1      -9.286   7.307  67.279  1.00  0.00    -0.156 C  
HETATM    5  C   UNL     1     -10.396   8.301  66.936  1.00  0.00    -0.391 C  
HETATM    6  C   UNL     1     -10.392   9.570  67.804  1.00  0.00    -0.291 C  
HETATM    7  C   UNL     1     -11.326  10.669  67.268  1.00  0.00    -0.040 C  
HETATM    8  N   UNL     1     -10.947  11.196  65.953  1.00  0.00    -0.165 NA 
HETATM    9  C   UNL     1      -9.504  11.446  65.776  1.00  0.00    -0.233 C  
HETATM   10  C   UNL     1      -8.500  11.036  66.870  1.00  0.00    -0.139 C  
ENDROOT
BRANCH   8  11
HETATM   11  C   UNL     1     -11.782  12.370  65.593  1.00  0.00    -0.414 C  
BRANCH  11  12
HETATM   12  C   UNL     1     -11.140  13.797  65.576  1.00  0.00    -0.298 C  
HETATM   13  H   UNL     1     -11.469  15.549  64.687  1.00  0.00     0.000 HD 
HETATM   14  O   UNL     1     -11.859  14.683  64.697  1.00  0.00    -0.419 OA 
BRANCH  12  15
HETATM   15  C   UNL     1     -10.963  14.432  66.981  1.00  0.00    -0.304 C  
BRANCH  15  16
HETATM   16  N   UNL     1     -10.588  15.851  66.940  1.00  0.00    -0.314 N  
HETATM   17  C   UNL     1      -9.519  16.371  67.633  1.00  0.00    -0.225 C  
HETATM   18  O   UNL     1      -8.781  15.717  68.360  1.00  0.00    -0.168 OA 
HETATM   19  H   UNL     1     -11.149  16.483  66.368  1.00  0.00     0.000 HD 
BRANCH  17  20
HETATM   20  C   UNL     1      -9.300  17.832  67.512  1.00  0.00    -0.245 A  
HETATM   21  C   UNL     1     -10.283  18.683  68.049  1.00  0.00    -0.426 A  
HETATM   22  H   UNL     1      -7.070  21.309  65.881  1.00  0.00     0.000 HD 
HETATM   23  C   UNL     1      -8.182  18.353  66.827  1.00  0.00    -0.267 A  
HETATM   24  C   UNL     1      -8.116  19.746  66.678  1.00  0.00    -0.315 A  
HETATM   25  C   UNL     1     -10.160  20.061  67.927  1.00  0.00    -0.559 A  
HETATM   26  C   UNL     1      -7.076  17.492  66.269  1.00  0.00    -0.340 C  
HETATM   27  O   UNL     1      -7.115  20.366  65.982  1.00  0.00    -0.260 OA 
HETATM   28  C   UNL     1      -9.076  20.590  67.234  1.00  0.00    -0.473 A  
ENDBRANCH  17  20
ENDBRANCH  15  16
BRANCH  15  29
HETATM   29  C   UNL     1     -12.161  14.155  67.939  1.00  0.00    -0.274 C  
BRANCH  29  30
HETATM   30  S   UNL     1     -11.751  13.271  69.489  1.00  0.00    -0.312 SA 
BRANCH  30  31
HETATM   31  C   UNL     1     -12.302  14.367  70.776  1.00  0.00    -0.347 A  
HETATM   32  C   UNL     1     -13.886  14.726  72.585  1.00  0.00    -0.506 A  
HETATM   33  C   UNL     1     -13.454  13.992  71.480  1.00  0.00    -0.404 A  
HETATM   34  C   UNL     1     -12.024  16.231  72.299  1.00  0.00    -0.605 A  
HETATM   35  C   UNL     1     -13.166  15.844  72.998  1.00  0.00    -0.648 A  
HETATM   36  C   UNL     1     -11.593  15.496  71.190  1.00  0.00    -0.446 A  
ENDBRANCH  30  31
ENDBRANCH  29  30
ENDBRANCH  15  29
ENDBRANCH  12  15
ENDBRANCH  11  12
ENDBRANCH   8  11
BRANCH   9  37
HETATM   37  C   UNL     1      -9.042  10.820  64.422  1.00  0.00    -0.196 C  
HETATM   38  C   UNL     1      -6.623  10.252  62.494  1.00  0.00    -0.137 C  
HETATM   39  O   UNL     1      -9.593  11.026  63.343  1.00  0.00    -0.265 OA 
HETATM   40  C   UNL     1      -6.221   8.355  64.056  1.00  0.00    -0.067 C  
HETATM   41  C   UNL     1      -7.305   9.261  63.447  1.00  0.00    -0.096 C  
HETATM   42  N   UNL     1      -7.965   9.958  64.559  1.00  0.00    -0.139 N  
HETATM   43  C   UNL     1      -8.291   8.381  62.664  1.00  0.00    -0.150 C  
HETATM   44  H   UNL     1      -7.604   9.798  65.499  1.00  0.00     0.000 HD 
ENDBRANCH   9  37
TORSDOF 9
ENDMDL
MODEL       20
REMARK 921   NORMALIZED FREE ENERGY PREDICTED BY IDOCK:   -6.86 KCAL/MOL
REMARK 922        TOTAL FREE ENERGY PREDICTED BY IDOCK:  -13.30 KCAL/MOL
REMARK 923 INTER-LIGAND FREE ENERGY PREDICTED BY IDOCK:  -11.69 KCAL/MOL
REMARK 924 INTRA-LIGAND FREE ENERGY PREDICTED BY IDOCK:   -1.61 KCAL/MOL
REMARK 927      BINDING AFFINITY PREDICTED BY RF-SCORE:    0.00 PKD
ROOT
HETATM    1  C   UNL     1      -8.365  18.375  66.410  1.00  0.00    -0.272 C  
HETATM    2  C   UNL     1      -6.969  18.860  66.008  1.00  0.00    -0.294 C  
HETATM    3  C   UNL     1      -5.929  18.542  67.076  1.00  0.00    -0.171 C  
HETATM    4  C   UNL     1      -6.311  19.168  68.411  1.00  0.00    -0.255 C  
HETATM    5  C   UNL     1      -7.717  18.783  68.870  1.00  0.00    -0.298 C  
HETATM    6  C   UNL     1      -8.791  18.912  67.778  1.00  0.00    -0.318 C  
HETATM    7  C   UNL     1     -10.129  18.262  68.170  1.00  0.00    -0.379 C  
HETATM    8  N   UNL     1     -10.063  16.810  68.364  1.00  0.00    -0.270 NA 
HETATM    9  C   UNL     1      -9.276  16.083  67.350  1.00  0.00    -0.208 C  
HETATM   10  C   UNL     1      -8.490  16.853  66.271  1.00  0.00    -0.322 C  
ENDROOT
BRANCH   8  11
HETATM   11  C   UNL     1     -11.420  16.239  68.556  1.00  0.00    -0.272 C  
BRANCH  11  12
HETATM   12  C   UNL     1     -11.679  15.246  69.738  1.00  0.00    -0.323 C  
HETATM   13  H   UNL     1     -12.760  15.198  71.411  1.00  0.00     0.000 HD 
HETATM   14  O   UNL     1     -12.603  15.801  70.693  1.00  0.00    -0.426 OA 
BRANCH  12  15
HETATM   15  C   UNL     1     -12.127  13.829  69.291  1.00  0.00    -0.329 C  
BRANCH  15  16
HETATM   16  N   UNL     1     -11.785  13.518  67.897  1.00  0.00    -0.337 N  
HETATM   17  C   UNL     1     -11.857  12.252  67.365  1.00  0.00    -0.257 C  
HETATM   18  O   UNL     1     -12.198  11.255  67.992  1.00  0.00    -0.621 OA 
HETATM   19  H   UNL     1     -11.478  14.281  67.293  1.00  0.00     0.000 HD 
BRANCH  17  20
HETATM   20  C   UNL     1     -11.440  12.104  65.951  1.00  0.00    -0.418 A  
HETATM   21  C   UNL     1     -12.041  12.951  65.003  1.00  0.00    -0.480 A  
HETATM   22  H   UNL     1      -9.274   9.925  62.743  1.00  0.00     0.000 HD 
HETATM   23  C   UNL     1     -10.521  11.106  65.557  1.00  0.00    -0.317 A  
HETATM   24  C   UNL     1     -10.267  10.979  64.184  1.00  0.00    -0.357 A  
HETATM   25  C   UNL     1     -11.728  12.829  63.655  1.00  0.00    -0.587 A  
HETATM   26  C   UNL     1      -9.814  10.199  66.532  1.00  0.00    -0.268 C  
HETATM   27  O   UNL     1      -9.446  10.012  63.673  1.00  0.00    -0.282 OA 
HETATM   28  C   UNL     1     -10.843  11.836  63.248  1.00  0.00    -0.400 A  
ENDBRANCH  17  20
ENDBRANCH  15  16
BRANCH  15  29
HETATM   29  C   UNL     1     -11.695  12.705  70.281  1.00  0.00    -0.111 C  
BRANCH  29  30
HETATM   30  S   UNL     1     -13.025  12.021  71.337  1.00  0.00    -0.142 SA 
BRANCH  30  31
HETATM   31  C   UNL     1     -12.695  10.275  71.382  1.00  0.00    -0.442 A  
HETATM   32  C   UNL     1     -11.001   8.534  71.272  1.00  0.00    -0.316 A  
HETATM   33  C   UNL     1     -11.376   9.871  71.135  1.00  0.00    -0.443 A  
HETATM   34  C   UNL     1     -13.262   7.977  71.897  1.00  0.00    -0.327 A  
HETATM   35  C   UNL     1     -11.945   7.587  71.660  1.00  0.00    -0.333 A  
HETATM   36  C   UNL     1     -13.637   9.317  71.758  1.00  0.00    -0.465 A  
ENDBRANCH  30  31
ENDBRANCH  29  30
ENDBRANCH  15  29
ENDBRANCH  12  15
ENDBRANCH  11  12
ENDBRANCH   8  11
BRANCH   9  37
HETATM   37  C   UNL     1      -8.295  15.105  68.072  1.00  0.00    -0.147 C  
HETATM   38  C   UNL     1      -7.646  12.115  68.797  1.00  0.00    -0.056 C  
HETATM   39  O   UNL     1      -7.887  15.262  69.220  1.00  0.00    -0.189 OA 
HETATM   40  C   UNL     1      -6.739  12.072  66.479  1.00  0.00     0.323 C  
HETATM   41  C   UNL     1      -6.992  12.969  67.702  1.00  0.00    -0.154 C  
HETATM   42  N   UNL     1      -7.885  14.054  67.269  1.00  0.00    -0.318 N  
HETATM   43  C   UNL     1      -5.643  13.509  68.199  1.00  0.00    -0.113 C  
HETATM   44  H   UNL     1      -8.226  14.030  66.308  1.00  0.00     0.000 HD 
ENDBRANCH   9  37
TORSDOF 9
ENDMDL
MODEL       21
REMARK 921   NORMALIZED FREE ENERGY PREDICTED BY IDOCK:   -6.84 KCAL/MOL
REMARK 922        TOTAL FREE ENERGY PREDICTED BY IDOCK:  -13.28 KCAL/MOL
REMARK 923 INTER-LIGAND FREE ENERGY PREDICTED BY IDOCK:  -11.02 KCAL/MOL
REMARK 924 INTRA-LIGAND FREE ENERGY PREDICTED BY IDOCK:   -2.26 KCAL/MOL
REMARK 927      BINDING AFFINITY PREDICTED BY RF-SCORE:    0.00 PKD
ROOT
HETATM    1  C   UNL     1     -10.358   7.418  72.527  1.00  0.00    -0.272 C  
HETATM    2  C   UNL     1      -9.902   7.164  73.967  1.00  0.00    -0.314 C  
HETATM    3  C   UNL     1      -9.613   5.689  74.219  1.00  0.00    -0.162 C  
HETATM    4  C   UNL     1     -10.839   4.836  73.925  1.00  0.00    -0.360 C  
HETATM    5  C   UNL     1     -11.402   5.062  72.522  1.00  0.00    -0.138 C  
HETATM    6  C   UNL     1     -11.551   6.542  72.137  1.00  0.00    -0.349 C  
HETATM    7  C   UNL     1     -11.848   6.749  70.641  1.00  0.00    -0.387 C  
HETATM    8  N   UNL     1     -10.776   6.306  69.745  1.00  0.00    -0.263 NA 
HETATM    9  C   UNL     1      -9.414   6.670  70.178  1.00  0.00    -0.158 C  
HETATM   10  C   UNL     1      -9.182   7.341  71.545  1.00  0.00    -0.150 C  
ENDROOT
BRANCH   8  11
HETATM   11  C   UNL     1     -11.059   6.706  68.343  1.00  0.00    -0.198 C  
BRANCH  11  12
HETATM   12  C   UNL     1     -10.006   7.555  67.555  1.00  0.00    -0.174 C  
HETATM   13  H   UNL     1      -8.815   7.326  65.975  1.00  0.00     0.000 HD 
HETATM   14  O   UNL     1      -9.454   6.811  66.453  1.00  0.00    -0.168 OA 
BRANCH  12  15
HETATM   15  C   UNL     1     -10.528   8.939  67.085  1.00  0.00    -0.274 C  
BRANCH  15  16
HETATM   16  N   UNL     1     -11.266   9.671  68.122  1.00  0.00    -0.514 N  
HETATM   17  C   UNL     1     -10.665  10.229  69.226  1.00  0.00    -0.234 C  
HETATM   18  O   UNL     1      -9.465  10.168  69.467  1.00  0.00    -0.211 OA 
HETATM   19  H   UNL     1     -12.276   9.769  68.019  1.00  0.00     0.000 HD 
BRANCH  17  20
HETATM   20  C   UNL     1     -11.559  10.900  70.198  1.00  0.00    -0.425 A  
HETATM   21  C   UNL     1     -12.205  10.094  71.153  1.00  0.00    -0.490 A  
HETATM   22  H   UNL     1     -13.758  14.485  71.628  1.00  0.00     0.000 HD 
HETATM   23  C   UNL     1     -11.810  12.289  70.130  1.00  0.00    -0.352 A  
HETATM   24  C   UNL     1     -12.749  12.813  71.028  1.00  0.00    -0.243 A  
HETATM   25  C   UNL     1     -13.092  10.657  72.061  1.00  0.00    -0.501 A  
HETATM   26  C   UNL     1     -11.116  13.208  69.156  1.00  0.00    -0.248 C  
HETATM   27  O   UNL     1     -13.121  14.130  71.019  1.00  0.00    -0.338 OA 
HETATM   28  C   UNL     1     -13.367  12.018  71.992  1.00  0.00    -0.447 A  
ENDBRANCH  17  20
ENDBRANCH  15  16
BRANCH  15  29
HETATM   29  C   UNL     1      -9.435   9.810  66.398  1.00  0.00    -0.184 C  
BRANCH  29  30
HETATM   30  S   UNL     1      -9.732  10.217  64.637  1.00  0.00    -0.325 SA 
BRANCH  30  31
HETATM   31  C   UNL     1     -10.787  11.647  64.691  1.00  0.00    -0.314 A  
HETATM   32  C   UNL     1     -12.055  13.273  63.402  1.00  0.00    -0.508 A  
HETATM   33  C   UNL     1     -11.134  12.227  63.463  1.00  0.00    -0.533 A  
HETATM   34  C   UNL     1     -12.293  13.186  65.800  1.00  0.00    -0.496 A  
HETATM   35  C   UNL     1     -12.640  13.749  64.573  1.00  0.00    -0.249 A  
HETATM   36  C   UNL     1     -11.369  12.138  65.860  1.00  0.00    -0.407 A  
ENDBRANCH  30  31
ENDBRANCH  29  30
ENDBRANCH  15  29
ENDBRANCH  12  15
ENDBRANCH  11  12
ENDBRANCH   8  11
BRANCH   9  37
HETATM   37  C   UNL     1      -8.496   5.410  70.086  1.00  0.00    -0.119 C  
HETATM   38  C   UNL     1      -7.329   2.907  71.591  1.00  0.00    -0.040 C  
HETATM   39  O   UNL     1      -7.352   5.422  69.637  1.00  0.00    -0.062 OA 
HETATM   40  C   UNL     1      -9.547   1.922  71.033  1.00  0.00    -0.197 C  
HETATM   41  C   UNL     1      -8.478   2.928  70.573  1.00  0.00    -0.056 C  
HETATM   42  N   UNL     1      -9.118   4.249  70.518  1.00  0.00    -0.097 N  
HETATM   43  C   UNL     1      -7.958   2.491  69.195  1.00  0.00    -0.059 C  
HETATM   44  H   UNL     1     -10.089   4.317  70.820  1.00  0.00     0.000 HD 
ENDBRANCH   9  37
TORSDOF 9
ENDMDL
MODEL       22
REMARK 921   NORMALIZED FREE ENERGY PREDICTED BY IDOCK:   -6.84 KCAL/MOL
REMARK 922        TOTAL FREE ENERGY PREDICTED BY IDOCK:  -13.27 KCAL/MOL
REMARK 923 INTER-LIGAND FREE ENERGY PREDICTED BY IDOCK:  -10.89 KCAL/MOL
REMARK 924 INTRA-LIGAND FREE ENERGY PREDICTED BY IDOCK:   -2.39 KCAL/MOL
REMARK 927      BINDING AFFINITY PREDICTED BY RF-SCORE:    0.00 PKD
ROOT
HETATM    1  C   UNL     1     -11.509   7.982  70.726  1.00  0.00    -0.273 C  
HETATM    2  C   UNL     1     -12.071   7.259  71.954  1.00  0.00    -0.349 C  
HETATM    3  C   UNL     1     -11.068   6.274  72.542  1.00  0.00    -0.307 C  
HETATM    4  C   UNL     1     -10.647   5.242  71.504  1.00  0.00    -0.254 C  
HETATM    5  C   UNL     1     -10.120   5.872  70.215  1.00  0.00    -0.260 C  
HETATM    6  C   UNL     1     -11.002   7.004  69.664  1.00  0.00    -0.268 C  
HETATM    7  C   UNL     1     -10.322   7.804  68.539  1.00  0.00    -0.197 C  
HETATM    8  N   UNL     1      -9.118   8.529  68.956  1.00  0.00    -0.146 NA 
HETATM    9  C   UNL     1      -9.229   9.224  70.252  1.00  0.00    -0.237 C  
HETATM   10  C   UNL     1     -10.486   9.053  71.125  1.00  0.00    -0.363 C  
ENDROOT
BRANCH   8  11
HETATM   11  C   UNL     1      -8.632   9.416  67.868  1.00  0.00    -0.120 C  
BRANCH  11  12
HETATM   12  C   UNL     1      -8.205  10.884  68.202  1.00  0.00    -0.121 C  
HETATM   13  H   UNL     1      -6.663  12.089  67.833  1.00  0.00     0.000 HD 
HETATM   14  O   UNL     1      -6.922  11.199  67.629  1.00  0.00    -0.078 OA 
BRANCH  12  15
HETATM   15  C   UNL     1      -9.261  11.957  67.821  1.00  0.00    -0.184 C  
BRANCH  15  16
HETATM   16  N   UNL     1     -10.114  12.364  68.944  1.00  0.00    -0.428 N  
HETATM   17  C   UNL     1     -11.486  12.254  68.929  1.00  0.00    -0.304 C  
HETATM   18  O   UNL     1     -12.137  11.821  67.986  1.00  0.00    -0.572 OA 
HETATM   19  H   UNL     1      -9.668  12.748  69.777  1.00  0.00     0.000 HD 
BRANCH  17  20
HETATM   20  C   UNL     1     -12.201  12.747  70.130  1.00  0.00    -0.320 A  
HETATM   21  C   UNL     1     -12.642  11.791  71.064  1.00  0.00    -0.409 A  
HETATM   22  H   UNL     1     -14.179  16.002  72.415  1.00  0.00     0.000 HD 
HETATM   23  C   UNL     1     -12.491  14.118  70.301  1.00  0.00    -0.416 A  
HETATM   24  C   UNL     1     -13.260  14.474  71.418  1.00  0.00    -0.355 A  
HETATM   25  C   UNL     1     -13.359  12.185  72.185  1.00  0.00    -0.438 A  
HETATM   26  C   UNL     1     -12.008  15.191  69.357  1.00  0.00    -0.337 C  
HETATM   27  O   UNL     1     -13.657  15.761  71.659  1.00  0.00    -0.453 OA 
HETATM   28  C   UNL     1     -13.673  13.530  72.357  1.00  0.00    -0.704 A  
ENDBRANCH  17  20
ENDBRANCH  15  16
BRANCH  15  29
HETATM   29  C   UNL     1      -8.657  13.171  67.053  1.00  0.00    -0.162 C  
BRANCH  29  30
HETATM   30  S   UNL     1      -9.864  14.256  66.207  1.00  0.00    -0.312 SA 
BRANCH  30  31
HETATM   31  C   UNL     1      -9.483  15.886  66.805  1.00  0.00    -0.235 A  
HETATM   32  C   UNL     1      -9.805  18.277  66.503  1.00  0.00    -0.363 A  
HETATM   33  C   UNL     1      -9.950  16.967  66.046  1.00  0.00    -0.288 A  
HETATM   34  C   UNL     1      -8.712  17.450  68.487  1.00  0.00    -0.277 A  
HETATM   35  C   UNL     1      -9.190  18.517  67.730  1.00  0.00    -0.295 A  
HETATM   36  C   UNL     1      -8.857  16.137  68.027  1.00  0.00    -0.181 A  
ENDBRANCH  30  31
ENDBRANCH  29  30
ENDBRANCH  15  29
ENDBRANCH  12  15
ENDBRANCH  11  12
ENDBRANCH   8  11
BRANCH   9  37
HETATM   37  C   UNL     1      -7.975   8.885  71.119  1.00  0.00    -0.144 C  
HETATM   38  C   UNL     1      -6.893   8.164  73.983  1.00  0.00    -0.158 C  
HETATM   39  O   UNL     1      -6.934   9.538  71.110  1.00  0.00    -0.270 OA 
HETATM   40  C   UNL     1      -7.674   5.882  73.367  1.00  0.00    -0.101 C  
HETATM   41  C   UNL     1      -7.124   7.205  72.807  1.00  0.00    -0.069 C  
HETATM   42  N   UNL     1      -8.130   7.735  71.876  1.00  0.00    -0.099 N  
HETATM   43  C   UNL     1      -5.791   6.918  72.100  1.00  0.00    -0.038 C  
HETATM   44  H   UNL     1      -9.005   7.220  71.780  1.00  0.00     0.000 HD 
ENDBRANCH   9  37
TORSDOF 9
ENDMDL
MODEL       23
REMARK 921   NORMALIZED FREE ENERGY PREDICTED BY IDOCK:   -6.84 KCAL/MOL
REMARK 922        TOTAL FREE ENERGY PREDICTED BY IDOCK:  -13.27 KCAL/MOL
REMARK 923 INTER-LIGAND FREE ENERGY PREDICTED BY IDOCK:  -10.95 KCAL/MOL
REMARK 924 INTRA-LIGAND FREE ENERGY PREDICTED BY IDOCK:   -2.32 KCAL/MOL
REMARK 927      BINDING AFFINITY PREDICTED BY RF-SCORE:    0.00 PKD
ROOT
HETATM    1  C   UNL     1     -10.428  18.232  66.241  1.00  0.00    -0.397 C  
HETATM    2  C   UNL     1     -10.511  19.759  66.333  1.00  0.00    -0.618 C  
HETATM    3  C   UNL     1      -9.657  20.306  67.470  1.00  0.00    -0.562 C  
HETATM    4  C   UNL     1     -10.074  19.700  68.804  1.00  0.00    -0.532 C  
HETATM    5  C   UNL     1     -10.075  18.172  68.792  1.00  0.00    -0.392 C  
HETATM    6  C   UNL     1     -10.771  17.554  67.569  1.00  0.00    -0.280 C  
HETATM    7  C   UNL     1     -10.519  16.042  67.433  1.00  0.00    -0.308 C  
HETATM    8  N   UNL     1      -9.116  15.681  67.202  1.00  0.00    -0.203 NA 
HETATM    9  C   UNL     1      -8.407  16.534  66.230  1.00  0.00    -0.329 C  
HETATM   10  C   UNL     1      -9.093  17.779  65.636  1.00  0.00     0.568 C  
ENDROOT
BRANCH   8  11
HETATM   11  C   UNL     1      -8.986  14.233  66.899  1.00  0.00    -0.236 C  
BRANCH  11  12
HETATM   12  C   UNL     1     -10.152  13.491  66.165  1.00  0.00    -0.304 C  
HETATM   13  H   UNL     1     -10.793  13.246  64.294  1.00  0.00     0.000 HD 
HETATM   14  O   UNL     1     -10.085  13.696  64.740  1.00  0.00    -0.349 OA 
BRANCH  12  15
HETATM   15  C   UNL     1     -10.258  11.980  66.503  1.00  0.00    -0.206 C  
BRANCH  15  16
HETATM   16  N   UNL     1     -11.041  11.705  67.714  1.00  0.00    -0.231 N  
HETATM   17  C   UNL     1     -10.480  11.287  68.899  1.00  0.00    -0.206 C  
HETATM   18  O   UNL     1      -9.283  11.090  69.067  1.00  0.00    -0.151 OA 
HETATM   19  H   UNL     1     -12.053  11.830  67.675  1.00  0.00     0.000 HD 
BRANCH  17  20
HETATM   20  C   UNL     1     -11.417  11.016  70.015  1.00  0.00    -0.398 A  
HETATM   21  C   UNL     1     -11.642   9.673  70.365  1.00  0.00    -0.299 A  
HETATM   22  H   UNL     1     -14.466  12.369  72.948  1.00  0.00     0.000 HD 
HETATM   23  C   UNL     1     -12.111  12.063  70.662  1.00  0.00    -0.369 A  
HETATM   24  C   UNL     1     -13.051  11.698  71.636  1.00  0.00    -0.351 A  
HETATM   25  C   UNL     1     -12.545   9.351  71.370  1.00  0.00    -0.430 A  
HETATM   26  C   UNL     1     -11.880  13.522  70.359  1.00  0.00    -0.293 C  
HETATM   27  O   UNL     1     -13.829  12.615  72.288  1.00  0.00    -0.446 OA 
HETATM   28  C   UNL     1     -13.254  10.368  72.001  1.00  0.00    -0.497 A  
ENDBRANCH  17  20
ENDBRANCH  15  16
BRANCH  15  29
HETATM   29  C   UNL     1     -10.697  11.105  65.291  1.00  0.00    -0.203 C  
BRANCH  29  30
HETATM   30  S   UNL     1      -9.507   9.816  64.769  1.00  0.00    -0.186 SA 
BRANCH  30  31
HETATM   31  C   UNL     1      -9.186   8.889  66.251  1.00  0.00    -0.207 A  
HETATM   32  C   UNL     1     -10.095   7.388  67.934  1.00  0.00    -0.220 A  
HETATM   33  C   UNL     1     -10.277   8.237  66.842  1.00  0.00    -0.388 A  
HETATM   34  C   UNL     1      -7.727   7.834  67.872  1.00  0.00    -0.122 A  
HETATM   35  C   UNL     1      -8.817   7.182  68.445  1.00  0.00    -0.127 A  
HETATM   36  C   UNL     1      -7.910   8.686  66.778  1.00  0.00    -0.094 A  
ENDBRANCH  30  31
ENDBRANCH  29  30
ENDBRANCH  15  29
ENDBRANCH  12  15
ENDBRANCH  11  12
ENDBRANCH   8  11
BRANCH   9  37
HETATM   37  C   UNL     1      -7.037  16.968  66.838  1.00  0.00    -0.216 C  
HETATM   38  C   UNL     1      -5.129  19.368  67.539  1.00  0.00    -0.165 C  
HETATM   39  O   UNL     1      -5.958  16.461  66.539  1.00  0.00    -0.266 OA 
HETATM   40  C   UNL     1      -6.614  19.567  69.527  1.00  0.00    -0.365 C  
HETATM   41  C   UNL     1      -6.026  18.581  68.504  1.00  0.00    -0.198 C  
HETATM   42  N   UNL     1      -7.155  17.961  67.797  1.00  0.00    -0.201 N  
HETATM   43  C   UNL     1      -5.188  17.538  69.259  1.00  0.00    -0.173 C  
HETATM   44  H   UNL     1      -8.094  18.286  68.028  1.00  0.00     0.000 HD 
ENDBRANCH   9  37
TORSDOF 9
ENDMDL
MODEL       24
REMARK 921   NORMALIZED FREE ENERGY PREDICTED BY IDOCK:   -6.83 KCAL/MOL
REMARK 922        TOTAL FREE ENERGY PREDICTED BY IDOCK:  -13.26 KCAL/MOL
REMARK 923 INTER-LIGAND FREE ENERGY PREDICTED BY IDOCK:  -11.01 KCAL/MOL
REMARK 924 INTRA-LIGAND FREE ENERGY PREDICTED BY IDOCK:   -2.24 KCAL/MOL
REMARK 927      BINDING AFFINITY PREDICTED BY RF-SCORE:    0.00 PKD
ROOT
HETATM    1  C   UNL     1     -10.031   9.549  71.309  1.00  0.00    -0.152 C  
HETATM    2  C   UNL     1      -9.561   8.424  72.237  1.00  0.00    -0.374 C  
HETATM    3  C   UNL     1     -10.163   7.079  71.849  1.00  0.00    -0.205 C  
HETATM    4  C   UNL     1     -11.685   7.139  71.867  1.00  0.00    -0.328 C  
HETATM    5  C   UNL     1     -12.248   8.271  71.008  1.00  0.00    -0.189 C  
HETATM    6  C   UNL     1     -11.557   9.626  71.224  1.00  0.00    -0.466 C  
HETATM    7  C   UNL     1     -11.941  10.674  70.165  1.00  0.00    -0.334 C  
HETATM    8  N   UNL     1     -11.527  10.334  68.800  1.00  0.00    -0.168 NA 
HETATM    9  C   UNL     1     -10.164   9.782  68.683  1.00  0.00    -0.190 C  
HETATM   10  C   UNL     1      -9.334   9.477  69.944  1.00  0.00    -0.247 C  
ENDROOT
BRANCH   8  11
HETATM   11  C   UNL     1     -11.768  11.470  67.875  1.00  0.00    -0.247 C  
BRANCH  11  12
HETATM   12  C   UNL     1     -11.365  12.918  68.311  1.00  0.00    -0.291 C  
HETATM   13  H   UNL     1      -9.694  13.913  68.747  1.00  0.00     0.000 HD 
HETATM   14  O   UNL     1      -9.939  13.034  68.482  1.00  0.00    -0.227 OA 
BRANCH  12  15
HETATM   15  C   UNL     1     -11.905  14.037  67.381  1.00  0.00    -0.409 C  
BRANCH  15  16
HETATM   16  N   UNL     1     -11.070  15.245  67.372  1.00  0.00    -0.326 N  
HETATM   17  C   UNL     1     -11.074  16.175  68.386  1.00  0.00    -0.359 C  
HETATM   18  O   UNL     1     -11.775  16.104  69.388  1.00  0.00    -0.304 OA 
HETATM   19  H   UNL     1     -10.456  15.402  66.572  1.00  0.00     0.000 HD 
BRANCH  17  20
HETATM   20  C   UNL     1     -10.200  17.357  68.202  1.00  0.00    -0.350 A  
HETATM   21  C   UNL     1     -10.759  18.490  67.583  1.00  0.00    -0.405 A  
HETATM   22  H   UNL     1      -6.204  19.294  68.311  1.00  0.00     0.000 HD 
HETATM   23  C   UNL     1      -8.837  17.329  68.573  1.00  0.00    -0.269 A  
HETATM   24  C   UNL     1      -8.068  18.460  68.266  1.00  0.00    -0.298 A  
HETATM   25  C   UNL     1      -9.979  19.613  67.340  1.00  0.00    -0.510 A  
HETATM   26  C   UNL     1      -8.195  16.160  69.277  1.00  0.00    -0.183 C  
HETATM   27  O   UNL     1      -6.726  18.528  68.519  1.00  0.00    -0.237 OA 
HETATM   28  C   UNL     1      -8.629  19.592  67.677  1.00  0.00    -0.365 A  
ENDBRANCH  17  20
ENDBRANCH  15  16
BRANCH  15  29
HETATM   29  C   UNL     1     -12.251  13.534  65.948  1.00  0.00    -0.460 C  
BRANCH  29  30
HETATM   30  S   UNL     1     -10.978  13.841  64.669  1.00  0.00    -0.393 SA 
BRANCH  30  31
HETATM   31  C   UNL     1     -10.178  12.268  64.461  1.00  0.00    -0.296 A  
HETATM   32  C   UNL     1      -9.637  10.461  62.925  1.00  0.00    -0.331 A  
HETATM   33  C   UNL     1     -10.329  11.636  63.219  1.00  0.00    -0.444 A  
HETATM   34  C   UNL     1      -8.632  10.521  65.116  1.00  0.00    -0.187 A  
HETATM   35  C   UNL     1      -8.781   9.907  63.874  1.00  0.00    -0.230 A  
HETATM   36  C   UNL     1      -9.328  11.698  65.410  1.00  0.00    -0.143 A  
ENDBRANCH  30  31
ENDBRANCH  29  30
ENDBRANCH  15  29
ENDBRANCH  12  15
ENDBRANCH  11  12
ENDBRANCH   8  11
BRANCH   9  37
HETATM   37  C   UNL     1     -10.210   8.495  67.800  1.00  0.00    -0.225 C  
HETATM   38  C   UNL     1      -8.555   6.174  66.471  1.00  0.00    -0.126 C  
HETATM   39  O   UNL     1     -10.800   8.418  66.724  1.00  0.00    -0.172 OA 
HETATM   40  C   UNL     1      -8.690   5.187  68.753  1.00  0.00    -0.092 C  
HETATM   41  C   UNL     1      -9.411   6.096  67.743  1.00  0.00    -0.109 C  
HETATM   42  N   UNL     1      -9.554   7.417  68.371  1.00  0.00    -0.147 N  
HETATM   43  C   UNL     1     -10.776   5.473  67.415  1.00  0.00    -0.224 C  
HETATM   44  H   UNL     1      -9.140   7.550  69.293  1.00  0.00     0.000 HD 
ENDBRANCH   9  37
TORSDOF 9
ENDMDL
MODEL       25
REMARK 921   NORMALIZED FREE ENERGY PREDICTED BY IDOCK:   -6.82 KCAL/MOL
REMARK 922        TOTAL FREE ENERGY PREDICTED BY IDOCK:  -13.24 KCAL/MOL
REMARK 923 INTER-LIGAND FREE ENERGY PREDICTED BY IDOCK:  -10.56 KCAL/MOL
REMARK 924 INTRA-LIGAND FREE ENERGY PREDICTED BY IDOCK:   -2.68 KCAL/MOL
REMARK 927      BINDING AFFINITY PREDICTED BY RF-SCORE:    0.00 PKD
ROOT
HETATM    1  C   UNL     1     -10.096   7.486  73.422  1.00  0.00    -0.393 C  
HETATM    2  C   UNL     1     -10.258   6.339  74.426  1.00  0.00    -0.339 C  
HETATM    3  C   UNL     1     -10.667   5.041  73.741  1.00  0.00    -0.358 C  
HETATM    4  C   UNL     1     -11.967   5.218  72.969  1.00  0.00    -0.018 C  
HETATM    5  C   UNL     1     -11.919   6.380  71.977  1.00  0.00    -0.375 C  
HETATM    6  C   UNL     1     -11.345   7.680  72.561  1.00  0.00    -0.409 C  
HETATM    7  C   UNL     1     -11.046   8.742  71.488  1.00  0.00    -0.307 C  
HETATM    8  N   UNL     1     -10.009   8.355  70.526  1.00  0.00    -0.183 NA 
HETATM    9  C   UNL     1      -8.828   7.698  71.117  1.00  0.00    -0.137 C  
HETATM   10  C   UNL     1      -8.798   7.345  72.616  1.00  0.00    -0.163 C  
ENDROOT
BRANCH   8  11
HETATM   11  C   UNL     1      -9.652   9.496  69.645  1.00  0.00    -0.202 C  
BRANCH  11  12
HETATM   12  C   UNL     1      -9.492   9.261  68.107  1.00  0.00    -0.138 C  
HETATM   13  H   UNL     1     -10.203   8.014  66.725  1.00  0.00     0.000 HD 
HETATM   14  O   UNL     1     -10.301   8.157  67.659  1.00  0.00    -0.219 OA 
BRANCH  12  15
HETATM   15  C   UNL     1      -9.747  10.523  67.240  1.00  0.00    -0.169 C  
BRANCH  15  16
HETATM   16  N   UNL     1     -10.131  11.704  68.024  1.00  0.00    -0.184 N  
HETATM   17  C   UNL     1     -11.364  12.307  67.928  1.00  0.00    -0.298 C  
HETATM   18  O   UNL     1     -12.260  11.936  67.179  1.00  0.00    -0.501 OA 
HETATM   19  H   UNL     1      -9.449  12.097  68.672  1.00  0.00     0.000 HD 
BRANCH  17  20
HETATM   20  C   UNL     1     -11.577  13.514  68.761  1.00  0.00    -0.362 A  
HETATM   21  C   UNL     1     -11.230  14.758  68.205  1.00  0.00    -0.307 A  
HETATM   22  H   UNL     1     -12.548  15.436  72.645  1.00  0.00     0.000 HD 
HETATM   23  C   UNL     1     -12.048  13.416  70.089  1.00  0.00    -0.415 A  
HETATM   24  C   UNL     1     -12.119  14.605  70.830  1.00  0.00    -0.320 A  
HETATM   25  C   UNL     1     -11.361  15.921  68.952  1.00  0.00    -0.377 A  
HETATM   26  C   UNL     1     -12.475  12.116  70.723  1.00  0.00    -0.362 C  
HETATM   27  O   UNL     1     -12.500  14.631  72.143  1.00  0.00    -0.324 OA 
HETATM   28  C   UNL     1     -11.801  15.840  70.269  1.00  0.00    -0.369 A  
ENDBRANCH  17  20
ENDBRANCH  15  16
BRANCH  15  29
HETATM   29  C   UNL     1      -8.600  10.820  66.229  1.00  0.00    -0.162 C  
BRANCH  29  30
HETATM   30  S   UNL     1      -9.059  10.735  64.458  1.00  0.00    -0.177 SA 
BRANCH  30  31
HETATM   31  C   UNL     1     -10.232  12.052  64.246  1.00  0.00    -0.318 A  
HETATM   32  C   UNL     1     -12.490  12.661  63.580  1.00  0.00    -0.523 A  
HETATM   33  C   UNL     1     -11.466  11.719  63.671  1.00  0.00    -0.524 A  
HETATM   34  C   UNL     1     -11.063  14.296  64.632  1.00  0.00    -0.371 A  
HETATM   35  C   UNL     1     -12.290  13.950  64.068  1.00  0.00    -0.355 A  
HETATM   36  C   UNL     1     -10.037  13.350  64.721  1.00  0.00    -0.262 A  
ENDBRANCH  30  31
ENDBRANCH  29  30
ENDBRANCH  15  29
ENDBRANCH  12  15
ENDBRANCH  11  12
ENDBRANCH   8  11
BRANCH   9  37
HETATM   37  C   UNL     1      -8.501   6.409  70.299  1.00  0.00    -0.135 C  
HETATM   38  C   UNL     1      -8.699   4.954  67.518  1.00  0.00    -0.103 C  
HETATM   39  O   UNL     1      -8.742   5.267  70.687  1.00  0.00    -0.121 OA 
HETATM   40  C   UNL     1      -6.721   6.369  66.984  1.00  0.00    -0.060 C  
HETATM   41  C   UNL     1      -7.469   5.649  68.119  1.00  0.00    -0.074 C  
HETATM   42  N   UNL     1      -7.860   6.671  69.100  1.00  0.00    -0.109 N  
HETATM   43  C   UNL     1      -6.529   4.602  68.735  1.00  0.00    -0.037 C  
HETATM   44  H   UNL     1      -7.645   7.643  68.881  1.00  0.00     0.000 HD 
ENDBRANCH   9  37
TORSDOF 9
ENDMDL
MODEL       26
REMARK 921   NORMALIZED FREE ENERGY PREDICTED BY IDOCK:   -6.81 KCAL/MOL
REMARK 922        TOTAL FREE ENERGY PREDICTED BY IDOCK:  -13.23 KCAL/MOL
REMARK 923 INTER-LIGAND FREE ENERGY PREDICTED BY IDOCK:  -10.81 KCAL/MOL
REMARK 924 INTRA-LIGAND FREE ENERGY PREDICTED BY IDOCK:   -2.43 KCAL/MOL
REMARK 927      BINDING AFFINITY PREDICTED BY RF-SCORE:    0.00 PKD
ROOT
HETATM    1  C   UNL     1      -8.888   7.216  68.982  1.00  0.00    -0.131 C  
HETATM    2  C   UNL     1      -9.179   5.730  68.750  1.00  0.00    -0.128 C  
HETATM    3  C   UNL     1      -9.525   5.440  67.295  1.00  0.00    -0.128 C  
HETATM    4  C   UNL     1     -10.727   6.260  66.847  1.00  0.00    -0.411 C  
HETATM    5  C   UNL     1     -10.552   7.759  67.090  1.00  0.00    -0.401 C  
HETATM    6  C   UNL     1     -10.030   8.110  68.493  1.00  0.00    -0.204 C  
HETATM    7  C   UNL     1      -9.597   9.581  68.624  1.00  0.00    -0.146 C  
HETATM    8  N   UNL     1      -8.463   9.956  67.772  1.00  0.00    -0.118 NA 
HETATM    9  C   UNL     1      -7.366   8.972  67.730  1.00  0.00    -0.084 C  
HETATM   10  C   UNL     1      -7.510   7.610  68.434  1.00  0.00    -0.104 C  
ENDROOT
BRANCH   8  11
HETATM   11  C   UNL     1      -7.994  11.328  68.091  1.00  0.00    -0.131 C  
BRANCH  11  12
HETATM   12  C   UNL     1      -8.288  12.496  67.091  1.00  0.00    -0.179 C  
HETATM   13  H   UNL     1      -9.029  12.709  65.254  1.00  0.00     0.000 HD 
HETATM   14  O   UNL     1      -8.851  12.001  65.861  1.00  0.00    -0.052 OA 
BRANCH  12  15
HETATM   15  C   UNL     1      -9.161  13.635  67.682  1.00  0.00    -0.207 C  
BRANCH  15  16
HETATM   16  N   UNL     1      -9.996  13.207  68.811  1.00  0.00    -0.426 N  
HETATM   17  C   UNL     1     -11.350  12.982  68.707  1.00  0.00    -0.289 C  
HETATM   18  O   UNL     1     -11.999  13.124  67.678  1.00  0.00    -0.357 OA 
HETATM   19  H   UNL     1      -9.550  13.070  69.718  1.00  0.00     0.000 HD 
BRANCH  17  20
HETATM   20  C   UNL     1     -12.052  12.591  69.953  1.00  0.00    -0.322 A  
HETATM   21  C   UNL     1     -12.196  11.217  70.215  1.00  0.00    -0.428 A  
HETATM   22  H   UNL     1     -14.489  13.607  73.525  1.00  0.00     0.000 HD 
HETATM   23  C   UNL     1     -12.616  13.560  70.813  1.00  0.00    -0.382 A  
HETATM   24  C   UNL     1     -13.348  13.088  71.911  1.00  0.00    -0.446 A  
HETATM   25  C   UNL     1     -12.886  10.787  71.341  1.00  0.00    -0.557 A  
HETATM   26  C   UNL     1     -12.457  15.045  70.605  1.00  0.00    -0.422 C  
HETATM   27  O   UNL     1     -13.992  13.926  72.780  1.00  0.00    -0.697 OA 
HETATM   28  C   UNL     1     -13.467  11.727  72.186  1.00  0.00    -0.273 A  
ENDBRANCH  17  20
ENDBRANCH  15  16
BRANCH  15  29
HETATM   29  C   UNL     1      -8.357  14.934  67.987  1.00  0.00    -0.147 C  
BRANCH  29  30
HETATM   30  S   UNL     1      -9.129  16.084  69.184  1.00  0.00    -0.231 SA 
BRANCH  30  31
HETATM   31  C   UNL     1      -9.607  17.485  68.200  1.00  0.00    -0.294 A  
HETATM   32  C   UNL     1     -10.416  18.259  66.041  1.00  0.00    -0.380 A  
HETATM   33  C   UNL     1      -9.914  17.242  66.854  1.00  0.00    -0.294 A  
HETATM   34  C   UNL     1     -10.306  19.786  67.904  1.00  0.00    -0.569 A  
HETATM   35  C   UNL     1     -10.618  19.531  66.570  1.00  0.00    -0.579 A  
HETATM   36  C   UNL     1      -9.801  18.767  68.717  1.00  0.00    -0.434 A  
ENDBRANCH  30  31
ENDBRANCH  29  30
ENDBRANCH  15  29
ENDBRANCH  12  15
ENDBRANCH  11  12
ENDBRANCH   8  11
BRANCH   9  37
HETATM   37  C   UNL     1      -6.966   8.719  66.242  1.00  0.00    -0.081 C  
HETATM   38  C   UNL     1      -7.866   7.595  63.447  1.00  0.00    -0.125 C  
HETATM   39  O   UNL     1      -5.915   8.186  65.892  1.00  0.00    -0.037 OA 
HETATM   40  C   UNL     1      -8.993   9.807  63.264  1.00  0.00    -0.274 C  
HETATM   41  C   UNL     1      -7.793   9.066  63.877  1.00  0.00    -0.133 C  
HETATM   42  N   UNL     1      -7.898   9.200  65.337  1.00  0.00    -0.098 N  
HETATM   43  C   UNL     1      -6.502   9.701  63.340  1.00  0.00    -0.108 C  
HETATM   44  H   UNL     1      -8.715   9.681  65.711  1.00  0.00     0.000 HD 
ENDBRANCH   9  37
TORSDOF 9
ENDMDL
MODEL       27
REMARK 921   NORMALIZED FREE ENERGY PREDICTED BY IDOCK:   -6.80 KCAL/MOL
REMARK 922        TOTAL FREE ENERGY PREDICTED BY IDOCK:  -13.21 KCAL/MOL
REMARK 923 INTER-LIGAND FREE ENERGY PREDICTED BY IDOCK:  -10.47 KCAL/MOL
REMARK 924 INTRA-LIGAND FREE ENERGY PREDICTED BY IDOCK:   -2.74 KCAL/MOL
REMARK 927      BINDING AFFINITY PREDICTED BY RF-SCORE:    0.00 PKD
ROOT
HETATM    1  C   UNL     1      -9.707   7.650  73.399  1.00  0.00    -0.363 C  
HETATM    2  C   UNL     1     -10.015   6.441  74.288  1.00  0.00    -0.346 C  
HETATM    3  C   UNL     1     -10.583   5.277  73.486  1.00  0.00    -0.313 C  
HETATM    4  C   UNL     1     -11.849   5.691  72.748  1.00  0.00    -0.164 C  
HETATM    5  C   UNL     1     -11.654   6.928  71.873  1.00  0.00    -0.321 C  
HETATM    6  C   UNL     1     -10.921   8.083  72.574  1.00  0.00    -0.430 C  
HETATM    7  C   UNL     1     -10.489   9.198  71.606  1.00  0.00    -0.332 C  
HETATM    8  N   UNL     1      -9.507   8.778  70.599  1.00  0.00    -0.182 NA 
HETATM    9  C   UNL     1      -8.420   7.924  71.111  1.00  0.00    -0.120 C  
HETATM   10  C   UNL     1      -8.437   7.426  72.569  1.00  0.00    -0.131 C  
ENDROOT
BRANCH   8  11
HETATM   11  C   UNL     1      -9.008   9.945  69.829  1.00  0.00    -0.221 C  
BRANCH  11  12
HETATM   12  C   UNL     1      -9.285  10.030  68.291  1.00  0.00    -0.129 C  
HETATM   13  H   UNL     1     -10.576   9.261  66.983  1.00  0.00     0.000 HD 
HETATM   14  O   UNL     1     -10.408   9.210  67.917  1.00  0.00    -0.207 OA 
BRANCH  12  15
HETATM   15  C   UNL     1      -9.451  11.476  67.753  1.00  0.00    -0.168 C  
BRANCH  15  16
HETATM   16  N   UNL     1     -10.152  12.371  68.683  1.00  0.00    -0.369 N  
HETATM   17  C   UNL     1     -11.506  12.605  68.629  1.00  0.00    -0.308 C  
HETATM   18  O   UNL     1     -12.263  12.110  67.802  1.00  0.00    -0.451 OA 
HETATM   19  H   UNL     1      -9.607  12.842  69.405  1.00  0.00     0.000 HD 
BRANCH  17  20
HETATM   20  C   UNL     1     -12.051  13.566  69.617  1.00  0.00    -0.365 A  
HETATM   21  C   UNL     1     -11.961  14.936  69.312  1.00  0.00    -0.326 A  
HETATM   22  H   UNL     1     -13.716  14.493  73.630  1.00  0.00     0.000 HD 
HETATM   23  C   UNL     1     -12.581  13.129  70.851  1.00  0.00    -0.377 A  
HETATM   24  C   UNL     1     -12.977  14.119  71.762  1.00  0.00    -0.348 A  
HETATM   25  C   UNL     1     -12.409  15.888  70.218  1.00  0.00    -0.224 A  
HETATM   26  C   UNL     1     -12.741  11.674  71.216  1.00  0.00    -0.444 C  
HETATM   27  O   UNL     1     -13.447  13.823  73.012  1.00  0.00    -0.613 OA 
HETATM   28  C   UNL     1     -12.913  15.475  71.447  1.00  0.00    -0.553 A  
ENDBRANCH  17  20
ENDBRANCH  15  16
BRANCH  15  29
HETATM   29  C   UNL     1      -8.124  12.090  67.214  1.00  0.00    -0.174 C  
BRANCH  29  30
HETATM   30  S   UNL     1      -7.207  13.156  68.386  1.00  0.00    -0.115 SA 
BRANCH  30  31
HETATM   31  C   UNL     1      -8.004  14.739  68.255  1.00  0.00    -0.130 A  
HETATM   32  C   UNL     1      -9.248  16.264  66.827  1.00  0.00    -0.253 A  
HETATM   33  C   UNL     1      -8.501  15.098  66.994  1.00  0.00    -0.259 A  
HETATM   34  C   UNL     1      -9.008  16.742  69.178  1.00  0.00    -0.115 A  
HETATM   35  C   UNL     1      -9.507  17.084  67.922  1.00  0.00    -0.245 A  
HETATM   36  C   UNL     1      -8.258  15.573  69.345  1.00  0.00    -0.247 A  
ENDBRANCH  30  31
ENDBRANCH  29  30
ENDBRANCH  15  29
ENDBRANCH  12  15
ENDBRANCH  11  12
ENDBRANCH   8  11
BRANCH   9  37
HETATM   37  C   UNL     1      -8.257   6.689  70.169  1.00  0.00    -0.133 C  
HETATM   38  C   UNL     1      -9.607   4.109  68.982  1.00  0.00    -0.232 C  
HETATM   39  O   UNL     1      -7.290   5.930  70.189  1.00  0.00    -0.073 OA 
HETATM   40  C   UNL     1     -10.666   5.748  67.435  1.00  0.00    -0.332 C  
HETATM   41  C   UNL     1      -9.415   5.463  68.285  1.00  0.00    -0.119 C  
HETATM   42  N   UNL     1      -9.295   6.553  69.262  1.00  0.00    -0.142 N  
HETATM   43  C   UNL     1      -8.197   5.400  67.352  1.00  0.00    -0.100 C  
HETATM   44  H   UNL     1     -10.029   7.261  69.275  1.00  0.00     0.000 HD 
ENDBRANCH   9  37
TORSDOF 9
ENDMDL
MODEL       28
REMARK 921   NORMALIZED FREE ENERGY PREDICTED BY IDOCK:   -6.79 KCAL/MOL
REMARK 922        TOTAL FREE ENERGY PREDICTED BY IDOCK:  -13.20 KCAL/MOL
REMARK 923 INTER-LIGAND FREE ENERGY PREDICTED BY IDOCK:  -11.04 KCAL/MOL
REMARK 924 INTRA-LIGAND FREE ENERGY PREDICTED BY IDOCK:   -2.16 KCAL/MOL
REMARK 927      BINDING AFFINITY PREDICTED BY RF-SCORE:    0.00 PKD
ROOT
HETATM    1  C   UNL     1      -9.784  18.268  68.625  1.00  0.00    -0.379 C  
HETATM    2  C   UNL     1     -10.347  19.592  68.097  1.00  0.00    -0.550 C  
HETATM    3  C   UNL     1     -10.136  19.739  66.595  1.00  0.00    -0.578 C  
HETATM    4  C   UNL     1      -8.657  19.647  66.242  1.00  0.00    -0.393 C  
HETATM    5  C   UNL     1      -7.994  18.378  66.776  1.00  0.00    -0.261 C  
HETATM    6  C   UNL     1      -8.314  18.074  68.248  1.00  0.00    -0.295 C  
HETATM    7  C   UNL     1      -7.874  16.665  68.682  1.00  0.00    -0.234 C  
HETATM    8  N   UNL     1      -8.565  15.574  67.987  1.00  0.00    -0.154 NA 
HETATM    9  C   UNL     1     -10.018  15.763  67.824  1.00  0.00    -0.227 C  
HETATM   10  C   UNL     1     -10.686  17.086  68.245  1.00  0.00    -0.372 C  
ENDROOT
BRANCH   8  11
HETATM   11  C   UNL     1      -8.220  14.261  68.589  1.00  0.00    -0.139 C  
BRANCH  11  12
HETATM   12  C   UNL     1      -7.904  13.044  67.656  1.00  0.00    -0.166 C  
HETATM   13  H   UNL     1      -6.380  12.392  66.552  1.00  0.00     0.000 HD 
HETATM   14  O   UNL     1      -6.571  13.130  67.118  1.00  0.00    -0.192 OA 
BRANCH  12  15
HETATM   15  C   UNL     1      -8.150  11.659  68.312  1.00  0.00    -0.150 C  
BRANCH  15  16
HETATM   16  N   UNL     1      -9.254  11.657  69.281  1.00  0.00    -0.243 N  
HETATM   17  C   UNL     1     -10.580  11.658  68.915  1.00  0.00    -0.193 C  
HETATM   18  O   UNL     1     -10.980  11.672  67.757  1.00  0.00    -0.207 OA 
HETATM   19  H   UNL     1      -9.025  11.656  70.275  1.00  0.00     0.000 HD 
BRANCH  17  20
HETATM   20  C   UNL     1     -11.570  11.695  70.018  1.00  0.00    -0.338 A  
HETATM   21  C   UNL     1     -11.933  10.471  70.608  1.00  0.00    -0.455 A  
HETATM   22  H   UNL     1     -14.556  13.861  72.492  1.00  0.00     0.000 HD 
HETATM   23  C   UNL     1     -12.178  12.905  70.419  1.00  0.00    -0.381 A  
HETATM   24  C   UNL     1     -13.176  12.823  71.400  1.00  0.00    -0.152 A  
HETATM   25  C   UNL     1     -12.890  10.434  71.613  1.00  0.00    -0.579 A  
HETATM   26  C   UNL     1     -11.798  14.250  69.852  1.00  0.00    -0.382 C  
HETATM   27  O   UNL     1     -13.880  13.916  71.827  1.00  0.00    -0.376 OA 
HETATM   28  C   UNL     1     -13.515  11.614  72.004  1.00  0.00    -0.304 A  
ENDBRANCH  17  20
ENDBRANCH  15  16
BRANCH  15  29
HETATM   29  C   UNL     1      -8.254  10.497  67.280  1.00  0.00    -0.119 C  
BRANCH  29  30
HETATM   30  S   UNL     1      -7.456   8.924  67.770  1.00  0.00    -0.093 SA 
BRANCH  30  31
HETATM   31  C   UNL     1      -8.356   8.408  69.213  1.00  0.00    -0.121 A  
HETATM   32  C   UNL     1     -10.288   7.204  70.068  1.00  0.00    -0.219 A  
HETATM   33  C   UNL     1      -9.577   7.752  69.001  1.00  0.00    -0.155 A  
HETATM   34  C   UNL     1      -8.575   7.963  71.585  1.00  0.00    -0.147 A  
HETATM   35  C   UNL     1      -9.782   7.304  71.362  1.00  0.00    -0.170 A  
HETATM   36  C   UNL     1      -7.863   8.514  70.515  1.00  0.00    -0.086 A  
ENDBRANCH  30  31
ENDBRANCH  29  30
ENDBRANCH  15  29
ENDBRANCH  12  15
ENDBRANCH  11  12
ENDBRANCH   8  11
BRANCH   9  37
HETATM   37  C   UNL     1     -10.407  15.465  66.341  1.00  0.00    -0.296 C  
HETATM   38  C   UNL     1     -10.627  13.288  64.082  1.00  0.00    -0.331 C  
HETATM   39  O   UNL     1     -10.029  16.133  65.382  1.00  0.00    -0.482 OA 
HETATM   40  C   UNL     1     -12.753  12.732  65.252  1.00  0.00    -0.332 C  
HETATM   41  C   UNL     1     -11.768  13.868  64.929  1.00  0.00    -0.368 C  
HETATM   42  N   UNL     1     -11.270  14.389  66.209  1.00  0.00    -0.332 N  
HETATM   43  C   UNL     1     -12.514  14.947  64.129  1.00  0.00    -0.093 C  
HETATM   44  H   UNL     1     -11.581  13.925  67.062  1.00  0.00     0.000 HD 
ENDBRANCH   9  37
TORSDOF 9
ENDMDL
MODEL       29
REMARK 921   NORMALIZED FREE ENERGY PREDICTED BY IDOCK:   -6.72 KCAL/MOL
REMARK 922        TOTAL FREE ENERGY PREDICTED BY IDOCK:  -13.08 KCAL/MOL
REMARK 923 INTER-LIGAND FREE ENERGY PREDICTED BY IDOCK:  -10.76 KCAL/MOL
REMARK 924 INTRA-LIGAND FREE ENERGY PREDICTED BY IDOCK:   -2.32 KCAL/MOL
REMARK 927      BINDING AFFINITY PREDICTED BY RF-SCORE:    0.00 PKD
ROOT
HETATM    1  C   UNL     1      -9.635   4.978  66.576  1.00  0.00    -0.168 C  
HETATM    2  C   UNL     1      -9.569   3.475  66.869  1.00  0.00    -0.145 C  
HETATM    3  C   UNL     1      -8.914   3.188  68.215  1.00  0.00    -0.187 C  
HETATM    4  C   UNL     1      -7.508   3.772  68.271  1.00  0.00    -0.061 C  
HETATM    5  C   UNL     1      -7.467   5.263  67.938  1.00  0.00    -0.076 C  
HETATM    6  C   UNL     1      -8.264   5.647  66.681  1.00  0.00    -0.105 C  
HETATM    7  C   UNL     1      -8.441   7.167  66.522  1.00  0.00    -0.125 C  
HETATM    8  N   UNL     1      -9.227   7.799  67.587  1.00  0.00    -0.136 NA 
HETATM    9  C   UNL     1     -10.435   7.057  67.992  1.00  0.00    -0.208 C  
HETATM   10  C   UNL     1     -10.728   5.662  67.407  1.00  0.00    -0.283 C  
ENDROOT
BRANCH   8  11
HETATM   11  C   UNL     1      -9.507   9.221  67.266  1.00  0.00    -0.144 C  
BRANCH  11  12
HETATM   12  C   UNL     1      -8.709  10.350  68.000  1.00  0.00    -0.123 C  
HETATM   13  H   UNL     1      -6.805  10.806  68.369  1.00  0.00     0.000 HD 
HETATM   14  O   UNL     1      -7.289  10.121  67.922  1.00  0.00    -0.086 OA 
BRANCH  12  15
HETATM   15  C   UNL     1      -9.066  11.787  67.536  1.00  0.00    -0.175 C  
BRANCH  15  16
HETATM   16  N   UNL     1      -9.851  12.543  68.520  1.00  0.00    -0.351 N  
HETATM   17  C   UNL     1     -11.225  12.614  68.497  1.00  0.00    -0.279 C  
HETATM   18  O   UNL     1     -11.933  12.071  67.656  1.00  0.00    -0.547 OA 
HETATM   19  H   UNL     1      -9.353  13.040  69.258  1.00  0.00     0.000 HD 
BRANCH  17  20
HETATM   20  C   UNL     1     -11.862  13.451  69.541  1.00  0.00    -0.391 A  
HETATM   21  C   UNL     1     -11.861  14.844  69.348  1.00  0.00    -0.356 A  
HETATM   22  H   UNL     1     -13.692  13.933  73.559  1.00  0.00     0.000 HD 
HETATM   23  C   UNL     1     -12.391  12.880  70.719  1.00  0.00    -0.385 A  
HETATM   24  C   UNL     1     -12.880  13.763  71.692  1.00  0.00    -0.352 A  
HETATM   25  C   UNL     1     -12.400  15.686  70.312  1.00  0.00    -0.402 A  
HETATM   26  C   UNL     1     -12.458  11.393  70.961  1.00  0.00    -0.486 C  
HETATM   27  O   UNL     1     -13.361  13.335  72.899  1.00  0.00    -0.518 OA 
HETATM   28  C   UNL     1     -12.904  15.141  71.488  1.00  0.00    -0.442 A  
ENDBRANCH  17  20
ENDBRANCH  15  16
BRANCH  15  29
HETATM   29  C   UNL     1      -7.838  12.587  67.005  1.00  0.00    -0.062 C  
BRANCH  29  30
HETATM   30  S   UNL     1      -7.407  14.098  67.944  1.00  0.00    -0.176 SA 
BRANCH  30  31
HETATM   31  C   UNL     1      -8.579  15.311  67.383  1.00  0.00    -0.180 A  
HETATM   32  C   UNL     1      -9.480  17.548  67.695  1.00  0.00    -0.256 A  
HETATM   33  C   UNL     1      -8.679  16.492  68.131  1.00  0.00    -0.194 A  
HETATM   34  C   UNL     1     -10.105  16.258  65.756  1.00  0.00    -0.373 A  
HETATM   35  C   UNL     1     -10.189  17.432  66.502  1.00  0.00    -0.329 A  
HETATM   36  C   UNL     1      -9.303  15.200  66.195  1.00  0.00    -0.346 A  
ENDBRANCH  30  31
ENDBRANCH  29  30
ENDBRANCH  15  29
ENDBRANCH  12  15
ENDBRANCH  11  12
ENDBRANCH   8  11
BRANCH   9  37
HETATM   37  C   UNL     1     -10.473   6.956  69.550  1.00  0.00    -0.223 C  
HETATM   38  C   UNL     1     -10.981   8.471  72.258  1.00  0.00    -0.426 C  
HETATM   39  O   UNL     1      -9.579   6.457  70.230  1.00  0.00    -0.163 OA 
HETATM   40  C   UNL     1     -13.368   8.038  71.697  1.00  0.00    -0.364 C  
HETATM   41  C   UNL     1     -11.933   7.505  71.540  1.00  0.00    -0.307 C  
HETATM   42  N   UNL     1     -11.646   7.445  70.100  1.00  0.00    -0.493 N  
HETATM   43  C   UNL     1     -11.855   6.117  72.193  1.00  0.00    -0.339 C  
HETATM   44  H   UNL     1     -12.362   7.788  69.460  1.00  0.00     0.000 HD 
ENDBRANCH   9  37
TORSDOF 9
ENDMDL
MODEL       30
REMARK 921   NORMALIZED FREE ENERGY PREDICTED BY IDOCK:   -6.69 KCAL/MOL
REMARK 922        TOTAL FREE ENERGY PREDICTED BY IDOCK:  -13.05 KCAL/MOL
REMARK 923 INTER-LIGAND FREE ENERGY PREDICTED BY IDOCK:  -11.00 KCAL/MOL
REMARK 924 INTRA-LIGAND FREE ENERGY PREDICTED BY IDOCK:   -2.05 KCAL/MOL
REMARK 927      BINDING AFFINITY PREDICTED BY RF-SCORE:    0.00 PKD
ROOT
HETATM    1  C   UNL     1      -8.225   9.263  67.415  1.00  0.00    -0.117 C  
HETATM    2  C   UNL     1      -8.862   7.871  67.495  1.00  0.00    -0.128 C  
HETATM    3  C   UNL     1     -10.332   7.943  67.891  1.00  0.00    -0.281 C  
HETATM    4  C   UNL     1     -10.501   8.648  69.230  1.00  0.00    -0.226 C  
HETATM    5  C   UNL     1      -9.848  10.029  69.264  1.00  0.00    -0.227 C  
HETATM    6  C   UNL     1      -8.415  10.059  68.707  1.00  0.00    -0.126 C  
HETATM    7  C   UNL     1      -7.883  11.486  68.491  1.00  0.00    -0.140 C  
HETATM    8  N   UNL     1      -8.618  12.261  67.486  1.00  0.00    -0.164 NA 
HETATM    9  C   UNL     1      -8.962  11.518  66.259  1.00  0.00    -0.196 C  
HETATM   10  C   UNL     1      -8.670  10.010  66.151  1.00  0.00    -0.153 C  
ENDROOT
BRANCH   8  11
HETATM   11  C   UNL     1      -7.934  13.549  67.206  1.00  0.00    -0.112 C  
BRANCH  11  12
HETATM   12  C   UNL     1      -8.672  14.896  67.507  1.00  0.00    -0.187 C  
HETATM   13  H   UNL     1     -10.533  15.604  67.429  1.00  0.00     0.000 HD 
HETATM   14  O   UNL     1     -10.085  14.787  67.246  1.00  0.00    -0.234 OA 
BRANCH  12  15
HETATM   15  C   UNL     1      -8.413  15.459  68.930  1.00  0.00    -0.205 C  
BRANCH  15  16
HETATM   16  N   UNL     1      -9.453  15.098  69.902  1.00  0.00    -0.468 N  
HETATM   17  C   UNL     1     -10.595  15.840  70.098  1.00  0.00    -0.324 C  
HETATM   18  O   UNL     1     -10.860  16.876  69.499  1.00  0.00    -0.303 OA 
HETATM   19  H   UNL     1      -9.322  14.254  70.459  1.00  0.00     0.000 HD 
BRANCH  17  20
HETATM   20  C   UNL     1     -11.526  15.357  71.145  1.00  0.00    -0.425 A  
HETATM   21  C   UNL     1     -11.662  16.139  72.306  1.00  0.00    -0.564 A  
HETATM   22  H   UNL     1     -14.161  12.219  72.860  1.00  0.00     0.000 HD 
HETATM   23  C   UNL     1     -12.202  14.124  71.015  1.00  0.00    -0.432 A  
HETATM   24  C   UNL     1     -12.981  13.705  72.104  1.00  0.00    -0.324 A  
HETATM   25  C   UNL     1     -12.481  15.717  73.344  1.00  0.00    -0.642 A  
HETATM   26  C   UNL     1     -12.128  13.265  69.778  1.00  0.00    -0.355 C  
HETATM   27  O   UNL     1     -13.633  12.503  72.123  1.00  0.00    -0.500 OA 
HETATM   28  C   UNL     1     -13.136  14.494  73.242  1.00  0.00    -0.440 A  
ENDBRANCH  17  20
ENDBRANCH  15  16
BRANCH  15  29
HETATM   29  C   UNL     1      -6.975  15.173  69.454  1.00  0.00    -0.178 C  
BRANCH  29  30
HETATM   30  S   UNL     1      -5.707  16.421  69.020  1.00  0.00    -0.134 SA 
BRANCH  30  31
HETATM   31  C   UNL     1      -6.634  17.753  68.295  1.00  0.00    -0.196 A  
HETATM   32  C   UNL     1      -7.244  18.911  66.246  1.00  0.00    -0.274 A  
HETATM   33  C   UNL     1      -6.465  17.970  66.921  1.00  0.00    -0.209 A  
HETATM   34  C   UNL     1      -8.370  19.442  68.310  1.00  0.00    -0.379 A  
HETATM   35  C   UNL     1      -8.203  19.643  66.941  1.00  0.00    -0.323 A  
HETATM   36  C   UNL     1      -7.589  18.500  68.986  1.00  0.00    -0.204 A  
ENDBRANCH  30  31
ENDBRANCH  29  30
ENDBRANCH  15  29
ENDBRANCH  12  15
ENDBRANCH  11  12
ENDBRANCH   8  11
BRANCH   9  37
HETATM   37  C   UNL     1     -10.469  11.754  65.927  1.00  0.00    -0.255 C  
HETATM   38  C   UNL     1     -12.869  13.787  65.961  1.00  0.00    -0.294 C  
HETATM   39  O   UNL     1     -11.375  10.990  66.253  1.00  0.00    -0.141 OA 
HETATM   40  C   UNL     1     -11.788  14.624  63.880  1.00  0.00     0.038 C  
HETATM   41  C   UNL     1     -12.013  13.378  64.754  1.00  0.00    -0.390 C  
HETATM   42  N   UNL     1     -10.690  12.897  65.176  1.00  0.00    -0.296 N  
HETATM   43  C   UNL     1     -12.759  12.327  63.920  1.00  0.00    -0.490 C  
HETATM   44  H   UNL     1      -9.877  13.445  64.897  1.00  0.00     0.000 HD 
ENDBRANCH   9  37
TORSDOF 9
ENDMDL
MODEL       31
REMARK 921   NORMALIZED FREE ENERGY PREDICTED BY IDOCK:   -6.67 KCAL/MOL
REMARK 922        TOTAL FREE ENERGY PREDICTED BY IDOCK:  -13.02 KCAL/MOL
REMARK 923 INTER-LIGAND FREE ENERGY PREDICTED BY IDOCK:  -11.06 KCAL/MOL
REMARK 924 INTRA-LIGAND FREE ENERGY PREDICTED BY IDOCK:   -1.96 KCAL/MOL
REMARK 927      BINDING AFFINITY PREDICTED BY RF-SCORE:    0.00 PKD
ROOT
HETATM    1  C   UNL     1     -10.672   9.842  66.686  1.00  0.00    -0.106 C  
HETATM    2  C   UNL     1     -10.314   8.354  66.758  1.00  0.00    -0.357 C  
HETATM    3  C   UNL     1      -8.856   8.102  66.396  1.00  0.00    -0.182 C  
HETATM    4  C   UNL     1      -8.544   8.624  65.000  1.00  0.00    -0.185 C  
HETATM    5  C   UNL     1      -8.919  10.094  64.814  1.00  0.00    -0.236 C  
HETATM    6  C   UNL     1     -10.323  10.454  65.328  1.00  0.00    -0.267 C  
HETATM    7  C   UNL     1     -10.572  11.971  65.390  1.00  0.00    -0.278 C  
HETATM    8  N   UNL     1      -9.708  12.687  66.334  1.00  0.00    -0.255 NA 
HETATM    9  C   UNL     1      -9.522  12.020  67.636  1.00  0.00    -0.185 C  
HETATM   10  C   UNL     1     -10.101  10.613  67.883  1.00  0.00    -0.194 C  
ENDROOT
BRANCH   8  11
HETATM   11  C   UNL     1     -10.132  14.104  66.469  1.00  0.00    -0.280 C  
BRANCH  11  12
HETATM   12  C   UNL     1      -9.051  15.217  66.669  1.00  0.00    -0.282 C  
HETATM   13  H   UNL     1      -8.584  16.977  65.861  1.00  0.00     0.000 HD 
HETATM   14  O   UNL     1      -9.240  16.302  65.740  1.00  0.00    -0.439 OA 
BRANCH  12  15
HETATM   15  C   UNL     1      -8.944  15.746  68.124  1.00  0.00    -0.180 C  
BRANCH  15  16
HETATM   16  N   UNL     1      -9.765  14.995  69.082  1.00  0.00    -0.247 N  
HETATM   17  C   UNL     1     -11.107  15.229  69.274  1.00  0.00    -0.274 C  
HETATM   18  O   UNL     1     -11.752  16.087  68.682  1.00  0.00    -0.382 OA 
HETATM   19  H   UNL     1      -9.317  14.263  69.634  1.00  0.00     0.000 HD 
BRANCH  17  20
HETATM   20  C   UNL     1     -11.781  14.409  70.308  1.00  0.00    -0.355 A  
HETATM   21  C   UNL     1     -12.133  13.091  69.965  1.00  0.00    -0.367 A  
HETATM   22  H   UNL     1     -13.773  13.995  74.256  1.00  0.00     0.000 HD 
HETATM   23  C   UNL     1     -12.118  14.947  71.569  1.00  0.00    -0.406 A  
HETATM   24  C   UNL     1     -12.844  14.124  72.441  1.00  0.00    -0.337 A  
HETATM   25  C   UNL     1     -12.808  12.287  70.874  1.00  0.00    -0.179 A  
HETATM   26  C   UNL     1     -11.729  16.337  72.007  1.00  0.00    -0.528 C  
HETATM   27  O   UNL     1     -13.281  14.553  73.665  1.00  0.00    -0.406 OA 
HETATM   28  C   UNL     1     -13.168  12.809  72.111  1.00  0.00    -0.546 A  
ENDBRANCH  17  20
ENDBRANCH  15  16
BRANCH  15  29
HETATM   29  C   UNL     1      -7.474  15.931  68.607  1.00  0.00    -0.158 C  
BRANCH  29  30
HETATM   30  S   UNL     1      -6.914  17.662  68.806  1.00  0.00    -0.252 SA 
BRANCH  30  31
HETATM   31  C   UNL     1      -8.226  18.631  68.101  1.00  0.00    -0.303 A  
HETATM   32  C   UNL     1     -10.304  19.826  68.512  1.00  0.00    -0.472 A  
HETATM   33  C   UNL     1      -9.294  18.966  68.945  1.00  0.00    -0.335 A  
HETATM   34  C   UNL     1      -9.203  20.026  66.377  1.00  0.00    -0.453 A  
HETATM   35  C   UNL     1     -10.254  20.361  67.228  1.00  0.00    -0.432 A  
HETATM   36  C   UNL     1      -8.192  19.163  66.811  1.00  0.00    -0.292 A  
ENDBRANCH  30  31
ENDBRANCH  29  30
ENDBRANCH  15  29
ENDBRANCH  12  15
ENDBRANCH  11  12
ENDBRANCH   8  11
BRANCH   9  37
HETATM   37  C   UNL     1      -8.000  11.995  67.983  1.00  0.00    -0.149 C  
HETATM   38  C   UNL     1      -5.829  12.245  70.244  1.00  0.00    -0.166 C  
HETATM   39  O   UNL     1      -7.143  12.626  67.369  1.00  0.00    -0.142 OA 
HETATM   40  C   UNL     1      -6.453   9.874  70.679  1.00  0.00    -0.106 C  
HETATM   41  C   UNL     1      -6.347  10.956  69.591  1.00  0.00    -0.100 C  
HETATM   42  N   UNL     1      -7.694  11.146  69.034  1.00  0.00    -0.212 N  
HETATM   43  C   UNL     1      -5.353  10.478  68.523  1.00  0.00    -0.037 C  
HETATM   44  H   UNL     1      -8.458  10.614  69.451  1.00  0.00     0.000 HD 
ENDBRANCH   9  37
TORSDOF 9
ENDMDL
MODEL       32
REMARK 921   NORMALIZED FREE ENERGY PREDICTED BY IDOCK:   -6.67 KCAL/MOL
REMARK 922        TOTAL FREE ENERGY PREDICTED BY IDOCK:  -13.01 KCAL/MOL
REMARK 923 INTER-LIGAND FREE ENERGY PREDICTED BY IDOCK:  -10.65 KCAL/MOL
REMARK 924 INTRA-LIGAND FREE ENERGY PREDICTED BY IDOCK:   -2.36 KCAL/MOL
REMARK 927      BINDING AFFINITY PREDICTED BY RF-SCORE:    0.00 PKD
ROOT
HETATM    1  C   UNL     1      -9.586   6.994  66.427  1.00  0.00    -0.159 C  
HETATM    2  C   UNL     1      -9.650   5.515  66.823  1.00  0.00    -0.156 C  
HETATM    3  C   UNL     1      -9.022   5.267  68.190  1.00  0.00    -0.115 C  
HETATM    4  C   UNL     1      -7.571   5.729  68.214  1.00  0.00    -0.085 C  
HETATM    5  C   UNL     1      -7.401   7.184  67.779  1.00  0.00    -0.097 C  
HETATM    6  C   UNL     1      -8.161   7.548  66.494  1.00  0.00    -0.123 C  
HETATM    7  C   UNL     1      -8.206   9.063  66.229  1.00  0.00    -0.115 C  
HETATM    8  N   UNL     1      -8.934   9.832  67.243  1.00  0.00    -0.135 NA 
HETATM    9  C   UNL     1     -10.202   9.227  67.691  1.00  0.00    -0.230 C  
HETATM   10  C   UNL     1     -10.615   7.826  67.202  1.00  0.00    -0.401 C  
ENDROOT
BRANCH   8  11
HETATM   11  C   UNL     1      -9.090  11.248  66.822  1.00  0.00    -0.174 C  
BRANCH  11  12
HETATM   12  C   UNL     1      -8.433  12.383  67.677  1.00  0.00    -0.169 C  
HETATM   13  H   UNL     1      -7.037  13.784  67.439  1.00  0.00     0.000 HD 
HETATM   14  O   UNL     1      -7.436  13.095  66.921  1.00  0.00     0.079 OA 
BRANCH  12  15
HETATM   15  C   UNL     1      -9.449  13.366  68.318  1.00  0.00    -0.209 C  
BRANCH  15  16
HETATM   16  N   UNL     1      -9.372  14.727  67.772  1.00  0.00    -0.196 N  
HETATM   17  C   UNL     1      -8.901  15.803  68.488  1.00  0.00    -0.193 C  
HETATM   18  O   UNL     1      -8.511  15.746  69.648  1.00  0.00    -0.206 OA 
HETATM   19  H   UNL     1      -9.684  14.882  66.813  1.00  0.00     0.000 HD 
BRANCH  17  20
HETATM   20  C   UNL     1      -8.926  17.116  67.801  1.00  0.00    -0.226 A  
HETATM   21  C   UNL     1     -10.082  17.905  67.947  1.00  0.00    -0.350 A  
HETATM   22  H   UNL     1      -7.194  20.048  64.949  1.00  0.00     0.000 HD 
HETATM   23  C   UNL     1      -7.859  17.535  66.977  1.00  0.00    -0.240 A  
HETATM   24  C   UNL     1      -8.020  18.746  66.290  1.00  0.00    -0.264 A  
HETATM   25  C   UNL     1     -10.187  19.124  67.290  1.00  0.00    -0.487 A  
HETATM   26  C   UNL     1      -6.580  16.752  66.817  1.00  0.00    -0.247 C  
HETATM   27  O   UNL     1      -7.085  19.227  65.415  1.00  0.00    -0.433 OA 
HETATM   28  C   UNL     1      -9.154  19.540  66.456  1.00  0.00    -0.416 A  
ENDBRANCH  17  20
ENDBRANCH  15  16
BRANCH  15  29
HETATM   29  C   UNL     1     -10.906  12.813  68.351  1.00  0.00    -0.249 C  
BRANCH  29  30
HETATM   30  S   UNL     1     -12.231  14.071  68.463  1.00  0.00    -0.020 SA 
BRANCH  30  31
HETATM   31  C   UNL     1     -12.371  14.406  70.203  1.00  0.00    -0.348 A  
HETATM   32  C   UNL     1     -12.037  16.029  71.983  1.00  0.00    -0.606 A  
HETATM   33  C   UNL     1     -11.860  15.629  70.658  1.00  0.00    -0.409 A  
HETATM   34  C   UNL     1     -13.235  13.984  72.427  1.00  0.00    -0.585 A  
HETATM   35  C   UNL     1     -12.732  15.207  72.866  1.00  0.00    -0.522 A  
HETATM   36  C   UNL     1     -13.055  13.584  71.099  1.00  0.00    -0.285 A  
ENDBRANCH  30  31
ENDBRANCH  29  30
ENDBRANCH  15  29
ENDBRANCH  12  15
ENDBRANCH  11  12
ENDBRANCH   8  11
BRANCH   9  37
HETATM   37  C   UNL     1     -10.248   9.238  69.252  1.00  0.00    -0.206 C  
HETATM   38  C   UNL     1     -12.035   9.609  71.814  1.00  0.00    -0.421 C  
HETATM   39  O   UNL     1      -9.457   9.856  69.960  1.00  0.00    -0.231 OA 
HETATM   40  C   UNL     1     -12.669   7.249  71.337  1.00  0.00    -0.427 C  
HETATM   41  C   UNL     1     -11.542   8.288  71.206  1.00  0.00    -0.281 C  
HETATM   42  N   UNL     1     -11.250   8.436  69.774  1.00  0.00    -0.450 N  
HETATM   43  C   UNL     1     -10.320   7.781  71.985  1.00  0.00    -0.267 C  
HETATM   44  H   UNL     1     -11.826   7.911  69.117  1.00  0.00     0.000 HD 
ENDBRANCH   9  37
TORSDOF 9
ENDMDL
MODEL       33
REMARK 921   NORMALIZED FREE ENERGY PREDICTED BY IDOCK:   -6.58 KCAL/MOL
REMARK 922        TOTAL FREE ENERGY PREDICTED BY IDOCK:  -12.87 KCAL/MOL
REMARK 923 INTER-LIGAND FREE ENERGY PREDICTED BY IDOCK:  -11.35 KCAL/MOL
REMARK 924 INTRA-LIGAND FREE ENERGY PREDICTED BY IDOCK:   -1.52 KCAL/MOL
REMARK 927      BINDING AFFINITY PREDICTED BY RF-SCORE:    0.00 PKD
ROOT
HETATM    1  C   UNL     1      -9.108   5.742  68.147  1.00  0.00    -0.110 C  
HETATM    2  C   UNL     1      -8.793   4.251  68.299  1.00  0.00    -0.132 C  
HETATM    3  C   UNL     1      -8.357   3.904  69.718  1.00  0.00    -0.079 C  
HETATM    4  C   UNL     1      -7.136   4.718  70.126  1.00  0.00    -0.049 C  
HETATM    5  C   UNL     1      -7.338   6.223  69.957  1.00  0.00    -0.082 C  
HETATM    6  C   UNL     1      -7.946   6.627  68.604  1.00  0.00    -0.118 C  
HETATM    7  C   UNL     1      -8.396   8.097  68.561  1.00  0.00    -0.126 C  
HETATM    8  N   UNL     1      -9.480   8.425  69.494  1.00  0.00    -0.165 NA 
HETATM    9  C   UNL     1     -10.565   7.430  69.560  1.00  0.00    -0.237 C  
HETATM   10  C   UNL     1     -10.453   6.099  68.792  1.00  0.00    -0.295 C  
ENDROOT
BRANCH   8  11
HETATM   11  C   UNL     1      -9.978   9.805  69.261  1.00  0.00    -0.192 C  
BRANCH  11  12
HETATM   12  C   UNL     1      -9.754  10.481  67.867  1.00  0.00    -0.153 C  
HETATM   13  H   UNL     1     -10.328  10.192  65.982  1.00  0.00     0.000 HD 
HETATM   14  O   UNL     1     -10.464   9.782  66.827  1.00  0.00    -0.231 OA 
BRANCH  12  15
HETATM   15  C   UNL     1     -10.077  11.999  67.837  1.00  0.00    -0.195 C  
BRANCH  15  16
HETATM   16  N   UNL     1     -10.629  12.506  69.100  1.00  0.00    -0.438 N  
HETATM   17  C   UNL     1     -11.690  13.379  69.165  1.00  0.00    -0.326 C  
HETATM   18  O   UNL     1     -12.275  13.832  68.189  1.00  0.00    -0.331 OA 
HETATM   19  H   UNL     1     -10.203  12.195  69.973  1.00  0.00     0.000 HD 
BRANCH  17  20
HETATM   20  C   UNL     1     -12.099  13.823  70.518  1.00  0.00    -0.416 A  
HETATM   21  C   UNL     1     -12.960  12.983  71.247  1.00  0.00    -0.330 A  
HETATM   22  H   UNL     1     -12.300  16.915  73.701  1.00  0.00     0.000 HD 
HETATM   23  C   UNL     1     -11.694  15.074  71.034  1.00  0.00    -0.379 A  
HETATM   24  C   UNL     1     -12.215  15.449  72.281  1.00  0.00    -0.391 A  
HETATM   25  C   UNL     1     -13.416  13.365  72.502  1.00  0.00    -0.640 A  
HETATM   26  C   UNL     1     -10.740  15.996  70.318  1.00  0.00    -0.278 C  
HETATM   27  O   UNL     1     -11.947  16.661  72.856  1.00  0.00    -0.512 OA 
HETATM   28  C   UNL     1     -13.046  14.604  73.014  1.00  0.00    -0.616 A  
ENDBRANCH  17  20
ENDBRANCH  15  16
BRANCH  15  29
HETATM   29  C   UNL     1      -8.902  12.870  67.302  1.00  0.00    -0.206 C  
BRANCH  29  30
HETATM   30  S   UNL     1      -9.378  14.285  66.242  1.00  0.00    -0.149 SA 
BRANCH  30  31
HETATM   31  C   UNL     1     -10.497  13.583  65.052  1.00  0.00    -0.376 A  
HETATM   32  C   UNL     1     -10.939  11.732  63.539  1.00  0.00    -0.499 A  
HETATM   33  C   UNL     1     -10.078  12.418  64.396  1.00  0.00    -0.293 A  
HETATM   34  C   UNL     1     -12.655  13.369  63.972  1.00  0.00    -0.192 A  
HETATM   35  C   UNL     1     -12.232  12.205  63.333  1.00  0.00    -0.635 A  
HETATM   36  C   UNL     1     -11.790  14.057  64.829  1.00  0.00    -0.415 A  
ENDBRANCH  30  31
ENDBRANCH  29  30
ENDBRANCH  15  29
ENDBRANCH  12  15
ENDBRANCH  11  12
ENDBRANCH   8  11
BRANCH   9  37
HETATM   37  C   UNL     1     -10.873   7.111  71.057  1.00  0.00    -0.240 C  
HETATM   38  C   UNL     1     -11.247   4.870  73.231  1.00  0.00    -0.423 C  
HETATM   39  O   UNL     1     -11.810   7.597  71.687  1.00  0.00    -0.272 OA 
HETATM   40  C   UNL     1      -8.758   4.908  73.256  1.00  0.00    -0.104 C  
HETATM   41  C   UNL     1     -10.016   5.760  73.016  1.00  0.00    -0.174 C  
HETATM   42  N   UNL     1      -9.950   6.254  71.634  1.00  0.00    -0.179 N  
HETATM   43  C   UNL     1     -10.025   6.913  74.030  1.00  0.00    -0.371 C  
HETATM   44  H   UNL     1      -9.169   5.943  71.057  1.00  0.00     0.000 HD 
ENDBRANCH   9  37
TORSDOF 9
ENDMDL
MODEL       34
REMARK 921   NORMALIZED FREE ENERGY PREDICTED BY IDOCK:   -6.57 KCAL/MOL
REMARK 922        TOTAL FREE ENERGY PREDICTED BY IDOCK:  -12.86 KCAL/MOL
REMARK 923 INTER-LIGAND FREE ENERGY PREDICTED BY IDOCK:   -9.99 KCAL/MOL
REMARK 924 INTRA-LIGAND FREE ENERGY PREDICTED BY IDOCK:   -2.87 KCAL/MOL
REMARK 927      BINDING AFFINITY PREDICTED BY RF-SCORE:    0.00 PKD
ROOT
HETATM    1  C   UNL     1     -11.678  14.163  66.289  1.00  0.00    -0.402 C  
HETATM    2  C   UNL     1     -12.995  13.644  65.704  1.00  0.00    -0.296 C  
HETATM    3  C   UNL     1     -12.775  12.452  64.781  1.00  0.00    -0.324 C  
HETATM    4  C   UNL     1     -11.829  12.811  63.643  1.00  0.00    -0.603 C  
HETATM    5  C   UNL     1     -10.502  13.391  64.131  1.00  0.00    -0.202 C  
HETATM    6  C   UNL     1     -10.649  14.483  65.203  1.00  0.00    -0.429 C  
HETATM    7  C   UNL     1      -9.316  14.850  65.876  1.00  0.00    -0.181 C  
HETATM    8  N   UNL     1      -8.700  13.757  66.636  1.00  0.00    -0.081 NA 
HETATM    9  C   UNL     1      -9.635  12.972  67.463  1.00  0.00    -0.204 C  
HETATM   10  C   UNL     1     -11.152  13.234  67.392  1.00  0.00    -0.300 C  
ENDROOT
BRANCH   8  11
HETATM   11  C   UNL     1      -7.523  14.242  67.400  1.00  0.00    -0.149 C  
BRANCH  11  12
HETATM   12  C   UNL     1      -7.623  14.397  68.954  1.00  0.00    -0.128 C  
HETATM   13  H   UNL     1      -6.414  14.245  70.530  1.00  0.00     0.000 HD 
HETATM   14  O   UNL     1      -6.353  14.151  69.587  1.00  0.00    -0.117 OA 
BRANCH  12  15
HETATM   15  C   UNL     1      -8.223  15.750  69.422  1.00  0.00    -0.211 C  
BRANCH  15  16
HETATM   16  N   UNL     1      -7.775  16.897  68.622  1.00  0.00    -0.224 N  
HETATM   17  C   UNL     1      -6.762  17.741  69.014  1.00  0.00    -0.246 C  
HETATM   18  O   UNL     1      -6.140  17.637  70.064  1.00  0.00    -0.232 OA 
HETATM   19  H   UNL     1      -8.238  17.077  67.732  1.00  0.00     0.000 HD 
BRANCH  17  20
HETATM   20  C   UNL     1      -6.458  18.874  68.108  1.00  0.00    -0.231 A  
HETATM   21  C   UNL     1      -6.259  20.139  68.692  1.00  0.00    -0.327 A  
HETATM   22  H   UNL     1      -6.125  20.617  64.036  1.00  0.00     0.000 HD 
HETATM   23  C   UNL     1      -6.434  18.708  66.706  1.00  0.00    -0.203 A  
HETATM   24  C   UNL     1      -6.239  19.860  65.930  1.00  0.00    -0.189 A  
HETATM   25  C   UNL     1      -6.019  21.249  67.894  1.00  0.00    -0.391 A  
HETATM   26  C   UNL     1      -6.598  17.371  66.027  1.00  0.00    -0.176 C  
HETATM   27  O   UNL     1      -6.257  19.837  64.562  1.00  0.00    -0.265 OA 
HETATM   28  C   UNL     1      -6.015  21.107  66.510  1.00  0.00    -0.339 A  
ENDBRANCH  17  20
ENDBRANCH  15  16
BRANCH  15  29
HETATM   29  C   UNL     1      -9.771  15.710  69.601  1.00  0.00    -0.276 C  
BRANCH  29  30
HETATM   30  S   UNL     1     -10.559  17.296  70.064  1.00  0.00     0.740 SA 
BRANCH  30  31
HETATM   31  C   UNL     1     -10.449  18.286  68.592  1.00  0.00    -0.160 A  
HETATM   32  C   UNL     1      -9.839  20.441  67.645  1.00  0.00    -0.538 A  
HETATM   33  C   UNL     1     -10.070  19.626  68.753  1.00  0.00    -0.532 A  
HETATM   34  C   UNL     1     -10.370  18.594  66.190  1.00  0.00    -0.481 A  
HETATM   35  C   UNL     1      -9.983  19.922  66.361  1.00  0.00    -0.593 A  
HETATM   36  C   UNL     1     -10.603  17.778  67.301  1.00  0.00    -0.322 A  
ENDBRANCH  30  31
ENDBRANCH  29  30
ENDBRANCH  15  29
ENDBRANCH  12  15
ENDBRANCH  11  12
ENDBRANCH   8  11
BRANCH   9  37
HETATM   37  C   UNL     1      -9.385  11.452  67.212  1.00  0.00    -0.167 C  
HETATM   38  C   UNL     1      -8.268   8.756  68.384  1.00  0.00    -0.118 C  
HETATM   39  O   UNL     1      -8.852  10.999  66.201  1.00  0.00    -0.179 OA 
HETATM   40  C   UNL     1     -10.483   8.690  69.520  1.00  0.00    -0.222 C  
HETATM   41  C   UNL     1      -9.739   9.180  68.267  1.00  0.00    -0.154 C  
HETATM   42  N   UNL     1      -9.869  10.644  68.227  1.00  0.00    -0.158 N  
HETATM   43  C   UNL     1     -10.374   8.521  67.034  1.00  0.00    -0.379 C  
HETATM   44  H   UNL     1     -10.350  11.097  69.004  1.00  0.00     0.000 HD 
ENDBRANCH   9  37
TORSDOF 9
ENDMDL
MODEL       35
REMARK 921   NORMALIZED FREE ENERGY PREDICTED BY IDOCK:   -6.49 KCAL/MOL
REMARK 922        TOTAL FREE ENERGY PREDICTED BY IDOCK:  -12.74 KCAL/MOL
REMARK 923 INTER-LIGAND FREE ENERGY PREDICTED BY IDOCK:  -11.11 KCAL/MOL
REMARK 924 INTRA-LIGAND FREE ENERGY PREDICTED BY IDOCK:   -1.62 KCAL/MOL
REMARK 927      BINDING AFFINITY PREDICTED BY RF-SCORE:    0.00 PKD
ROOT
HETATM    1  C   UNL     1     -10.324   8.026  66.999  1.00  0.00    -0.414 C  
HETATM    2  C   UNL     1     -10.892   6.606  66.901  1.00  0.00    -0.415 C  
HETATM    3  C   UNL     1     -10.169   5.640  67.831  1.00  0.00    -0.234 C  
HETATM    4  C   UNL     1      -8.677   5.604  67.524  1.00  0.00    -0.107 C  
HETATM    5  C   UNL     1      -8.030   6.988  67.545  1.00  0.00    -0.113 C  
HETATM    6  C   UNL     1      -8.812   8.059  66.768  1.00  0.00    -0.157 C  
HETATM    7  C   UNL     1      -8.303   9.487  67.030  1.00  0.00    -0.124 C  
HETATM    8  N   UNL     1      -8.459   9.939  68.417  1.00  0.00    -0.110 NA 
HETATM    9  C   UNL     1      -9.753   9.602  69.038  1.00  0.00    -0.169 C  
HETATM   10  C   UNL     1     -10.772   8.720  68.292  1.00  0.00    -0.121 C  
ENDROOT
BRANCH   8  11
HETATM   11  C   UNL     1      -8.117  11.379  68.545  1.00  0.00    -0.149 C  
BRANCH  11  12
HETATM   12  C   UNL     1      -8.673  12.399  67.496  1.00  0.00    -0.179 C  
HETATM   13  H   UNL     1     -10.201  12.517  66.223  1.00  0.00     0.000 HD 
HETATM   14  O   UNL     1      -9.864  11.898  66.860  1.00  0.00    -0.198 OA 
BRANCH  12  15
HETATM   15  C   UNL     1      -8.904  13.828  68.059  1.00  0.00    -0.182 C  
BRANCH  15  16
HETATM   16  N   UNL     1      -9.928  13.885  69.109  1.00  0.00    -0.430 N  
HETATM   17  C   UNL     1     -11.242  14.215  68.868  1.00  0.00    -0.267 C  
HETATM   18  O   UNL     1     -11.692  14.505  67.765  1.00  0.00    -0.349 OA 
HETATM   19  H   UNL     1      -9.651  13.669  70.067  1.00  0.00     0.000 HD 
BRANCH  17  20
HETATM   20  C   UNL     1     -12.139  14.264  70.046  1.00  0.00    -0.400 A  
HETATM   21  C   UNL     1     -12.532  15.532  70.512  1.00  0.00    -0.472 A  
HETATM   22  H   UNL     1     -14.208  12.289  73.444  1.00  0.00     0.000 HD 
HETATM   23  C   UNL     1     -12.533  13.087  70.719  1.00  0.00    -0.384 A  
HETATM   24  C   UNL     1     -13.299  13.243  71.883  1.00  0.00    -0.451 A  
HETATM   25  C   UNL     1     -13.333  15.646  71.641  1.00  0.00    -0.543 A  
HETATM   26  C   UNL     1     -12.178  11.701  70.241  1.00  0.00    -0.401 C  
HETATM   27  O   UNL     1     -13.689  12.183  72.655  1.00  0.00    -0.084 OA 
HETATM   28  C   UNL     1     -13.710  14.498  72.329  1.00  0.00    -0.559 A  
ENDBRANCH  17  20
ENDBRANCH  15  16
BRANCH  15  29
HETATM   29  C   UNL     1      -7.585  14.552  68.464  1.00  0.00    -0.123 C  
BRANCH  29  30
HETATM   30  S   UNL     1      -7.080  15.944  67.388  1.00  0.00    -0.212 SA 
BRANCH  30  31
HETATM   31  C   UNL     1      -8.421  17.104  67.512  1.00  0.00    -0.198 A  
HETATM   32  C   UNL     1      -9.211  19.184  68.492  1.00  0.00    -0.425 A  
HETATM   33  C   UNL     1      -8.265  18.161  68.419  1.00  0.00    -0.314 A  
HETATM   34  C   UNL     1     -10.494  18.107  66.758  1.00  0.00    -0.363 A  
HETATM   35  C   UNL     1     -10.323  19.160  67.655  1.00  0.00    -0.521 A  
HETATM   36  C   UNL     1      -9.546  17.081  66.686  1.00  0.00    -0.279 A  
ENDBRANCH  30  31
ENDBRANCH  29  30
ENDBRANCH  15  29
ENDBRANCH  12  15
ENDBRANCH  11  12
ENDBRANCH   8  11
BRANCH   9  37
HETATM   37  C   UNL     1      -9.495   8.975  70.444  1.00  0.00    -0.210 C  
HETATM   38  C   UNL     1     -10.765   7.577  72.959  1.00  0.00    -0.438 C  
HETATM   39  O   UNL     1      -8.834   9.515  71.329  1.00  0.00    -0.235 OA 
HETATM   40  C   UNL     1     -10.650   5.555  71.509  1.00  0.00    -0.302 C  
HETATM   41  C   UNL     1      -9.986   6.908  71.817  1.00  0.00    -0.173 C  
HETATM   42  N   UNL     1     -10.046   7.712  70.589  1.00  0.00    -0.187 N  
HETATM   43  C   UNL     1      -8.538   6.651  72.257  1.00  0.00    -0.121 C  
HETATM   44  H   UNL     1     -10.529   7.313  69.785  1.00  0.00     0.000 HD 
ENDBRANCH   9  37
TORSDOF 9
ENDMDL
MODEL       36
REMARK 921   NORMALIZED FREE ENERGY PREDICTED BY IDOCK:   -6.48 KCAL/MOL
REMARK 922        TOTAL FREE ENERGY PREDICTED BY IDOCK:  -12.73 KCAL/MOL
REMARK 923 INTER-LIGAND FREE ENERGY PREDICTED BY IDOCK:   -9.68 KCAL/MOL
REMARK 924 INTRA-LIGAND FREE ENERGY PREDICTED BY IDOCK:   -3.05 KCAL/MOL
REMARK 927      BINDING AFFINITY PREDICTED BY RF-SCORE:    0.00 PKD
ROOT
HETATM    1  C   UNL     1     -11.513   6.084  72.427  1.00  0.00    -0.357 C  
HETATM    2  C   UNL     1     -11.383   4.782  73.224  1.00  0.00    -0.408 C  
HETATM    3  C   UNL     1      -9.975   4.205  73.143  1.00  0.00    -0.192 C  
HETATM    4  C   UNL     1      -9.576   3.947  71.696  1.00  0.00    -0.232 C  
HETATM    5  C   UNL     1      -9.725   5.181  70.807  1.00  0.00    -0.255 C  
HETATM    6  C   UNL     1     -11.064   5.917  70.974  1.00  0.00    -0.315 C  
HETATM    7  C   UNL     1     -11.083   7.295  70.289  1.00  0.00    -0.266 C  
HETATM    8  N   UNL     1     -10.131   8.261  70.846  1.00  0.00    -0.188 NA 
HETATM    9  C   UNL     1     -10.060   8.284  72.319  1.00  0.00    -0.300 C  
HETATM   10  C   UNL     1     -10.845   7.256  73.156  1.00  0.00    -0.401 C  
ENDROOT
BRANCH   8  11
HETATM   11  C   UNL     1     -10.340   9.609  70.259  1.00  0.00    -0.280 C  
BRANCH  11  12
HETATM   12  C   UNL     1      -9.511  10.041  69.004  1.00  0.00    -0.187 C  
HETATM   13  H   UNL     1      -7.697   9.705  68.252  1.00  0.00     0.000 HD 
HETATM   14  O   UNL     1      -8.200   9.443  69.013  1.00  0.00    -0.102 OA 
BRANCH  12  15
HETATM   15  C   UNL     1     -10.226   9.788  67.650  1.00  0.00    -0.213 C  
BRANCH  15  16
HETATM   16  N   UNL     1     -10.428  11.007  66.857  1.00  0.00    -0.235 N  
HETATM   17  C   UNL     1     -11.404  11.936  67.135  1.00  0.00    -0.331 C  
HETATM   18  O   UNL     1     -12.209  11.843  68.054  1.00  0.00    -0.491 OA 
HETATM   19  H   UNL     1      -9.813  11.173  66.061  1.00  0.00     0.000 HD 
BRANCH  17  20
HETATM   20  C   UNL     1     -11.497  13.092  66.212  1.00  0.00    -0.372 A  
HETATM   21  C   UNL     1     -12.298  12.947  65.065  1.00  0.00    -0.541 A  
HETATM   22  H   UNL     1     -10.169  17.111  64.867  1.00  0.00     0.000 HD 
HETATM   23  C   UNL     1     -10.759  14.274  66.439  1.00  0.00    -0.297 A  
HETATM   24  C   UNL     1     -10.834  15.272  65.457  1.00  0.00    -0.372 A  
HETATM   25  C   UNL     1     -12.389  13.976  64.138  1.00  0.00    -0.374 A  
HETATM   26  C   UNL     1      -9.918  14.503  67.670  1.00  0.00    -0.224 C  
HETATM   27  O   UNL     1     -10.118  16.435  65.532  1.00  0.00    -0.508 OA 
HETATM   28  C   UNL     1     -11.650  15.138  64.334  1.00  0.00    -0.275 A  
ENDBRANCH  17  20
ENDBRANCH  15  16
BRANCH  15  29
HETATM   29  C   UNL     1      -9.590   8.631  66.823  1.00  0.00    -0.207 C  
BRANCH  29  30
HETATM   30  S   UNL     1     -10.562   7.081  66.745  1.00  0.00    -0.142 SA 
BRANCH  30  31
HETATM   31  C   UNL     1      -9.424   5.823  67.276  1.00  0.00    -0.114 A  
HETATM   32  C   UNL     1      -9.019   3.439  67.529  1.00  0.00    -0.173 A  
HETATM   33  C   UNL     1      -9.882   4.499  67.249  1.00  0.00    -0.216 A  
HETATM   34  C   UNL     1      -7.223   5.009  67.878  1.00  0.00    -0.067 A  
HETATM   35  C   UNL     1      -7.685   3.695  67.838  1.00  0.00    -0.069 A  
HETATM   36  C   UNL     1      -8.088   6.071  67.598  1.00  0.00    -0.106 A  
ENDBRANCH  30  31
ENDBRANCH  29  30
ENDBRANCH  15  29
ENDBRANCH  12  15
ENDBRANCH  11  12
ENDBRANCH   8  11
BRANCH   9  37
HETATM   37  C   UNL     1      -8.562   8.237  72.757  1.00  0.00    -0.203 C  
HETATM   38  C   UNL     1      -5.968   6.479  73.023  1.00  0.00    -0.053 C  
HETATM   39  O   UNL     1      -8.146   8.655  73.836  1.00  0.00    -0.398 OA 
HETATM   40  C   UNL     1      -5.737   7.002  70.600  1.00  0.00    -0.027 C  
HETATM   41  C   UNL     1      -6.276   7.524  71.942  1.00  0.00    -0.039 C  
HETATM   42  N   UNL     1      -7.725   7.717  71.784  1.00  0.00    -0.083 N  
HETATM   43  C   UNL     1      -5.562   8.842  72.275  1.00  0.00    -0.064 C  
HETATM   44  H   UNL     1      -8.144   7.447  70.895  1.00  0.00     0.000 HD 
ENDBRANCH   9  37
TORSDOF 9
ENDMDL
MODEL       37
REMARK 921   NORMALIZED FREE ENERGY PREDICTED BY IDOCK:   -6.44 KCAL/MOL
REMARK 922        TOTAL FREE ENERGY PREDICTED BY IDOCK:  -12.67 KCAL/MOL
REMARK 923 INTER-LIGAND FREE ENERGY PREDICTED BY IDOCK:  -10.97 KCAL/MOL
REMARK 924 INTRA-LIGAND FREE ENERGY PREDICTED BY IDOCK:   -1.70 KCAL/MOL
REMARK 927      BINDING AFFINITY PREDICTED BY RF-SCORE:    0.00 PKD
ROOT
HETATM    1  C   UNL     1      -8.813   5.621  73.368  1.00  0.00    -0.123 C  
HETATM    2  C   UNL     1      -8.506   4.161  73.717  1.00  0.00    -0.092 C  
HETATM    3  C   UNL     1      -9.494   3.202  73.063  1.00  0.00    -0.130 C  
HETATM    4  C   UNL     1     -10.923   3.526  73.479  1.00  0.00    -0.330 C  
HETATM    5  C   UNL     1     -11.304   4.983  73.220  1.00  0.00    -0.393 C  
HETATM    6  C   UNL     1     -10.257   6.001  73.698  1.00  0.00    -0.239 C  
HETATM    7  C   UNL     1     -10.523   7.426  73.183  1.00  0.00    -0.356 C  
HETATM    8  N   UNL     1     -10.444   7.567  71.726  1.00  0.00    -0.193 NA 
HETATM    9  C   UNL     1      -9.311   6.865  71.095  1.00  0.00    -0.162 C  
HETATM   10  C   UNL     1      -8.393   5.953  71.931  1.00  0.00    -0.119 C  
ENDROOT
BRANCH   8  11
HETATM   11  C   UNL     1     -10.528   8.996  71.327  1.00  0.00    -0.311 C  
BRANCH  11  12
HETATM   12  C   UNL     1     -11.613   9.444  70.292  1.00  0.00    -0.138 C  
HETATM   13  H   UNL     1     -13.553   9.899  70.296  1.00  0.00     0.000 HD 
HETATM   14  O   UNL     1     -12.894   9.627  70.924  1.00  0.00    -0.282 OA 
BRANCH  12  15
HETATM   15  C   UNL     1     -11.221  10.695  69.461  1.00  0.00    -0.272 C  
BRANCH  15  16
HETATM   16  N   UNL     1     -11.380  11.958  70.192  1.00  0.00    -0.496 N  
HETATM   17  C   UNL     1     -11.907  13.097  69.629  1.00  0.00    -0.324 C  
HETATM   18  O   UNL     1     -12.284  13.184  68.466  1.00  0.00    -0.248 OA 
HETATM   19  H   UNL     1     -11.085  11.993  71.168  1.00  0.00     0.000 HD 
BRANCH  17  20
HETATM   20  C   UNL     1     -11.963  14.299  70.494  1.00  0.00    -0.402 A  
HETATM   21  C   UNL     1     -11.235  15.431  70.084  1.00  0.00    -0.318 A  
HETATM   22  H   UNL     1     -13.096  16.309  74.290  1.00  0.00     0.000 HD 
HETATM   23  C   UNL     1     -12.664  14.290  71.720  1.00  0.00    -0.428 A  
HETATM   24  C   UNL     1     -12.574  15.440  72.516  1.00  0.00    -0.385 A  
HETATM   25  C   UNL     1     -11.208  16.572  70.875  1.00  0.00    -0.034 A  
HETATM   26  C   UNL     1     -13.495  13.122  72.190  1.00  0.00    -0.653 C  
HETATM   27  O   UNL     1     -13.158  15.529  73.750  1.00  0.00    -0.482 OA 
HETATM   28  C   UNL     1     -11.875  16.571  72.096  1.00  0.00    -0.360 A  
ENDBRANCH  17  20
ENDBRANCH  15  16
BRANCH  15  29
HETATM   29  C   UNL     1      -9.827  10.569  68.776  1.00  0.00    -0.186 C  
BRANCH  29  30
HETATM   30  S   UNL     1      -9.834   9.880  67.079  1.00  0.00    -0.201 SA 
BRANCH  30  31
HETATM   31  C   UNL     1      -9.970  11.307  66.028  1.00  0.00    -0.231 A  
HETATM   32  C   UNL     1     -10.774  12.188  63.909  1.00  0.00    -0.456 A  
HETATM   33  C   UNL     1     -10.516  11.107  64.753  1.00  0.00    -0.388 A  
HETATM   34  C   UNL     1      -9.937  13.691  65.598  1.00  0.00    -0.261 A  
HETATM   35  C   UNL     1     -10.490  13.483  64.336  1.00  0.00    -0.366 A  
HETATM   36  C   UNL     1      -9.678  12.607  66.443  1.00  0.00    -0.259 A  
ENDBRANCH  30  31
ENDBRANCH  29  30
ENDBRANCH  15  29
ENDBRANCH  12  15
ENDBRANCH  11  12
ENDBRANCH   8  11
BRANCH   9  37
HETATM   37  C   UNL     1      -9.836   6.048  69.872  1.00  0.00    -0.170 C  
HETATM   38  C   UNL     1     -10.980   6.165  66.945  1.00  0.00    -0.384 C  
HETATM   39  O   UNL     1     -10.676   5.155  69.949  1.00  0.00    -0.237 OA 
HETATM   40  C   UNL     1      -8.578   6.426  66.345  1.00  0.00    -0.134 C  
HETATM   41  C   UNL     1      -9.548   5.814  67.370  1.00  0.00    -0.115 C  
HETATM   42  N   UNL     1      -9.223   6.396  68.679  1.00  0.00    -0.126 N  
HETATM   43  C   UNL     1      -9.364   4.289  67.365  1.00  0.00    -0.190 C  
HETATM   44  H   UNL     1      -8.493   7.108  68.712  1.00  0.00     0.000 HD 
ENDBRANCH   9  37
TORSDOF 9
ENDMDL
MODEL       38
REMARK 921   NORMALIZED FREE ENERGY PREDICTED BY IDOCK:   -6.42 KCAL/MOL
REMARK 922        TOTAL FREE ENERGY PREDICTED BY IDOCK:  -12.63 KCAL/MOL
REMARK 923 INTER-LIGAND FREE ENERGY PREDICTED BY IDOCK:   -9.83 KCAL/MOL
REMARK 924 INTRA-LIGAND FREE ENERGY PREDICTED BY IDOCK:   -2.80 KCAL/MOL
REMARK 927      BINDING AFFINITY PREDICTED BY RF-SCORE:    0.00 PKD
ROOT
HETATM    1  C   UNL     1      -7.168   8.975  66.147  1.00  0.00    -0.090 C  
HETATM    2  C   UNL     1      -7.143   9.174  64.628  1.00  0.00    -0.090 C  
HETATM    3  C   UNL     1      -8.150  10.225  64.177  1.00  0.00    -0.138 C  
HETATM    4  C   UNL     1      -9.560   9.849  64.610  1.00  0.00    -0.320 C  
HETATM    5  C   UNL     1      -9.673   9.576  66.109  1.00  0.00    -0.324 C  
HETATM    6  C   UNL     1      -8.573   8.658  66.664  1.00  0.00    -0.124 C  
HETATM    7  C   UNL     1      -8.537   8.622  68.202  1.00  0.00    -0.141 C  
HETATM    8  N   UNL     1      -8.209   9.907  68.829  1.00  0.00    -0.109 NA 
HETATM    9  C   UNL     1      -7.110  10.650  68.186  1.00  0.00    -0.081 C  
HETATM   10  C   UNL     1      -6.483  10.138  66.875  1.00  0.00    -0.070 C  
ENDROOT
BRANCH   8  11
HETATM   11  C   UNL     1      -8.014   9.746  70.293  1.00  0.00    -0.162 C  
BRANCH  11  12
HETATM   12  C   UNL     1      -9.006   8.852  71.109  1.00  0.00    -0.241 C  
HETATM   13  H   UNL     1      -9.168   8.151  72.967  1.00  0.00     0.000 HD 
HETATM   14  O   UNL     1      -8.566   8.693  72.471  1.00  0.00    -0.364 OA 
BRANCH  12  15
HETATM   15  C   UNL     1     -10.483   9.328  71.056  1.00  0.00    -0.314 C  
BRANCH  15  16
HETATM   16  N   UNL     1     -10.693  10.490  70.182  1.00  0.00    -0.447 N  
HETATM   17  C   UNL     1     -11.851  11.233  70.178  1.00  0.00    -0.364 C  
HETATM   18  O   UNL     1     -12.825  11.002  70.884  1.00  0.00    -0.338 OA 
HETATM   19  H   UNL     1      -9.941  10.759  69.547  1.00  0.00     0.000 HD 
BRANCH  17  20
HETATM   20  C   UNL     1     -11.915  12.351  69.207  1.00  0.00    -0.308 A  
HETATM   21  C   UNL     1     -11.737  12.042  67.846  1.00  0.00    -0.393 A  
HETATM   22  H   UNL     1     -12.077  16.692  68.280  1.00  0.00     0.000 HD 
HETATM   23  C   UNL     1     -12.082  13.686  69.635  1.00  0.00    -0.378 A  
HETATM   24  C   UNL     1     -12.028  14.683  68.650  1.00  0.00    -0.270 A  
HETATM   25  C   UNL     1     -11.739  13.052  66.892  1.00  0.00    -0.441 A  
HETATM   26  C   UNL     1     -12.319  14.072  71.073  1.00  0.00    -0.443 C  
HETATM   27  O   UNL     1     -12.114  16.016  68.947  1.00  0.00    -0.283 OA 
HETATM   28  C   UNL     1     -11.879  14.375  67.299  1.00  0.00    -0.434 A  
ENDBRANCH  17  20
ENDBRANCH  15  16
BRANCH  15  29
HETATM   29  C   UNL     1     -11.493   8.175  70.776  1.00  0.00    -0.261 C  
BRANCH  29  30
HETATM   30  S   UNL     1     -10.817   6.478  70.900  1.00  0.00    -0.268 SA 
BRANCH  30  31
HETATM   31  C   UNL     1     -10.574   5.979  69.212  1.00  0.00    -0.299 A  
HETATM   32  C   UNL     1      -9.745   4.252  67.713  1.00  0.00    -0.179 A  
HETATM   33  C   UNL     1      -9.874   4.784  68.997  1.00  0.00    -0.239 A  
HETATM   34  C   UNL     1     -11.007   6.108  66.831  1.00  0.00    -0.384 A  
HETATM   35  C   UNL     1     -10.319   4.913  66.630  1.00  0.00    -0.285 A  
HETATM   36  C   UNL     1     -11.135   6.640  68.118  1.00  0.00    -0.287 A  
ENDBRANCH  30  31
ENDBRANCH  29  30
ENDBRANCH  15  29
ENDBRANCH  12  15
ENDBRANCH  11  12
ENDBRANCH   8  11
BRANCH   9  37
HETATM   37  C   UNL     1      -7.554  12.132  67.974  1.00  0.00    -0.123 C  
HETATM   38  C   UNL     1      -8.626  14.761  69.327  1.00  0.00    -0.036 C  
HETATM   39  O   UNL     1      -8.342  12.498  67.105  1.00  0.00    -0.180 OA 
HETATM   40  C   UNL     1      -6.228  15.064  69.926  1.00  0.00    -0.155 C  
HETATM   41  C   UNL     1      -7.187  14.464  68.883  1.00  0.00    -0.125 C  
HETATM   42  N   UNL     1      -6.931  13.017  68.839  1.00  0.00    -0.117 N  
HETATM   43  C   UNL     1      -6.913  15.130  67.528  1.00  0.00    -0.220 C  
HETATM   44  H   UNL     1      -6.246  12.638  69.492  1.00  0.00     0.000 HD 
ENDBRANCH   9  37
TORSDOF 9
ENDMDL
MODEL       39
REMARK 921   NORMALIZED FREE ENERGY PREDICTED BY IDOCK:   -6.41 KCAL/MOL
REMARK 922        TOTAL FREE ENERGY PREDICTED BY IDOCK:  -12.62 KCAL/MOL
REMARK 923 INTER-LIGAND FREE ENERGY PREDICTED BY IDOCK:  -10.81 KCAL/MOL
REMARK 924 INTRA-LIGAND FREE ENERGY PREDICTED BY IDOCK:   -1.81 KCAL/MOL
REMARK 927      BINDING AFFINITY PREDICTED BY RF-SCORE:    0.00 PKD
ROOT
HETATM    1  C   UNL     1      -8.212   9.647  64.756  1.00  0.00    -0.142 C  
HETATM    2  C   UNL     1      -8.411   8.596  63.659  1.00  0.00    -0.070 C  
HETATM    3  C   UNL     1      -8.058   7.195  64.144  1.00  0.00    -0.026 C  
HETATM    4  C   UNL     1      -6.618   7.137  64.636  1.00  0.00    -0.040 C  
HETATM    5  C   UNL     1      -6.307   8.190  65.700  1.00  0.00    -0.048 C  
HETATM    6  C   UNL     1      -6.801   9.602  65.348  1.00  0.00    -0.094 C  
HETATM    7  C   UNL     1      -6.732  10.578  66.535  1.00  0.00    -0.105 C  
HETATM    8  N   UNL     1      -7.601  10.222  67.662  1.00  0.00    -0.090 NA 
HETATM    9  C   UNL     1      -8.954   9.774  67.286  1.00  0.00    -0.135 C  
HETATM   10  C   UNL     1      -9.330   9.580  65.804  1.00  0.00    -0.293 C  
ENDROOT
BRANCH   8  11
HETATM   11  C   UNL     1      -7.615  11.302  68.681  1.00  0.00    -0.129 C  
BRANCH  11  12
HETATM   12  C   UNL     1      -7.605  12.798  68.219  1.00  0.00    -0.134 C  
HETATM   13  H   UNL     1      -6.639  13.921  66.887  1.00  0.00     0.000 HD 
HETATM   14  O   UNL     1      -6.645  13.014  67.168  1.00  0.00    -0.184 OA 
BRANCH  12  15
HETATM   15  C   UNL     1      -9.000  13.349  67.818  1.00  0.00    -0.205 C  
BRANCH  15  16
HETATM   16  N   UNL     1      -9.949  13.411  68.937  1.00  0.00    -0.431 N  
HETATM   17  C   UNL     1     -11.164  12.765  68.934  1.00  0.00    -0.283 C  
HETATM   18  O   UNL     1     -11.586  12.087  68.005  1.00  0.00    -0.305 OA 
HETATM   19  H   UNL     1      -9.695  13.961  69.757  1.00  0.00     0.000 HD 
BRANCH  17  20
HETATM   20  C   UNL     1     -12.020  12.962  70.127  1.00  0.00    -0.373 A  
HETATM   21  C   UNL     1     -12.381  11.820  70.865  1.00  0.00    -0.420 A  
HETATM   22  H   UNL     1     -14.589  15.524  72.690  1.00  0.00     0.000 HD 
HETATM   23  C   UNL     1     -12.513  14.239  70.475  1.00  0.00    -0.428 A  
HETATM   24  C   UNL     1     -13.398  14.308  71.560  1.00  0.00    -0.354 A  
HETATM   25  C   UNL     1     -13.220  11.933  71.966  1.00  0.00    -0.461 A  
HETATM   26  C   UNL     1     -12.127  15.503  69.747  1.00  0.00    -0.372 C  
HETATM   27  O   UNL     1     -13.989  15.477  71.955  1.00  0.00    -0.484 OA 
HETATM   28  C   UNL     1     -13.733  13.180  72.308  1.00  0.00    -0.647 A  
ENDBRANCH  17  20
ENDBRANCH  15  16
BRANCH  15  29
HETATM   29  C   UNL     1      -8.929  14.683  67.016  1.00  0.00    -0.240 C  
BRANCH  29  30
HETATM   30  S   UNL     1     -10.488  15.213  66.215  1.00  0.00    -0.320 SA 
BRANCH  30  31
HETATM   31  C   UNL     1     -10.948  13.832  65.196  1.00  0.00    -0.337 A  
HETATM   32  C   UNL     1     -12.777  12.534  64.254  1.00  0.00    -0.432 A  
HETATM   33  C   UNL     1     -12.313  13.521  65.125  1.00  0.00    -0.488 A  
HETATM   34  C   UNL     1     -10.516  12.142  63.513  1.00  0.00    -0.490 A  
HETATM   35  C   UNL     1     -11.877  11.849  63.442  1.00  0.00    -0.512 A  
HETATM   36  C   UNL     1     -10.052  13.131  64.387  1.00  0.00    -0.224 A  
ENDBRANCH  30  31
ENDBRANCH  29  30
ENDBRANCH  15  29
ENDBRANCH  12  15
ENDBRANCH  11  12
ENDBRANCH   8  11
BRANCH   9  37
HETATM   37  C   UNL     1      -9.287   8.457  68.055  1.00  0.00    -0.136 C  
HETATM   38  C   UNL     1      -9.386   7.012  70.847  1.00  0.00    -0.157 C  
HETATM   39  O   UNL     1      -8.890   7.343  67.719  1.00  0.00    -0.128 OA 
HETATM   40  C   UNL     1     -11.539   8.244  71.063  1.00  0.00    -0.301 C  
HETATM   41  C   UNL     1     -10.567   7.598  70.061  1.00  0.00    -0.238 C  
HETATM   42  N   UNL     1     -10.123   8.656  69.142  1.00  0.00    -0.193 N  
HETATM   43  C   UNL     1     -11.306   6.475  69.319  1.00  0.00    -0.359 C  
HETATM   44  H   UNL     1     -10.454   9.604  69.317  1.00  0.00     0.000 HD 
ENDBRANCH   9  37
TORSDOF 9
ENDMDL
MODEL       40
REMARK 921   NORMALIZED FREE ENERGY PREDICTED BY IDOCK:   -6.38 KCAL/MOL
REMARK 922        TOTAL FREE ENERGY PREDICTED BY IDOCK:  -12.57 KCAL/MOL
REMARK 923 INTER-LIGAND FREE ENERGY PREDICTED BY IDOCK:  -10.49 KCAL/MOL
REMARK 924 INTRA-LIGAND FREE ENERGY PREDICTED BY IDOCK:   -2.09 KCAL/MOL
REMARK 927      BINDING AFFINITY PREDICTED BY RF-SCORE:    0.00 PKD
ROOT
HETATM    1  C   UNL     1      -9.109   7.591  69.401  1.00  0.00    -0.142 C  
HETATM    2  C   UNL     1      -9.309   6.079  69.250  1.00  0.00    -0.146 C  
HETATM    3  C   UNL     1      -9.537   5.680  67.797  1.00  0.00    -0.128 C  
HETATM    4  C   UNL     1     -10.744   6.405  67.217  1.00  0.00    -0.426 C  
HETATM    5  C   UNL     1     -10.660   7.923  67.371  1.00  0.00    -0.342 C  
HETATM    6  C   UNL     1     -10.256   8.389  68.778  1.00  0.00    -0.223 C  
HETATM    7  C   UNL     1      -9.907   9.886  68.840  1.00  0.00    -0.176 C  
HETATM    8  N   UNL     1      -8.736  10.267  68.043  1.00  0.00    -0.122 NA 
HETATM    9  C   UNL     1      -7.591   9.343  68.140  1.00  0.00    -0.083 C  
HETATM   10  C   UNL     1      -7.717   8.022  68.922  1.00  0.00    -0.104 C  
ENDROOT
BRANCH   8  11
HETATM   11  C   UNL     1      -8.358  11.680  68.301  1.00  0.00    -0.159 C  
BRANCH  11  12
HETATM   12  C   UNL     1      -8.505  12.739  67.157  1.00  0.00    -0.181 C  
HETATM   13  H   UNL     1      -9.433  12.889  65.401  1.00  0.00     0.000 HD 
HETATM   14  O   UNL     1      -9.344  12.247  66.095  1.00  0.00    -0.230 OA 
BRANCH  12  15
HETATM   15  C   UNL     1      -8.983  14.135  67.640  1.00  0.00    -0.192 C  
BRANCH  15  16
HETATM   16  N   UNL     1      -9.911  14.075  68.776  1.00  0.00    -0.348 N  
HETATM   17  C   UNL     1     -11.265  14.292  68.659  1.00  0.00    -0.264 C  
HETATM   18  O   UNL     1     -11.835  14.566  67.609  1.00  0.00    -0.371 OA 
HETATM   19  H   UNL     1      -9.533  13.863  69.699  1.00  0.00     0.000 HD 
BRANCH  17  20
HETATM   20  C   UNL     1     -12.055  14.233  69.911  1.00  0.00    -0.404 A  
HETATM   21  C   UNL     1     -12.356  15.451  70.549  1.00  0.00    -0.452 A  
HETATM   22  H   UNL     1     -13.900  11.946  73.242  1.00  0.00     0.000 HD 
HETATM   23  C   UNL     1     -12.436  12.999  70.483  1.00  0.00    -0.306 A  
HETATM   24  C   UNL     1     -13.092  13.044  71.721  1.00  0.00    -0.373 A  
HETATM   25  C   UNL     1     -13.052  15.460  71.750  1.00  0.00    -0.529 A  
HETATM   26  C   UNL     1     -12.178  11.667  69.825  1.00  0.00    -0.285 C  
HETATM   27  O   UNL     1     -13.456  11.916  72.403  1.00  0.00    -0.355 OA 
HETATM   28  C   UNL     1     -13.414  14.252  72.338  1.00  0.00    -0.586 A  
ENDBRANCH  17  20
ENDBRANCH  15  16
BRANCH  15  29
HETATM   29  C   UNL     1      -7.816  15.141  67.868  1.00  0.00    -0.135 C  
BRANCH  29  30
HETATM   30  S   UNL     1      -8.115  16.430  69.133  1.00  0.00    -0.133 SA 
BRANCH  30  31
HETATM   31  C   UNL     1      -8.724  17.820  68.208  1.00  0.00    -0.277 A  
HETATM   32  C   UNL     1     -10.676  18.930  67.275  1.00  0.00    -0.523 A  
HETATM   33  C   UNL     1     -10.088  17.824  67.889  1.00  0.00    -0.342 A  
HETATM   34  C   UNL     1      -8.540  20.050  67.277  1.00  0.00    -0.399 A  
HETATM   35  C   UNL     1      -9.901  20.048  66.975  1.00  0.00    -0.566 A  
HETATM   36  C   UNL     1      -7.952  18.940  67.891  1.00  0.00    -0.297 A  
ENDBRANCH  30  31
ENDBRANCH  29  30
ENDBRANCH  15  29
ENDBRANCH  12  15
ENDBRANCH  11  12
ENDBRANCH   8  11
BRANCH   9  37
HETATM   37  C   UNL     1      -7.075   9.018  66.703  1.00  0.00    -0.081 C  
HETATM   38  C   UNL     1      -7.731   7.698  63.925  1.00  0.00    -0.126 C  
HETATM   39  O   UNL     1      -5.984   8.507  66.461  1.00  0.00    -0.050 OA 
HETATM   40  C   UNL     1      -8.916   9.852  63.528  1.00  0.00    -0.277 C  
HETATM   41  C   UNL     1      -7.739   9.194  64.269  1.00  0.00    -0.120 C  
HETATM   42  N   UNL     1      -7.954   9.410  65.706  1.00  0.00    -0.108 N  
HETATM   43  C   UNL     1      -6.435   9.846  63.787  1.00  0.00    -0.126 C  
HETATM   44  H   UNL     1      -8.813   9.880  65.991  1.00  0.00     0.000 HD 
ENDBRANCH   9  37
TORSDOF 9
ENDMDL
MODEL       41
REMARK 921   NORMALIZED FREE ENERGY PREDICTED BY IDOCK:   -6.36 KCAL/MOL
REMARK 922        TOTAL FREE ENERGY PREDICTED BY IDOCK:  -12.55 KCAL/MOL
REMARK 923 INTER-LIGAND FREE ENERGY PREDICTED BY IDOCK:  -10.11 KCAL/MOL
REMARK 924 INTRA-LIGAND FREE ENERGY PREDICTED BY IDOCK:   -2.43 KCAL/MOL
REMARK 927      BINDING AFFINITY PREDICTED BY RF-SCORE:    0.00 PKD
ROOT
HETATM    1  C   UNL     1      -8.947   8.167  67.500  1.00  0.00    -0.143 C  
HETATM    2  C   UNL     1      -8.649   6.672  67.652  1.00  0.00    -0.120 C  
HETATM    3  C   UNL     1      -8.500   6.270  69.114  1.00  0.00    -0.120 C  
HETATM    4  C   UNL     1      -7.395   7.071  69.789  1.00  0.00    -0.088 C  
HETATM    5  C   UNL     1      -7.578   8.581  69.643  1.00  0.00    -0.088 C  
HETATM    6  C   UNL     1      -7.910   9.038  68.213  1.00  0.00    -0.100 C  
HETATM    7  C   UNL     1      -8.362  10.506  68.140  1.00  0.00    -0.119 C  
HETATM    8  N   UNL     1      -9.613  10.791  68.850  1.00  0.00    -0.196 NA 
HETATM    9  C   UNL     1     -10.678   9.788  68.659  1.00  0.00    -0.216 C  
HETATM   10  C   UNL     1     -10.398   8.490  67.877  1.00  0.00    -0.281 C  
ENDROOT
BRANCH   8  11
HETATM   11  C   UNL     1     -10.073  12.176  68.578  1.00  0.00    -0.187 C  
BRANCH  11  12
HETATM   12  C   UNL     1     -11.600  12.457  68.379  1.00  0.00    -0.324 C  
HETATM   13  H   UNL     1     -13.142  13.060  69.486  1.00  0.00     0.000 HD 
HETATM   14  O   UNL     1     -12.216  12.890  69.607  1.00  0.00    -0.245 OA 
BRANCH  12  15
HETATM   15  C   UNL     1     -11.921  13.440  67.221  1.00  0.00    -0.347 C  
BRANCH  15  16
HETATM   16  N   UNL     1     -10.972  14.555  67.119  1.00  0.00    -0.296 N  
HETATM   17  C   UNL     1     -11.073  15.704  67.870  1.00  0.00    -0.324 C  
HETATM   18  O   UNL     1     -11.961  15.924  68.685  1.00  0.00    -0.338 OA 
HETATM   19  H   UNL     1     -10.199  14.475  66.459  1.00  0.00     0.000 HD 
BRANCH  17  20
HETATM   20  C   UNL     1     -10.054  16.751  67.617  1.00  0.00    -0.275 A  
HETATM   21  C   UNL     1     -10.377  17.765  66.698  1.00  0.00    -0.345 A  
HETATM   22  H   UNL     1      -5.936  18.356  68.059  1.00  0.00     0.000 HD 
HETATM   23  C   UNL     1      -8.780  16.698  68.225  1.00  0.00    -0.216 A  
HETATM   24  C   UNL     1      -7.851  17.676  67.845  1.00  0.00    -0.221 A  
HETATM   25  C   UNL     1      -9.448  18.747  66.383  1.00  0.00    -0.336 A  
HETATM   26  C   UNL     1      -8.393  15.660  69.249  1.00  0.00    -0.256 C  
HETATM   27  O   UNL     1      -6.567  17.694  68.316  1.00  0.00    -0.181 OA 
HETATM   28  C   UNL     1      -8.180  18.696  66.954  1.00  0.00    -0.268 A  
ENDBRANCH  17  20
ENDBRANCH  15  16
BRANCH  15  29
HETATM   29  C   UNL     1     -12.160  12.728  65.856  1.00  0.00    -0.426 C  
BRANCH  29  30
HETATM   30  S   UNL     1     -11.148  13.333  64.455  1.00  0.00    -0.390 SA 
BRANCH  30  31
HETATM   31  C   UNL     1     -10.159  11.932  63.991  1.00  0.00    -0.334 A  
HETATM   32  C   UNL     1      -9.436   9.685  64.574  1.00  0.00    -0.182 A  
HETATM   33  C   UNL     1     -10.086  10.873  64.906  1.00  0.00    -0.374 A  
HETATM   34  C   UNL     1      -8.908  10.594  62.404  1.00  0.00    -0.320 A  
HETATM   35  C   UNL     1      -8.852   9.543  63.318  1.00  0.00    -0.233 A  
HETATM   36  C   UNL     1      -9.560  11.785  62.739  1.00  0.00     0.072 A  
ENDBRANCH  30  31
ENDBRANCH  29  30
ENDBRANCH  15  29
ENDBRANCH  12  15
ENDBRANCH  11  12
ENDBRANCH   8  11
BRANCH   9  37
HETATM   37  C   UNL     1     -11.273   9.406  70.051  1.00  0.00    -0.190 C  
HETATM   38  C   UNL     1     -13.248   7.534  71.627  1.00  0.00    -0.404 C  
HETATM   39  O   UNL     1     -11.721  10.220  70.856  1.00  0.00    -0.333 OA 
HETATM   40  C   UNL     1     -11.363   5.916  71.458  1.00  0.00    -0.256 C  
HETATM   41  C   UNL     1     -11.721   7.410  71.539  1.00  0.00    -0.284 C  
HETATM   42  N   UNL     1     -11.204   8.049  70.321  1.00  0.00    -0.383 N  
HETATM   43  C   UNL     1     -11.078   7.997  72.804  1.00  0.00    -0.448 C  
HETATM   44  H   UNL     1     -10.763   7.450  69.623  1.00  0.00     0.000 HD 
ENDBRANCH   9  37
TORSDOF 9
ENDMDL
MODEL       42
REMARK 921   NORMALIZED FREE ENERGY PREDICTED BY IDOCK:   -6.36 KCAL/MOL
REMARK 922        TOTAL FREE ENERGY PREDICTED BY IDOCK:  -12.54 KCAL/MOL
REMARK 923 INTER-LIGAND FREE ENERGY PREDICTED BY IDOCK:   -9.68 KCAL/MOL
REMARK 924 INTRA-LIGAND FREE ENERGY PREDICTED BY IDOCK:   -2.86 KCAL/MOL
REMARK 927      BINDING AFFINITY PREDICTED BY RF-SCORE:    0.00 PKD
ROOT
HETATM    1  C   UNL     1     -10.188  14.298  65.753  1.00  0.00    -0.351 C  
HETATM    2  C   UNL     1     -11.213  15.007  64.860  1.00  0.00    -0.423 C  
HETATM    3  C   UNL     1     -12.632  14.524  65.132  1.00  0.00    -0.242 C  
HETATM    4  C   UNL     1     -12.744  13.020  64.925  1.00  0.00    -0.456 C  
HETATM    5  C   UNL     1     -11.721  12.227  65.738  1.00  0.00    -0.445 C  
HETATM    6  C   UNL     1     -10.288  12.775  65.648  1.00  0.00    -0.296 C  
HETATM    7  C   UNL     1      -9.336  12.145  66.679  1.00  0.00    -0.226 C  
HETATM    8  N   UNL     1      -9.685  12.428  68.076  1.00  0.00    -0.205 NA 
HETATM    9  C   UNL     1     -10.083  13.821  68.347  1.00  0.00    -0.241 C  
HETATM   10  C   UNL     1     -10.238  14.829  67.191  1.00  0.00    -0.245 C  
ENDROOT
BRANCH   8  11
HETATM   11  C   UNL     1      -8.622  11.944  68.994  1.00  0.00     0.291 C  
BRANCH  11  12
HETATM   12  C   UNL     1      -7.615  10.852  68.501  1.00  0.00    -0.111 C  
HETATM   13  H   UNL     1      -5.766  10.251  68.936  1.00  0.00     0.000 HD 
HETATM   14  O   UNL     1      -6.378  10.914  69.235  1.00  0.00    -0.052 OA 
BRANCH  12  15
HETATM   15  C   UNL     1      -8.189   9.410  68.503  1.00  0.00    -0.113 C  
BRANCH  15  16
HETATM   16  N   UNL     1      -9.528   9.313  69.098  1.00  0.00    -0.154 N  
HETATM   17  C   UNL     1      -9.748   8.986  70.416  1.00  0.00    -0.206 C  
HETATM   18  O   UNL     1      -8.862   8.732  71.224  1.00  0.00    -0.189 OA 
HETATM   19  H   UNL     1     -10.337   9.497  68.503  1.00  0.00     0.000 HD 
BRANCH  17  20
HETATM   20  C   UNL     1     -11.163   8.894  70.848  1.00  0.00    -0.334 A  
HETATM   21  C   UNL     1     -11.827  10.093  71.164  1.00  0.00    -0.472 A  
HETATM   22  H   UNL     1     -14.696   6.516  72.109  1.00  0.00     0.000 HD 
HETATM   23  C   UNL     1     -11.804   7.645  71.001  1.00  0.00    -0.306 A  
HETATM   24  C   UNL     1     -13.109   7.656  71.512  1.00  0.00    -0.338 A  
HETATM   25  C   UNL     1     -13.138  10.069  71.620  1.00  0.00    -0.547 A  
HETATM   26  C   UNL     1     -11.157   6.332  70.638  1.00  0.00    -0.389 C  
HETATM   27  O   UNL     1     -13.811   6.509  71.763  1.00  0.00    -0.076 OA 
HETATM   28  C   UNL     1     -13.776   8.846  71.799  1.00  0.00    -0.471 A  
ENDBRANCH  17  20
ENDBRANCH  15  16
BRANCH  15  29
HETATM   29  C   UNL     1      -8.096   8.707  67.116  1.00  0.00    -0.100 C  
BRANCH  29  30
HETATM   30  S   UNL     1      -6.683   9.208  66.065  1.00  0.00    -0.077 SA 
BRANCH  30  31
HETATM   31  C   UNL     1      -7.435   9.747  64.547  1.00  0.00    -0.135 A  
HETATM   32  C   UNL     1      -9.509  10.052  63.315  1.00  0.00    -0.230 A  
HETATM   33  C   UNL     1      -8.816   9.549  64.416  1.00  0.00    -0.251 A  
HETATM   34  C   UNL     1      -7.449  10.956  62.447  1.00  0.00    -0.096 A  
HETATM   35  C   UNL     1      -8.825  10.763  62.332  1.00  0.00    -0.341 A  
HETATM   36  C   UNL     1      -6.755  10.451  63.551  1.00  0.00    -0.028 A  
ENDBRANCH  30  31
ENDBRANCH  29  30
ENDBRANCH  15  29
ENDBRANCH  12  15
ENDBRANCH  11  12
ENDBRANCH   8  11
BRANCH   9  37
HETATM   37  C   UNL     1     -11.402  13.821  69.181  1.00  0.00    -0.281 C  
HETATM   38  C   UNL     1     -12.685  13.638  72.047  1.00  0.00    -0.296 C  
HETATM   39  O   UNL     1     -12.384  13.130  68.918  1.00  0.00    -0.147 OA 
HETATM   40  C   UNL     1     -12.065  16.047  72.142  1.00  0.00    -0.611 C  
HETATM   41  C   UNL     1     -12.474  14.901  71.201  1.00  0.00    -0.327 C  
HETATM   42  N   UNL     1     -11.382  14.720  70.235  1.00  0.00    -0.349 N  
HETATM   43  C   UNL     1     -13.788  15.287  70.507  1.00  0.00     0.183 C  
HETATM   44  H   UNL     1     -10.549  15.297  70.348  1.00  0.00     0.000 HD 
ENDBRANCH   9  37
TORSDOF 9
ENDMDL
MODEL       43
REMARK 921   NORMALIZED FREE ENERGY PREDICTED BY IDOCK:   -6.34 KCAL/MOL
REMARK 922        TOTAL FREE ENERGY PREDICTED BY IDOCK:  -12.52 KCAL/MOL
REMARK 923 INTER-LIGAND FREE ENERGY PREDICTED BY IDOCK:  -10.27 KCAL/MOL
REMARK 924 INTRA-LIGAND FREE ENERGY PREDICTED BY IDOCK:   -2.25 KCAL/MOL
REMARK 927      BINDING AFFINITY PREDICTED BY RF-SCORE:    0.00 PKD
ROOT
HETATM    1  C   UNL     1      -9.009  16.861  68.834  1.00  0.00    -0.215 C  
HETATM    2  C   UNL     1      -9.595  18.239  68.508  1.00  0.00    -0.358 C  
HETATM    3  C   UNL     1     -10.111  18.311  67.076  1.00  0.00    -0.370 C  
HETATM    4  C   UNL     1      -9.003  17.990  66.081  1.00  0.00    -0.117 C  
HETATM    5  C   UNL     1      -8.320  16.652  66.360  1.00  0.00    -0.353 C  
HETATM    6  C   UNL     1      -7.932  16.440  67.833  1.00  0.00    -0.161 C  
HETATM    7  C   UNL     1      -7.507  14.994  68.142  1.00  0.00    -0.112 C  
HETATM    8  N   UNL     1      -8.570  13.999  67.959  1.00  0.00    -0.169 NA 
HETATM    9  C   UNL     1      -9.891  14.398  68.479  1.00  0.00    -0.233 C  
HETATM   10  C   UNL     1     -10.115  15.817  69.036  1.00  0.00    -0.225 C  
ENDROOT
BRANCH   8  11
HETATM   11  C   UNL     1      -8.137  12.667  68.451  1.00  0.00    -0.137 C  
BRANCH  11  12
HETATM   12  C   UNL     1      -7.888  11.510  67.427  1.00  0.00    -0.143 C  
HETATM   13  H   UNL     1      -6.650  11.122  65.915  1.00  0.00     0.000 HD 
HETATM   14  O   UNL     1      -6.800  11.824  66.537  1.00  0.00    -0.043 OA 
BRANCH  12  15
HETATM   15  C   UNL     1      -7.687  10.115  68.078  1.00  0.00    -0.089 C  
BRANCH  15  16
HETATM   16  N   UNL     1      -8.748   9.752  69.025  1.00  0.00    -0.139 N  
HETATM   17  C   UNL     1      -8.541   9.621  70.379  1.00  0.00    -0.157 C  
HETATM   18  O   UNL     1      -7.459   9.778  70.933  1.00  0.00    -0.320 OA 
HETATM   19  H   UNL     1      -9.687   9.589  68.661  1.00  0.00     0.000 HD 
BRANCH  17  20
HETATM   20  C   UNL     1      -9.711   9.210  71.190  1.00  0.00    -0.360 A  
HETATM   21  C   UNL     1      -9.499   8.259  72.205  1.00  0.00    -0.328 A  
HETATM   22  H   UNL     1     -14.084   9.176  71.970  1.00  0.00     0.000 HD 
HETATM   23  C   UNL     1     -11.005   9.704  70.915  1.00  0.00    -0.412 A  
HETATM   24  C   UNL     1     -12.063   9.179  71.672  1.00  0.00    -0.362 A  
HETATM   25  C   UNL     1     -10.563   7.798  72.968  1.00  0.00    -0.441 A  
HETATM   26  C   UNL     1     -11.287  10.755  69.871  1.00  0.00    -0.385 C  
HETATM   27  O   UNL     1     -13.367   9.532  71.457  1.00  0.00    -0.369 OA 
HETATM   28  C   UNL     1     -11.848   8.257  72.694  1.00  0.00    -0.382 A  
ENDBRANCH  17  20
ENDBRANCH  15  16
BRANCH  15  29
HETATM   29  C   UNL     1      -7.392   8.988  67.044  1.00  0.00    -0.087 C  
BRANCH  29  30
HETATM   30  S   UNL     1      -8.861   8.202  66.284  1.00  0.00    -0.172 SA 
BRANCH  30  31
HETATM   31  C   UNL     1      -9.486   7.124  67.552  1.00  0.00    -0.124 A  
HETATM   32  C   UNL     1      -8.947   5.754  69.488  1.00  0.00    -0.130 A  
HETATM   33  C   UNL     1      -8.542   6.516  68.391  1.00  0.00    -0.119 A  
HETATM   34  C   UNL     1     -11.251   6.188  68.923  1.00  0.00    -0.338 A  
HETATM   35  C   UNL     1     -10.305   5.596  69.757  1.00  0.00    -0.352 A  
HETATM   36  C   UNL     1     -10.844   6.950  67.823  1.00  0.00    -0.312 A  
ENDBRANCH  30  31
ENDBRANCH  29  30
ENDBRANCH  15  29
ENDBRANCH  12  15
ENDBRANCH  11  12
ENDBRANCH   8  11
BRANCH   9  37
HETATM   37  C   UNL     1     -10.972  14.120  67.388  1.00  0.00    -0.299 C  
HETATM   38  C   UNL     1     -11.843  14.554  64.397  1.00  0.00    -0.419 C  
HETATM   39  O   UNL     1     -12.178  14.292  67.553  1.00  0.00    -0.354 OA 
HETATM   40  C   UNL     1     -10.261  12.676  63.986  1.00  0.00    -0.363 C  
HETATM   41  C   UNL     1     -11.229  13.289  65.012  1.00  0.00    -0.305 C  
HETATM   42  N   UNL     1     -10.444  13.608  66.214  1.00  0.00    -0.286 N  
HETATM   43  C   UNL     1     -12.334  12.267  65.312  1.00  0.00    -0.225 C  
HETATM   44  H   UNL     1      -9.439  13.441  66.180  1.00  0.00     0.000 HD 
ENDBRANCH   9  37
TORSDOF 9
ENDMDL
MODEL       44
REMARK 921   NORMALIZED FREE ENERGY PREDICTED BY IDOCK:   -6.33 KCAL/MOL
REMARK 922        TOTAL FREE ENERGY PREDICTED BY IDOCK:  -12.49 KCAL/MOL
REMARK 923 INTER-LIGAND FREE ENERGY PREDICTED BY IDOCK:  -10.28 KCAL/MOL
REMARK 924 INTRA-LIGAND FREE ENERGY PREDICTED BY IDOCK:   -2.21 KCAL/MOL
REMARK 927      BINDING AFFINITY PREDICTED BY RF-SCORE:    0.00 PKD
ROOT
HETATM    1  C   UNL     1     -11.436   6.174  72.383  1.00  0.00    -0.349 C  
HETATM    2  C   UNL     1     -11.446   4.848  73.151  1.00  0.00    -0.362 C  
HETATM    3  C   UNL     1     -10.172   4.046  72.914  1.00  0.00    -0.228 C  
HETATM    4  C   UNL     1      -9.977   3.763  71.430  1.00  0.00    -0.178 C  
HETATM    5  C   UNL     1     -10.007   5.027  70.572  1.00  0.00    -0.312 C  
HETATM    6  C   UNL     1     -11.177   5.973  70.889  1.00  0.00    -0.335 C  
HETATM    7  C   UNL     1     -11.034   7.352  70.221  1.00  0.00    -0.255 C  
HETATM    8  N   UNL     1      -9.879   8.130  70.681  1.00  0.00    -0.181 NA 
HETATM    9  C   UNL     1      -9.651   8.102  72.137  1.00  0.00    -0.242 C  
HETATM   10  C   UNL     1     -10.506   7.198  73.045  1.00  0.00    -0.331 C  
ENDROOT
BRANCH   8  11
HETATM   11  C   UNL     1      -9.917   9.509  70.131  1.00  0.00    -0.241 C  
BRANCH  11  12
HETATM   12  C   UNL     1      -9.066   9.858  68.865  1.00  0.00    -0.156 C  
HETATM   13  H   UNL     1      -8.422   8.932  67.222  1.00  0.00     0.000 HD 
HETATM   14  O   UNL     1      -8.939   8.720  67.991  1.00  0.00    -0.139 OA 
BRANCH  12  15
HETATM   15  C   UNL     1      -9.567  11.103  68.084  1.00  0.00    -0.179 C  
BRANCH  15  16
HETATM   16  N   UNL     1     -10.272  12.078  68.927  1.00  0.00    -0.407 N  
HETATM   17  C   UNL     1     -11.630  12.291  68.862  1.00  0.00    -0.316 C  
HETATM   18  O   UNL     1     -12.387  11.706  68.096  1.00  0.00    -0.429 OA 
HETATM   19  H   UNL     1      -9.727  12.625  69.593  1.00  0.00     0.000 HD 
BRANCH  17  20
HETATM   20  C   UNL     1     -12.178  13.339  69.755  1.00  0.00    -0.285 A  
HETATM   21  C   UNL     1     -12.044  14.678  69.346  1.00  0.00    -0.317 A  
HETATM   22  H   UNL     1     -13.934  14.620  73.629  1.00  0.00     0.000 HD 
HETATM   23  C   UNL     1     -12.754  13.014  71.003  1.00  0.00    -0.347 A  
HETATM   24  C   UNL     1     -13.151  14.081  71.820  1.00  0.00    -0.370 A  
HETATM   25  C   UNL     1     -12.494  15.708  70.160  1.00  0.00    -0.311 A  
HETATM   26  C   UNL     1     -12.962  11.596  71.475  1.00  0.00    -0.463 C  
HETATM   27  O   UNL     1     -13.665  13.897  73.075  1.00  0.00    -0.600 OA 
HETATM   28  C   UNL     1     -13.043  15.407  71.402  1.00  0.00    -0.563 A  
ENDBRANCH  17  20
ENDBRANCH  15  16
BRANCH  15  29
HETATM   29  C   UNL     1      -8.467  11.759  67.198  1.00  0.00    -0.170 C  
BRANCH  29  30
HETATM   30  S   UNL     1      -7.653  13.239  67.905  1.00  0.00    -0.171 SA 
BRANCH  30  31
HETATM   31  C   UNL     1      -8.766  14.573  67.530  1.00  0.00    -0.188 A  
HETATM   32  C   UNL     1      -9.386  16.879  67.988  1.00  0.00    -0.238 A  
HETATM   33  C   UNL     1      -8.640  15.741  68.294  1.00  0.00    -0.170 A  
HETATM   34  C   UNL     1     -10.408  15.700  66.150  1.00  0.00    -0.329 A  
HETATM   35  C   UNL     1     -10.266  16.860  66.909  1.00  0.00    -0.296 A  
HETATM   36  C   UNL     1      -9.660  14.559  66.458  1.00  0.00    -0.311 A  
ENDBRANCH  30  31
ENDBRANCH  29  30
ENDBRANCH  15  29
ENDBRANCH  12  15
ENDBRANCH  11  12
ENDBRANCH   8  11
BRANCH   9  37
HETATM   37  C   UNL     1      -8.145   7.793  72.411  1.00  0.00    -0.120 C  
HETATM   38  C   UNL     1      -5.268   7.498  71.174  1.00  0.00    -0.027 C  
HETATM   39  O   UNL     1      -7.746   6.828  73.059  1.00  0.00    -0.093 OA 
HETATM   40  C   UNL     1      -5.279   9.983  71.335  1.00  0.00    -0.077 C  
HETATM   41  C   UNL     1      -5.822   8.690  71.968  1.00  0.00    -0.058 C  
HETATM   42  N   UNL     1      -7.288   8.748  71.888  1.00  0.00    -0.061 N  
HETATM   43  C   UNL     1      -5.335   8.618  73.422  1.00  0.00    -0.075 C  
HETATM   44  H   UNL     1      -7.705   9.549  71.414  1.00  0.00     0.000 HD 
ENDBRANCH   9  37
TORSDOF 9
ENDMDL
MODEL       45
REMARK 921   NORMALIZED FREE ENERGY PREDICTED BY IDOCK:   -6.31 KCAL/MOL
REMARK 922        TOTAL FREE ENERGY PREDICTED BY IDOCK:  -12.47 KCAL/MOL
REMARK 923 INTER-LIGAND FREE ENERGY PREDICTED BY IDOCK:   -9.85 KCAL/MOL
REMARK 924 INTRA-LIGAND FREE ENERGY PREDICTED BY IDOCK:   -2.62 KCAL/MOL
REMARK 927      BINDING AFFINITY PREDICTED BY RF-SCORE:    0.00 PKD
ROOT
HETATM    1  C   UNL     1     -11.655  12.465  66.352  1.00  0.00    -0.442 C  
HETATM    2  C   UNL     1     -12.304  13.853  66.375  1.00  0.00    -0.468 C  
HETATM    3  C   UNL     1     -11.768  14.711  67.514  1.00  0.00    -0.403 C  
HETATM    4  C   UNL     1     -11.992  14.031  68.859  1.00  0.00    -0.387 C  
HETATM    5  C   UNL     1     -11.423  12.614  68.914  1.00  0.00    -0.354 C  
HETATM    6  C   UNL     1     -11.782  11.746  67.696  1.00  0.00    -0.320 C  
HETATM    7  C   UNL     1     -10.980  10.435  67.634  1.00  0.00    -0.312 C  
HETATM    8  N   UNL     1      -9.534  10.618  67.465  1.00  0.00    -0.153 NA 
HETATM    9  C   UNL     1      -9.149  11.645  66.480  1.00  0.00    -0.197 C  
HETATM   10  C   UNL     1     -10.220  12.527  65.811  1.00  0.00    -0.289 C  
ENDROOT
BRANCH   8  11
HETATM   11  C   UNL     1      -8.861   9.315  67.230  1.00  0.00    -0.124 C  
BRANCH  11  12
HETATM   12  C   UNL     1      -8.052   8.644  68.390  1.00  0.00    -0.118 C  
HETATM   13  H   UNL     1      -6.518   9.107  69.574  1.00  0.00     0.000 HD 
HETATM   14  O   UNL     1      -7.009   9.513  68.870  1.00  0.00    -0.061 OA 
BRANCH  12  15
HETATM   15  C   UNL     1      -8.930   8.131  69.563  1.00  0.00    -0.151 C  
BRANCH  15  16
HETATM   16  N   UNL     1      -8.866   6.676  69.749  1.00  0.00    -0.143 N  
HETATM   17  C   UNL     1      -9.932   5.837  69.519  1.00  0.00    -0.191 C  
HETATM   18  O   UNL     1     -11.040   6.209  69.152  1.00  0.00    -0.350 OA 
HETATM   19  H   UNL     1      -7.986   6.266  70.064  1.00  0.00     0.000 HD 
BRANCH  17  20
HETATM   20  C   UNL     1      -9.712   4.397  69.793  1.00  0.00    -0.291 A  
HETATM   21  C   UNL     1      -9.387   3.570  68.702  1.00  0.00    -0.230 A  
HETATM   22  H   UNL     1      -9.870   0.884  72.506  1.00  0.00     0.000 HD 
HETATM   23  C   UNL     1      -9.885   3.860  71.087  1.00  0.00    -0.223 A  
HETATM   24  C   UNL     1      -9.754   2.470  71.224  1.00  0.00    -0.131 A  
HETATM   25  C   UNL     1      -9.214   2.204  68.885  1.00  0.00    -0.215 A  
HETATM   26  C   UNL     1     -10.191   4.702  72.300  1.00  0.00    -0.256 C  
HETATM   27  O   UNL     1      -9.959   1.826  72.413  1.00  0.00    -0.110 OA 
HETATM   28  C   UNL     1      -9.405   1.655  70.149  1.00  0.00    -0.165 A  
ENDBRANCH  17  20
ENDBRANCH  15  16
BRANCH  15  29
HETATM   29  C   UNL     1      -8.707   8.916  70.890  1.00  0.00    -0.210 C  
BRANCH  29  30
HETATM   30  S   UNL     1      -9.722   8.375  72.314  1.00  0.00    -0.321 SA 
BRANCH  30  31
HETATM   31  C   UNL     1     -11.397   8.663  71.793  1.00  0.00    -0.323 A  
HETATM   32  C   UNL     1     -13.676   7.815  71.751  1.00  0.00    -0.410 A  
HETATM   33  C   UNL     1     -12.318   7.630  72.015  1.00  0.00    -0.312 A  
HETATM   34  C   UNL     1     -13.217  10.069  71.030  1.00  0.00    -0.399 A  
HETATM   35  C   UNL     1     -14.126   9.040  71.265  1.00  0.00    -0.164 A  
HETATM   36  C   UNL     1     -11.856   9.883  71.293  1.00  0.00    -0.479 A  
ENDBRANCH  30  31
ENDBRANCH  29  30
ENDBRANCH  15  29
ENDBRANCH  12  15
ENDBRANCH  11  12
ENDBRANCH   8  11
BRANCH   9  37
HETATM   37  C   UNL     1      -8.068  12.577  67.114  1.00  0.00    -0.156 C  
HETATM   38  C   UNL     1      -6.991  15.518  67.397  1.00  0.00    -0.232 C  
HETATM   39  O   UNL     1      -6.860  12.352  67.082  1.00  0.00    -0.142 OA 
HETATM   40  C   UNL     1      -8.817  15.698  69.080  1.00  0.00    -0.243 C  
HETATM   41  C   UNL     1      -7.821  14.730  68.419  1.00  0.00    -0.128 C  
HETATM   42  N   UNL     1      -8.607  13.674  67.766  1.00  0.00    -0.168 N  
HETATM   43  C   UNL     1      -6.900  14.160  69.507  1.00  0.00    -0.084 C  
HETATM   44  H   UNL     1      -9.623  13.755  67.795  1.00  0.00     0.000 HD 
ENDBRANCH   9  37
TORSDOF 9
ENDMDL
MODEL       46
REMARK 921   NORMALIZED FREE ENERGY PREDICTED BY IDOCK:   -6.31 KCAL/MOL
REMARK 922        TOTAL FREE ENERGY PREDICTED BY IDOCK:  -12.47 KCAL/MOL
REMARK 923 INTER-LIGAND FREE ENERGY PREDICTED BY IDOCK:   -9.94 KCAL/MOL
REMARK 924 INTRA-LIGAND FREE ENERGY PREDICTED BY IDOCK:   -2.53 KCAL/MOL
REMARK 927      BINDING AFFINITY PREDICTED BY RF-SCORE:    0.00 PKD
ROOT
HETATM    1  C   UNL     1      -8.949  15.824  68.856  1.00  0.00    -0.226 C  
HETATM    2  C   UNL     1      -9.921  17.008  68.813  1.00  0.00    -0.293 C  
HETATM    3  C   UNL     1     -10.527  17.193  67.427  1.00  0.00    -0.334 C  
HETATM    4  C   UNL     1      -9.440  17.400  66.381  1.00  0.00    -0.279 C  
HETATM    5  C   UNL     1      -8.388  16.292  66.386  1.00  0.00    -0.365 C  
HETATM    6  C   UNL     1      -7.863  15.930  67.784  1.00  0.00    -0.153 C  
HETATM    7  C   UNL     1      -7.026  14.639  67.798  1.00  0.00    -0.177 C  
HETATM    8  N   UNL     1      -7.772  13.431  67.430  1.00  0.00    -0.159 NA 
HETATM    9  C   UNL     1      -9.115  13.324  68.027  1.00  0.00    -0.202 C  
HETATM   10  C   UNL     1      -9.698  14.485  68.856  1.00  0.00    -0.169 C  
ENDROOT
BRANCH   8  11
HETATM   11  C   UNL     1      -6.947  12.215  67.646  1.00  0.00    -0.121 C  
BRANCH  11  12
HETATM   12  C   UNL     1      -7.309  10.894  66.889  1.00  0.00    -0.128 C  
HETATM   13  H   UNL     1      -6.776   9.967  65.208  1.00  0.00     0.000 HD 
HETATM   14  O   UNL     1      -6.557  10.769  65.667  1.00  0.00    -0.106 OA 
BRANCH  12  15
HETATM   15  C   UNL     1      -7.182   9.610  67.752  1.00  0.00    -0.085 C  
BRANCH  15  16
HETATM   16  N   UNL     1      -8.353   9.357  68.601  1.00  0.00    -0.116 N  
HETATM   17  C   UNL     1      -8.399   9.672  69.940  1.00  0.00    -0.183 C  
HETATM   18  O   UNL     1      -7.475  10.181  70.564  1.00  0.00    -0.281 OA 
HETATM   19  H   UNL     1      -9.174   8.925  68.177  1.00  0.00     0.000 HD 
BRANCH  17  20
HETATM   20  C   UNL     1      -9.643   9.315  70.661  1.00  0.00    -0.334 A  
HETATM   21  C   UNL     1     -10.852   9.846  70.177  1.00  0.00    -0.356 A  
HETATM   22  H   UNL     1     -11.743   7.500  74.129  1.00  0.00     0.000 HD 
HETATM   23  C   UNL     1      -9.612   8.526  71.832  1.00  0.00    -0.353 A  
HETATM   24  C   UNL     1     -10.829   8.328  72.500  1.00  0.00    -0.351 A  
HETATM   25  C   UNL     1     -12.046   9.588  70.837  1.00  0.00    -0.357 A  
HETATM   26  C   UNL     1      -8.354   7.896  72.374  1.00  0.00    -0.183 C  
HETATM   27  O   UNL     1     -10.919   7.634  73.676  1.00  0.00    -0.301 OA 
HETATM   28  C   UNL     1     -12.030   8.831  72.004  1.00  0.00    -0.446 A  
ENDBRANCH  17  20
ENDBRANCH  15  16
BRANCH  15  29
HETATM   29  C   UNL     1      -6.751   8.356  66.934  1.00  0.00    -0.062 C  
BRANCH  29  30
HETATM   30  S   UNL     1      -8.094   7.485  66.046  1.00  0.00    -0.130 SA 
BRANCH  30  31
HETATM   31  C   UNL     1      -9.074   6.759  67.339  1.00  0.00    -0.117 A  
HETATM   32  C   UNL     1      -9.063   5.576  69.463  1.00  0.00    -0.143 A  
HETATM   33  C   UNL     1      -8.387   6.070  68.347  1.00  0.00    -0.113 A  
HETATM   34  C   UNL     1     -11.132   6.443  68.579  1.00  0.00    -0.385 A  
HETATM   35  C   UNL     1     -10.437   5.769  69.582  1.00  0.00    -0.363 A  
HETATM   36  C   UNL     1     -10.454   6.937  67.461  1.00  0.00    -0.314 A  
ENDBRANCH  30  31
ENDBRANCH  29  30
ENDBRANCH  15  29
ENDBRANCH  12  15
ENDBRANCH  11  12
ENDBRANCH   8  11
BRANCH   9  37
HETATM   37  C   UNL     1     -10.141  12.952  66.910  1.00  0.00    -0.241 C  
HETATM   38  C   UNL     1     -12.866  13.673  65.516  1.00  0.00    -0.443 C  
HETATM   39  O   UNL     1     -10.578  11.818  66.725  1.00  0.00    -0.221 OA 
HETATM   40  C   UNL     1     -11.462  15.353  64.331  1.00  0.00    -0.260 C  
HETATM   41  C   UNL     1     -11.451  13.968  65.000  1.00  0.00    -0.344 C  
HETATM   42  N   UNL     1     -10.482  14.026  66.104  1.00  0.00    -0.290 N  
HETATM   43  C   UNL     1     -11.052  12.922  63.949  1.00  0.00    -0.454 C  
HETATM   44  H   UNL     1     -10.029  14.920  66.290  1.00  0.00     0.000 HD 
ENDBRANCH   9  37
TORSDOF 9
ENDMDL
MODEL       47
REMARK 921   NORMALIZED FREE ENERGY PREDICTED BY IDOCK:   -6.30 KCAL/MOL
REMARK 922        TOTAL FREE ENERGY PREDICTED BY IDOCK:  -12.45 KCAL/MOL
REMARK 923 INTER-LIGAND FREE ENERGY PREDICTED BY IDOCK:  -11.02 KCAL/MOL
REMARK 924 INTRA-LIGAND FREE ENERGY PREDICTED BY IDOCK:   -1.43 KCAL/MOL
REMARK 927      BINDING AFFINITY PREDICTED BY RF-SCORE:    0.00 PKD
ROOT
HETATM    1  C   UNL     1     -10.497  17.684  66.467  1.00  0.00    -0.283 C  
HETATM    2  C   UNL     1     -10.508  19.155  66.037  1.00  0.00    -0.546 C  
HETATM    3  C   UNL     1      -9.606  20.010  66.918  1.00  0.00    -0.541 C  
HETATM    4  C   UNL     1     -10.024  19.914  68.379  1.00  0.00    -0.531 C  
HETATM    5  C   UNL     1     -10.095  18.474  68.886  1.00  0.00    -0.348 C  
HETATM    6  C   UNL     1     -10.843  17.514  67.948  1.00  0.00    -0.255 C  
HETATM    7  C   UNL     1     -10.665  16.035  68.331  1.00  0.00    -0.289 C  
HETATM    8  N   UNL     1      -9.285  15.547  68.231  1.00  0.00    -0.185 NA 
HETATM    9  C   UNL     1      -8.557  15.983  67.025  1.00  0.00    -0.210 C  
HETATM   10  C   UNL     1      -9.197  16.987  66.047  1.00  0.00    -0.177 C  
ENDROOT
BRANCH   8  11
HETATM   11  C   UNL     1      -9.228  14.077  68.437  1.00  0.00    -0.196 C  
BRANCH  11  12
HETATM   12  C   UNL     1     -10.344  13.169  67.822  1.00  0.00    -0.230 C  
HETATM   13  H   UNL     1     -11.344  13.024  66.105  1.00  0.00     0.000 HD 
HETATM   14  O   UNL     1     -10.667  13.575  66.479  1.00  0.00    -0.284 OA 
BRANCH  12  15
HETATM   15  C   UNL     1     -10.033  11.649  67.882  1.00  0.00    -0.182 C  
BRANCH  15  16
HETATM   16  N   UNL     1     -10.908  10.907  68.798  1.00  0.00    -0.192 N  
HETATM   17  C   UNL     1     -10.442  10.194  69.878  1.00  0.00    -0.275 C  
HETATM   18  O   UNL     1      -9.259  10.091  70.182  1.00  0.00    -0.189 OA 
HETATM   19  H   UNL     1     -11.913  10.922  68.625  1.00  0.00     0.000 HD 
BRANCH  17  20
HETATM   20  C   UNL     1     -11.456   9.470  70.680  1.00  0.00    -0.362 A  
HETATM   21  C   UNL     1     -12.535  10.214  71.191  1.00  0.00    -0.490 A  
HETATM   22  H   UNL     1     -12.853   5.835  72.816  1.00  0.00     0.000 HD 
HETATM   23  C   UNL     1     -11.313   8.097  70.979  1.00  0.00    -0.293 A  
HETATM   24  C   UNL     1     -12.270   7.525  71.829  1.00  0.00    -0.314 A  
HETATM   25  C   UNL     1     -13.492   9.603  71.989  1.00  0.00    -0.514 A  
HETATM   26  C   UNL     1     -10.202   7.240  70.425  1.00  0.00    -0.200 C  
HETATM   27  O   UNL     1     -12.205   6.222  72.240  1.00  0.00    -0.286 OA 
HETATM   28  C   UNL     1     -13.354   8.257  72.312  1.00  0.00    -0.239 A  
ENDBRANCH  17  20
ENDBRANCH  15  16
BRANCH  15  29
HETATM   29  C   UNL     1      -9.932  10.984  66.476  1.00  0.00    -0.212 C  
BRANCH  29  30
HETATM   30  S   UNL     1      -8.555   9.798  66.256  1.00  0.00    -0.129 SA 
BRANCH  30  31
HETATM   31  C   UNL     1      -9.325   8.202  66.397  1.00  0.00    -0.210 A  
HETATM   32  C   UNL     1      -9.006   5.792  66.357  1.00  0.00    -0.139 A  
HETATM   33  C   UNL     1      -8.519   7.082  66.149  1.00  0.00    -0.136 A  
HETATM   34  C   UNL     1     -11.120   6.715  67.057  1.00  0.00    -0.395 A  
HETATM   35  C   UNL     1     -10.307   5.609  66.819  1.00  0.00    -0.316 A  
HETATM   36  C   UNL     1     -10.632   8.008  66.847  1.00  0.00    -0.324 A  
ENDBRANCH  30  31
ENDBRANCH  29  30
ENDBRANCH  15  29
ENDBRANCH  12  15
ENDBRANCH  11  12
ENDBRANCH   8  11
BRANCH   9  37
HETATM   37  C   UNL     1      -7.156  16.528  67.446  1.00  0.00    -0.154 C  
HETATM   38  C   UNL     1      -5.266  19.036  67.608  1.00  0.00    -0.173 C  
HETATM   39  O   UNL     1      -6.090  15.996  67.143  1.00  0.00    -0.290 OA 
HETATM   40  C   UNL     1      -6.598  19.524  69.654  1.00  0.00    -0.337 C  
HETATM   41  C   UNL     1      -6.063  18.398  68.753  1.00  0.00    -0.207 C  
HETATM   42  N   UNL     1      -7.227  17.658  68.244  1.00  0.00    -0.218 N  
HETATM   43  C   UNL     1      -5.142  17.499  69.591  1.00  0.00    -0.170 C  
HETATM   44  H   UNL     1      -8.153  18.002  68.497  1.00  0.00     0.000 HD 
ENDBRANCH   9  37
TORSDOF 9
ENDMDL
MODEL       48
REMARK 921   NORMALIZED FREE ENERGY PREDICTED BY IDOCK:   -6.30 KCAL/MOL
REMARK 922        TOTAL FREE ENERGY PREDICTED BY IDOCK:  -12.45 KCAL/MOL
REMARK 923 INTER-LIGAND FREE ENERGY PREDICTED BY IDOCK:  -10.21 KCAL/MOL
REMARK 924 INTRA-LIGAND FREE ENERGY PREDICTED BY IDOCK:   -2.24 KCAL/MOL
REMARK 927      BINDING AFFINITY PREDICTED BY RF-SCORE:    0.00 PKD
ROOT
HETATM    1  C   UNL     1      -9.214  10.265  65.088  1.00  0.00    -0.252 C  
HETATM    2  C   UNL     1      -9.539  10.788  63.685  1.00  0.00    -0.347 C  
HETATM    3  C   UNL     1     -10.254  12.132  63.733  1.00  0.00    -0.449 C  
HETATM    4  C   UNL     1     -11.541  12.035  64.542  1.00  0.00    -0.387 C  
HETATM    5  C   UNL     1     -11.324  11.469  65.945  1.00  0.00    -0.174 C  
HETATM    6  C   UNL     1     -10.453  10.203  65.983  1.00  0.00    -0.165 C  
HETATM    7  C   UNL     1     -10.017   9.814  67.406  1.00  0.00    -0.191 C  
HETATM    8  N   UNL     1      -9.153  10.799  68.064  1.00  0.00    -0.146 NA 
HETATM    9  C   UNL     1      -8.095  11.368  67.209  1.00  0.00    -0.148 C  
HETATM   10  C   UNL     1      -8.034  11.023  65.709  1.00  0.00    -0.013 C  
ENDROOT
BRANCH   8  11
HETATM   11  C   UNL     1      -8.631  10.269  69.349  1.00  0.00    -0.156 C  
BRANCH  11  12
HETATM   12  C   UNL     1      -9.375   9.087  70.055  1.00  0.00    -0.183 C  
HETATM   13  H   UNL     1      -8.921   7.589  71.288  1.00  0.00     0.000 HD 
HETATM   14  O   UNL     1      -8.470   8.306  70.859  1.00  0.00    -0.118 OA 
BRANCH  12  15
HETATM   15  C   UNL     1     -10.617   9.519  70.880  1.00  0.00    -0.325 C  
BRANCH  15  16
HETATM   16  N   UNL     1     -10.935  10.947  70.756  1.00  0.00    -0.085 N  
HETATM   17  C   UNL     1     -11.996  11.425  70.022  1.00  0.00    -0.363 C  
HETATM   18  O   UNL     1     -12.775  10.720  69.391  1.00  0.00    -0.261 OA 
HETATM   19  H   UNL     1     -10.338  11.619  71.238  1.00  0.00     0.000 HD 
BRANCH  17  20
HETATM   20  C   UNL     1     -12.154  12.897  69.969  1.00  0.00    -0.357 A  
HETATM   21  C   UNL     1     -11.595  13.572  68.869  1.00  0.00    -0.364 A  
HETATM   22  H   UNL     1     -13.324  16.753  71.837  1.00  0.00     0.000 HD 
HETATM   23  C   UNL     1     -12.783  13.607  71.015  1.00  0.00    -0.408 A  
HETATM   24  C   UNL     1     -12.793  15.006  70.922  1.00  0.00    -0.391 A  
HETATM   25  C   UNL     1     -11.667  14.956  68.785  1.00  0.00    -0.353 A  
HETATM   26  C   UNL     1     -13.437  12.935  72.196  1.00  0.00    -0.619 C  
HETATM   27  O   UNL     1     -13.318  15.806  71.900  1.00  0.00    -0.470 OA 
HETATM   28  C   UNL     1     -12.263  15.672  69.818  1.00  0.00    -0.293 A  
ENDBRANCH  17  20
ENDBRANCH  15  16
BRANCH  15  29
HETATM   29  C   UNL     1     -11.858   8.605  70.650  1.00  0.00    -0.102 C  
BRANCH  29  30
HETATM   30  S   UNL     1     -11.869   7.029  71.583  1.00  0.00    -0.332 SA 
BRANCH  30  31
HETATM   31  C   UNL     1     -10.960   5.903  70.551  1.00  0.00    -0.292 A  
HETATM   32  C   UNL     1     -10.300   5.321  68.285  1.00  0.00    -0.181 A  
HETATM   33  C   UNL     1     -11.073   6.077  69.165  1.00  0.00    -0.405 A  
HETATM   34  C   UNL     1      -9.289   4.192  70.160  1.00  0.00    -0.234 A  
HETATM   35  C   UNL     1      -9.401   4.381  68.784  1.00  0.00    -0.213 A  
HETATM   36  C   UNL     1     -10.065   4.950  71.042  1.00  0.00    -0.288 A  
ENDBRANCH  30  31
ENDBRANCH  29  30
ENDBRANCH  15  29
ENDBRANCH  12  15
ENDBRANCH  11  12
ENDBRANCH   8  11
BRANCH   9  37
HETATM   37  C   UNL     1      -8.100  12.922  67.358  1.00  0.00    -0.181 C  
HETATM   38  C   UNL     1      -8.140  15.359  69.346  1.00  0.00    -0.249 C  
HETATM   39  O   UNL     1      -8.855  13.671  66.742  1.00  0.00    -0.214 OA 
HETATM   40  C   UNL     1      -5.703  14.876  69.503  1.00  0.00    -0.099 C  
HETATM   41  C   UNL     1      -6.931  14.803  68.580  1.00  0.00    -0.110 C  
HETATM   42  N   UNL     1      -7.128  13.390  68.227  1.00  0.00    -0.097 N  
HETATM   43  C   UNL     1      -6.660  15.666  67.339  1.00  0.00    -0.194 C  
HETATM   44  H   UNL     1      -6.504  12.705  68.653  1.00  0.00     0.000 HD 
ENDBRANCH   9  37
TORSDOF 9
ENDMDL
MODEL       49
REMARK 921   NORMALIZED FREE ENERGY PREDICTED BY IDOCK:   -6.30 KCAL/MOL
REMARK 922        TOTAL FREE ENERGY PREDICTED BY IDOCK:  -12.45 KCAL/MOL
REMARK 923 INTER-LIGAND FREE ENERGY PREDICTED BY IDOCK:  -10.60 KCAL/MOL
REMARK 924 INTRA-LIGAND FREE ENERGY PREDICTED BY IDOCK:   -1.85 KCAL/MOL
REMARK 927      BINDING AFFINITY PREDICTED BY RF-SCORE:    0.00 PKD
ROOT
HETATM    1  C   UNL     1     -10.431  16.995  66.199  1.00  0.00    -0.274 C  
HETATM    2  C   UNL     1     -10.455  18.494  65.880  1.00  0.00    -0.379 C  
HETATM    3  C   UNL     1      -9.655  19.303  66.894  1.00  0.00    -0.398 C  
HETATM    4  C   UNL     1     -10.184  19.083  68.304  1.00  0.00    -0.460 C  
HETATM    5  C   UNL     1     -10.249  17.607  68.695  1.00  0.00    -0.377 C  
HETATM    6  C   UNL     1     -10.889  16.703  67.630  1.00  0.00    -0.258 C  
HETATM    7  C   UNL     1     -10.693  15.204  67.915  1.00  0.00    -0.268 C  
HETATM    8  N   UNL     1      -9.295  14.762  67.893  1.00  0.00    -0.190 NA 
HETATM    9  C   UNL     1      -8.488  15.308  66.786  1.00  0.00    -0.255 C  
HETATM   10  C   UNL     1      -9.079  16.367  65.836  1.00  0.00    -0.217 C  
ENDROOT
BRANCH   8  11
HETATM   11  C   UNL     1      -9.206  13.283  67.992  1.00  0.00    -0.217 C  
BRANCH  11  12
HETATM   12  C   UNL     1     -10.371  12.401  67.431  1.00  0.00    -0.207 C  
HETATM   13  H   UNL     1     -10.832  11.483  65.724  1.00  0.00     0.000 HD 
HETATM   14  O   UNL     1     -10.125  12.017  66.065  1.00  0.00    -0.219 OA 
BRANCH  12  15
HETATM   15  C   UNL     1     -10.709  11.162  68.303  1.00  0.00    -0.196 C  
BRANCH  15  16
HETATM   16  N   UNL     1      -9.658  10.823  69.271  1.00  0.00    -0.385 N  
HETATM   17  C   UNL     1      -8.799   9.760  69.114  1.00  0.00    -0.160 C  
HETATM   18  O   UNL     1      -8.825   8.983  68.167  1.00  0.00    -0.133 OA 
HETATM   19  H   UNL     1      -9.561  11.406  70.103  1.00  0.00     0.000 HD 
BRANCH  17  20
HETATM   20  C   UNL     1      -7.821   9.534  70.204  1.00  0.00    -0.168 A  
HETATM   21  C   UNL     1      -6.508   9.998  70.006  1.00  0.00    -0.092 A  
HETATM   22  H   UNL     1      -6.660   7.666  74.063  1.00  0.00     0.000 HD 
HETATM   23  C   UNL     1      -8.172   8.820  71.370  1.00  0.00    -0.203 A  
HETATM   24  C   UNL     1      -7.151   8.569  72.297  1.00  0.00    -0.064 A  
HETATM   25  C   UNL     1      -5.533   9.775  70.970  1.00  0.00    -0.067 A  
HETATM   26  C   UNL     1      -9.572   8.336  71.655  1.00  0.00    -0.261 C  
HETATM   27  O   UNL     1      -7.352   7.836  73.435  1.00  0.00    -0.092 OA 
HETATM   28  C   UNL     1      -5.857   9.054  72.114  1.00  0.00    -0.072 A  
ENDBRANCH  17  20
ENDBRANCH  15  16
BRANCH  15  29
HETATM   29  C   UNL     1     -12.124  11.230  68.950  1.00  0.00    -0.224 C  
BRANCH  29  30
HETATM   30  S   UNL     1     -12.162  11.226  70.781  1.00  0.00    -0.355 SA 
BRANCH  30  31
HETATM   31  C   UNL     1     -12.695  12.865  71.212  1.00  0.00    -0.278 A  
HETATM   32  C   UNL     1     -12.638  15.227  70.635  1.00  0.00    -0.471 A  
HETATM   33  C   UNL     1     -12.181  13.923  70.449  1.00  0.00    -0.438 A  
HETATM   34  C   UNL     1     -14.130  14.444  72.360  1.00  0.00    -0.544 A  
HETATM   35  C   UNL     1     -13.620  15.487  71.588  1.00  0.00    -0.575 A  
HETATM   36  C   UNL     1     -13.670  13.137  72.173  1.00  0.00    -0.588 A  
ENDBRANCH  30  31
ENDBRANCH  29  30
ENDBRANCH  15  29
ENDBRANCH  12  15
ENDBRANCH  11  12
ENDBRANCH   8  11
BRANCH   9  37
HETATM   37  C   UNL     1      -7.143  15.856  67.360  1.00  0.00    -0.197 C  
HETATM   38  C   UNL     1      -5.190  18.314  67.554  1.00  0.00    -0.139 C  
HETATM   39  O   UNL     1      -6.068  15.265  67.280  1.00  0.00    -0.325 OA 
HETATM   40  C   UNL     1      -6.791  19.055  69.310  1.00  0.00    -0.318 C  
HETATM   41  C   UNL     1      -6.178  17.824  68.622  1.00  0.00    -0.196 C  
HETATM   42  N   UNL     1      -7.283  17.067  68.018  1.00  0.00    -0.164 N  
HETATM   43  C   UNL     1      -5.433  16.996  69.678  1.00  0.00    -0.180 C  
HETATM   44  H   UNL     1      -8.221  17.461  68.089  1.00  0.00     0.000 HD 
ENDBRANCH   9  37
TORSDOF 9
ENDMDL
MODEL       50
REMARK 921   NORMALIZED FREE ENERGY PREDICTED BY IDOCK:   -6.30 KCAL/MOL
REMARK 922        TOTAL FREE ENERGY PREDICTED BY IDOCK:  -12.45 KCAL/MOL
REMARK 923 INTER-LIGAND FREE ENERGY PREDICTED BY IDOCK:  -10.12 KCAL/MOL
REMARK 924 INTRA-LIGAND FREE ENERGY PREDICTED BY IDOCK:   -2.33 KCAL/MOL
REMARK 927      BINDING AFFINITY PREDICTED BY RF-SCORE:    0.00 PKD
ROOT
HETATM    1  C   UNL     1      -9.590  17.330  68.877  1.00  0.00    -0.229 C  
HETATM    2  C   UNL     1     -10.229  18.673  68.508  1.00  0.00    -0.398 C  
HETATM    3  C   UNL     1     -10.648  18.718  67.044  1.00  0.00    -0.483 C  
HETATM    4  C   UNL     1      -9.457  18.462  66.129  1.00  0.00    -0.164 C  
HETATM    5  C   UNL     1      -8.720  17.164  66.458  1.00  0.00    -0.293 C  
HETATM    6  C   UNL     1      -8.424  16.972  67.954  1.00  0.00    -0.209 C  
HETATM    7  C   UNL     1      -7.940  15.552  68.295  1.00  0.00    -0.132 C  
HETATM    8  N   UNL     1      -8.929  14.499  68.041  1.00  0.00    -0.174 NA 
HETATM    9  C   UNL     1     -10.303  14.822  68.467  1.00  0.00    -0.237 C  
HETATM   10  C   UNL     1     -10.646  16.224  69.005  1.00  0.00    -0.286 C  
ENDROOT
BRANCH   8  11
HETATM   11  C   UNL     1      -8.456  13.192  68.565  1.00  0.00    -0.058 C  
BRANCH  11  12
HETATM   12  C   UNL     1      -7.868  12.132  67.576  1.00  0.00    -0.162 C  
HETATM   13  H   UNL     1      -6.233  11.909  66.460  1.00  0.00     0.000 HD 
HETATM   14  O   UNL     1      -6.590  12.552  67.060  1.00  0.00    -0.112 OA 
BRANCH  12  15
HETATM   15  C   UNL     1      -7.786  10.695  68.157  1.00  0.00    -0.110 C  
BRANCH  15  16
HETATM   16  N   UNL     1      -9.037  10.243  68.780  1.00  0.00    -0.151 N  
HETATM   17  C   UNL     1      -9.105   9.728  70.054  1.00  0.00    -0.223 C  
HETATM   18  O   UNL     1      -8.139   9.581  70.794  1.00  0.00    -0.248 OA 
HETATM   19  H   UNL     1      -9.900  10.315  68.240  1.00  0.00     0.000 HD 
BRANCH  17  20
HETATM   20  C   UNL     1     -10.440   9.283  70.517  1.00  0.00    -0.312 A  
HETATM   21  C   UNL     1     -11.435  10.265  70.675  1.00  0.00    -0.435 A  
HETATM   22  H   UNL     1     -13.149   6.166  72.152  1.00  0.00     0.000 HD 
HETATM   23  C   UNL     1     -10.689   7.934  70.852  1.00  0.00    -0.234 A  
HETATM   24  C   UNL     1     -11.953   7.629  71.377  1.00  0.00    -0.310 A  
HETATM   25  C   UNL     1     -12.693   9.918  71.151  1.00  0.00    -0.462 A  
HETATM   26  C   UNL     1      -9.676   6.833  70.664  1.00  0.00    -0.180 C  
HETATM   27  O   UNL     1     -12.293   6.372  71.796  1.00  0.00    -0.333 OA 
HETATM   28  C   UNL     1     -12.947   8.598  71.508  1.00  0.00    -0.344 A  
ENDBRANCH  17  20
ENDBRANCH  15  16
BRANCH  15  29
HETATM   29  C   UNL     1      -7.204   9.656  67.154  1.00  0.00    -0.087 C  
BRANCH  29  30
HETATM   30  S   UNL     1      -8.366   9.049  65.875  1.00  0.00    -0.131 SA 
BRANCH  30  31
HETATM   31  C   UNL     1      -9.028   7.549  66.561  1.00  0.00    -0.162 A  
HETATM   32  C   UNL     1     -11.030   6.350  67.244  1.00  0.00    -0.474 A  
HETATM   33  C   UNL     1     -10.405   7.524  66.823  1.00  0.00    -0.332 A  
HETATM   34  C   UNL     1      -8.911   5.204  67.160  1.00  0.00    -0.109 A  
HETATM   35  C   UNL     1     -10.282   5.187  67.406  1.00  0.00    -0.224 A  
HETATM   36  C   UNL     1      -8.285   6.381  66.738  1.00  0.00    -0.110 A  
ENDBRANCH  30  31
ENDBRANCH  29  30
ENDBRANCH  15  29
ENDBRANCH  12  15
ENDBRANCH  11  12
ENDBRANCH   8  11
BRANCH   9  37
HETATM   37  C   UNL     1     -11.289  14.484  67.305  1.00  0.00    -0.350 C  
HETATM   38  C   UNL     1     -11.919  14.787  64.238  1.00  0.00    -0.387 C  
HETATM   39  O   UNL     1     -12.506  14.644  67.365  1.00  0.00    -0.058 OA 
HETATM   40  C   UNL     1     -10.286  12.919  64.033  1.00  0.00    -0.346 C  
HETATM   41  C   UNL     1     -11.341  13.557  64.952  1.00  0.00    -0.334 C  
HETATM   42  N   UNL     1     -10.661  13.935  66.199  1.00  0.00    -0.281 N  
HETATM   43  C   UNL     1     -12.455  12.530  65.202  1.00  0.00    -0.451 C  
HETATM   44  H   UNL     1      -9.655  13.782  66.254  1.00  0.00     0.000 HD 
ENDBRANCH   9  37
TORSDOF 9
ENDMDL
MODEL       51
REMARK 921   NORMALIZED FREE ENERGY PREDICTED BY IDOCK:   -6.30 KCAL/MOL
REMARK 922        TOTAL FREE ENERGY PREDICTED BY IDOCK:  -12.44 KCAL/MOL
REMARK 923 INTER-LIGAND FREE ENERGY PREDICTED BY IDOCK:  -11.55 KCAL/MOL
REMARK 924 INTRA-LIGAND FREE ENERGY PREDICTED BY IDOCK:   -0.90 KCAL/MOL
REMARK 927      BINDING AFFINITY PREDICTED BY RF-SCORE:    0.00 PKD
ROOT
HETATM    1  C   UNL     1     -10.145   7.854  72.455  1.00  0.00    -0.310 C  
HETATM    2  C   UNL     1     -10.624   6.692  73.331  1.00  0.00    -0.333 C  
HETATM    3  C   UNL     1     -11.655   5.828  72.615  1.00  0.00    -0.304 C  
HETATM    4  C   UNL     1     -12.857   6.659  72.186  1.00  0.00    -0.078 C  
HETATM    5  C   UNL     1     -12.472   7.878  71.349  1.00  0.00    -0.330 C  
HETATM    6  C   UNL     1     -11.309   8.698  71.930  1.00  0.00    -0.417 C  
HETATM    7  C   UNL     1     -10.757   9.743  70.945  1.00  0.00    -0.305 C  
HETATM    8  N   UNL     1     -10.156   9.175  69.734  1.00  0.00    -0.191 NA 
HETATM    9  C   UNL     1      -9.296   7.999  69.960  1.00  0.00    -0.156 C  
HETATM   10  C   UNL     1      -9.182   7.372  71.363  1.00  0.00    -0.148 C  
ENDROOT
BRANCH   8  11
HETATM   11  C   UNL     1      -9.488  10.231  68.931  1.00  0.00    -0.188 C  
BRANCH  11  12
HETATM   12  C   UNL     1     -10.357  11.305  68.194  1.00  0.00    -0.186 C  
HETATM   13  H   UNL     1     -12.158  11.415  67.350  1.00  0.00     0.000 HD 
HETATM   14  O   UNL     1     -11.631  10.764  67.797  1.00  0.00    -0.521 OA 
BRANCH  12  15
HETATM   15  C   UNL     1     -10.538  12.628  68.986  1.00  0.00    -0.041 C  
BRANCH  15  16
HETATM   16  N   UNL     1      -9.602  13.685  68.583  1.00  0.00    -0.379 N  
HETATM   17  C   UNL     1      -9.290  13.959  67.271  1.00  0.00    -0.231 C  
HETATM   18  O   UNL     1      -9.745  13.351  66.309  1.00  0.00    -0.280 OA 
HETATM   19  H   UNL     1      -9.159  14.243  69.313  1.00  0.00     0.000 HD 
BRANCH  17  20
HETATM   20  C   UNL     1      -8.295  15.033  67.039  1.00  0.00    -0.254 A  
HETATM   21  C   UNL     1      -7.011  14.860  67.586  1.00  0.00    -0.207 A  
HETATM   22  H   UNL     1      -7.231  19.109  65.630  1.00  0.00     0.000 HD 
HETATM   23  C   UNL     1      -8.640  16.217  66.351  1.00  0.00    -0.361 A  
HETATM   24  C   UNL     1      -7.661  17.217  66.271  1.00  0.00    -0.325 A  
HETATM   25  C   UNL     1      -6.049  15.852  67.444  1.00  0.00    -0.149 A  
HETATM   26  C   UNL     1      -9.986  16.439  65.707  1.00  0.00    -0.331 C  
HETATM   27  O   UNL     1      -7.894  18.431  65.684  1.00  0.00    -0.505 OA 
HETATM   28  C   UNL     1      -6.380  17.034  66.789  1.00  0.00    -0.246 A  
ENDBRANCH  17  20
ENDBRANCH  15  16
BRANCH  15  29
HETATM   29  C   UNL     1     -12.016  13.120  69.033  1.00  0.00    -0.285 C  
BRANCH  29  30
HETATM   30  S   UNL     1     -12.254  14.932  68.920  1.00  0.00    -0.027 SA 
BRANCH  30  31
HETATM   31  C   UNL     1     -12.611  15.432  70.588  1.00  0.00    -0.439 A  
HETATM   32  C   UNL     1     -14.201  15.356  72.425  1.00  0.00    -0.584 A  
HETATM   33  C   UNL     1     -13.880  15.113  71.090  1.00  0.00    -0.495 A  
HETATM   34  C   UNL     1     -11.992  16.252  72.782  1.00  0.00    -0.636 A  
HETATM   35  C   UNL     1     -13.253  15.921  73.274  1.00  0.00    -0.698 A  
HETATM   36  C   UNL     1     -11.671  16.009  71.443  1.00  0.00    -0.536 A  
ENDBRANCH  30  31
ENDBRANCH  29  30
ENDBRANCH  15  29
ENDBRANCH  12  15
ENDBRANCH  11  12
ENDBRANCH   8  11
BRANCH   9  37
HETATM   37  C   UNL     1      -9.691   6.878  68.948  1.00  0.00    -0.142 C  
HETATM   38  C   UNL     1      -9.259   5.677  66.074  1.00  0.00    -0.164 C  
HETATM   39  O   UNL     1     -10.849   6.563  68.686  1.00  0.00    -0.251 OA 
HETATM   40  C   UNL     1      -7.241   4.673  67.131  1.00  0.00    -0.073 C  
HETATM   41  C   UNL     1      -8.677   5.158  67.395  1.00  0.00    -0.103 C  
HETATM   42  N   UNL     1      -8.597   6.228  68.400  1.00  0.00    -0.114 N  
HETATM   43  C   UNL     1      -9.508   3.969  67.898  1.00  0.00    -0.225 C  
HETATM   44  H   UNL     1      -7.670   6.513  68.715  1.00  0.00     0.000 HD 
ENDBRANCH   9  37
TORSDOF 9
ENDMDL
MODEL       52
REMARK 921   NORMALIZED FREE ENERGY PREDICTED BY IDOCK:   -6.29 KCAL/MOL
REMARK 922        TOTAL FREE ENERGY PREDICTED BY IDOCK:  -12.43 KCAL/MOL
REMARK 923 INTER-LIGAND FREE ENERGY PREDICTED BY IDOCK:   -9.91 KCAL/MOL
REMARK 924 INTRA-LIGAND FREE ENERGY PREDICTED BY IDOCK:   -2.52 KCAL/MOL
REMARK 927      BINDING AFFINITY PREDICTED BY RF-SCORE:    0.00 PKD
ROOT
HETATM    1  C   UNL     1     -11.439   9.203  72.148  1.00  0.00    -0.238 C  
HETATM    2  C   UNL     1     -11.532   7.755  72.640  1.00  0.00    -0.430 C  
HETATM    3  C   UNL     1     -12.256   6.861  71.640  1.00  0.00    -0.403 C  
HETATM    4  C   UNL     1     -13.658   7.385  71.358  1.00  0.00    -0.410 C  
HETATM    5  C   UNL     1     -13.671   8.846  70.911  1.00  0.00     0.148 C  
HETATM    6  C   UNL     1     -12.810   9.776  71.780  1.00  0.00    -0.530 C  
HETATM    7  C   UNL     1     -12.612  11.169  71.158  1.00  0.00    -0.409 C  
HETATM    8  N   UNL     1     -11.876  11.167  69.890  1.00  0.00    -0.330 NA 
HETATM    9  C   UNL     1     -10.696  10.284  69.858  1.00  0.00    -0.294 C  
HETATM   10  C   UNL     1     -10.384   9.352  71.045  1.00  0.00    -0.382 C  
ENDROOT
BRANCH   8  11
HETATM   11  C   UNL     1     -11.570  12.553  69.453  1.00  0.00    -0.305 C  
BRANCH  11  12
HETATM   12  C   UNL     1     -11.324  12.847  67.936  1.00  0.00    -0.294 C  
HETATM   13  H   UNL     1     -12.254  13.795  66.451  1.00  0.00     0.000 HD 
HETATM   14  O   UNL     1     -12.403  13.617  67.372  1.00  0.00    -0.297 OA 
BRANCH  12  15
HETATM   15  C   UNL     1      -9.953  13.507  67.630  1.00  0.00    -0.229 C  
BRANCH  15  16
HETATM   16  N   UNL     1      -9.932  14.955  67.873  1.00  0.00    -0.218 N  
HETATM   17  C   UNL     1      -9.468  15.869  66.955  1.00  0.00    -0.222 C  
HETATM   18  O   UNL     1      -9.016  15.578  65.854  1.00  0.00    -0.303 OA 
HETATM   19  H   UNL     1     -10.279  15.301  68.768  1.00  0.00     0.000 HD 
BRANCH  17  20
HETATM   20  C   UNL     1      -9.481  17.291  67.374  1.00  0.00    -0.245 A  
HETATM   21  C   UNL     1     -10.524  18.102  66.892  1.00  0.00    -0.372 A  
HETATM   22  H   UNL     1      -7.554  20.792  69.313  1.00  0.00     0.000 HD 
HETATM   23  C   UNL     1      -8.449  17.831  68.172  1.00  0.00    -0.262 A  
HETATM   24  C   UNL     1      -8.496  19.208  68.430  1.00  0.00    -0.349 A  
HETATM   25  C   UNL     1     -10.566  19.453  67.209  1.00  0.00    -0.599 A  
HETATM   26  C   UNL     1      -7.330  17.002  68.752  1.00  0.00    -0.236 C  
HETATM   27  O   UNL     1      -7.522  19.858  69.138  1.00  0.00    -0.275 OA 
HETATM   28  C   UNL     1      -9.544  20.006  67.975  1.00  0.00    -0.460 A  
ENDBRANCH  17  20
ENDBRANCH  15  16
BRANCH  15  29
HETATM   29  C   UNL     1      -8.751  12.769  68.292  1.00  0.00    -0.168 C  
BRANCH  29  30
HETATM   30  S   UNL     1      -7.724  11.753  67.167  1.00  0.00    -0.160 SA 
BRANCH  30  31
HETATM   31  C   UNL     1      -6.886  10.616  68.246  1.00  0.00    -0.068 A  
HETATM   32  C   UNL     1      -6.616   9.819  70.527  1.00  0.00    -0.117 A  
HETATM   33  C   UNL     1      -7.133  10.744  69.620  1.00  0.00    -0.136 A  
HETATM   34  C   UNL     1      -5.587   8.623  68.704  1.00  0.00    -0.037 A  
HETATM   35  C   UNL     1      -5.848   8.752  70.067  1.00  0.00    -0.031 A  
HETATM   36  C   UNL     1      -6.104   9.551  67.796  1.00  0.00    -0.052 A  
ENDBRANCH  30  31
ENDBRANCH  29  30
ENDBRANCH  15  29
ENDBRANCH  12  15
ENDBRANCH  11  12
ENDBRANCH   8  11
BRANCH   9  37
HETATM   37  C   UNL     1     -10.737   9.425  68.554  1.00  0.00    -0.161 C  
HETATM   38  C   UNL     1      -9.066   8.062  66.265  1.00  0.00    -0.232 C  
HETATM   39  O   UNL     1     -11.478   9.655  67.601  1.00  0.00     0.106 OA 
HETATM   40  C   UNL     1      -8.726   6.295  67.987  1.00  0.00    -0.114 C  
HETATM   41  C   UNL     1      -9.695   7.381  67.489  1.00  0.00    -0.148 C  
HETATM   42  N   UNL     1      -9.883   8.335  68.591  1.00  0.00    -0.171 N  
HETATM   43  C   UNL     1     -11.016   6.710  67.089  1.00  0.00    -0.478 C  
HETATM   44  H   UNL     1      -9.345   8.184  69.445  1.00  0.00     0.000 HD 
ENDBRANCH   9  37
TORSDOF 9
ENDMDL
MODEL       53
REMARK 921   NORMALIZED FREE ENERGY PREDICTED BY IDOCK:   -6.27 KCAL/MOL
REMARK 922        TOTAL FREE ENERGY PREDICTED BY IDOCK:  -12.41 KCAL/MOL
REMARK 923 INTER-LIGAND FREE ENERGY PREDICTED BY IDOCK:   -9.64 KCAL/MOL
REMARK 924 INTRA-LIGAND FREE ENERGY PREDICTED BY IDOCK:   -2.76 KCAL/MOL
REMARK 927      BINDING AFFINITY PREDICTED BY RF-SCORE:    0.00 PKD
ROOT
HETATM    1  C   UNL     1     -10.727  11.782  66.112  1.00  0.00    -0.320 C  
HETATM    2  C   UNL     1     -11.754  12.851  65.725  1.00  0.00    -0.437 C  
HETATM    3  C   UNL     1     -11.809  13.981  66.746  1.00  0.00    -0.450 C  
HETATM    4  C   UNL     1     -12.143  13.445  68.133  1.00  0.00    -0.267 C  
HETATM    5  C   UNL     1     -11.200  12.330  68.585  1.00  0.00    -0.305 C  
HETATM    6  C   UNL     1     -10.960  11.243  67.525  1.00  0.00    -0.319 C  
HETATM    7  C   UNL     1      -9.806  10.293  67.889  1.00  0.00    -0.157 C  
HETATM    8  N   UNL     1      -8.492  10.939  67.967  1.00  0.00    -0.126 NA 
HETATM    9  C   UNL     1      -8.206  11.901  66.886  1.00  0.00    -0.157 C  
HETATM   10  C   UNL     1      -9.294  12.265  65.857  1.00  0.00    -0.098 C  
ENDROOT
BRANCH   8  11
HETATM   11  C   UNL     1      -7.415   9.930  68.138  1.00  0.00    -0.080 C  
BRANCH  11  12
HETATM   12  C   UNL     1      -6.866   9.624  69.571  1.00  0.00    -0.056 C  
HETATM   13  H   UNL     1      -6.511  10.624  71.257  1.00  0.00     0.000 HD 
HETATM   14  O   UNL     1      -6.844  10.810  70.387  1.00  0.00    -0.278 OA 
BRANCH  12  15
HETATM   15  C   UNL     1      -7.599   8.464  70.299  1.00  0.00    -0.068 C  
BRANCH  15  16
HETATM   16  N   UNL     1      -9.052   8.656  70.391  1.00  0.00    -0.150 N  
HETATM   17  C   UNL     1      -9.737   8.681  71.583  1.00  0.00    -0.278 C  
HETATM   18  O   UNL     1      -9.218   8.537  72.684  1.00  0.00    -0.258 OA 
HETATM   19  H   UNL     1      -9.579   8.775  69.526  1.00  0.00     0.000 HD 
BRANCH  17  20
HETATM   20  C   UNL     1     -11.208   8.845  71.497  1.00  0.00    -0.396 A  
HETATM   21  C   UNL     1     -11.708  10.147  71.317  1.00  0.00    -0.426 A  
HETATM   22  H   UNL     1     -15.329   7.231  71.872  1.00  0.00     0.000 HD 
HETATM   23  C   UNL     1     -12.080   7.745  71.657  1.00  0.00    -0.335 A  
HETATM   24  C   UNL     1     -13.455   8.017  71.661  1.00  0.00    -0.337 A  
HETATM   25  C   UNL     1     -13.078  10.372  71.277  1.00  0.00    -0.494 A  
HETATM   26  C   UNL     1     -11.601   6.324  71.810  1.00  0.00    -0.358 C  
HETATM   27  O   UNL     1     -14.397   7.047  71.869  1.00  0.00    -0.376 OA 
HETATM   28  C   UNL     1     -13.951   9.304  71.455  1.00  0.00    -0.261 A  
ENDBRANCH  17  20
ENDBRANCH  15  16
BRANCH  15  29
HETATM   29  C   UNL     1      -7.210   7.055  69.761  1.00  0.00    -0.079 C  
BRANCH  29  30
HETATM   30  S   UNL     1      -8.442   5.730  70.041  1.00  0.00    -0.125 SA 
BRANCH  30  31
HETATM   31  C   UNL     1      -9.221   5.514  68.457  1.00  0.00    -0.118 A  
HETATM   32  C   UNL     1      -9.315   4.201  66.413  1.00  0.00    -0.178 A  
HETATM   33  C   UNL     1      -8.692   4.523  67.618  1.00  0.00    -0.111 A  
HETATM   34  C   UNL     1     -11.006   5.861  66.856  1.00  0.00    -0.304 A  
HETATM   35  C   UNL     1     -10.478   4.867  66.035  1.00  0.00    -0.327 A  
HETATM   36  C   UNL     1     -10.380   6.184  68.064  1.00  0.00    -0.245 A  
ENDBRANCH  30  31
ENDBRANCH  29  30
ENDBRANCH  15  29
ENDBRANCH  12  15
ENDBRANCH  11  12
ENDBRANCH   8  11
BRANCH   9  37
HETATM   37  C   UNL     1      -7.657  13.222  67.512  1.00  0.00    -0.164 C  
HETATM   38  C   UNL     1      -6.389  16.046  66.962  1.00  0.00    -0.005 C  
HETATM   39  O   UNL     1      -6.849  13.262  68.437  1.00  0.00    -0.081 OA 
HETATM   40  C   UNL     1      -8.754  16.681  66.516  1.00  0.00    -0.317 C  
HETATM   41  C   UNL     1      -7.848  15.737  67.324  1.00  0.00    -0.195 C  
HETATM   42  N   UNL     1      -8.209  14.362  66.951  1.00  0.00    -0.393 N  
HETATM   43  C   UNL     1      -8.080  15.999  68.819  1.00  0.00    -0.212 C  
HETATM   44  H   UNL     1      -8.916  14.238  66.227  1.00  0.00     0.000 HD 
ENDBRANCH   9  37
TORSDOF 9
ENDMDL
MODEL       54
REMARK 921   NORMALIZED FREE ENERGY PREDICTED BY IDOCK:   -6.26 KCAL/MOL
REMARK 922        TOTAL FREE ENERGY PREDICTED BY IDOCK:  -12.39 KCAL/MOL
REMARK 923 INTER-LIGAND FREE ENERGY PREDICTED BY IDOCK:  -10.04 KCAL/MOL
REMARK 924 INTRA-LIGAND FREE ENERGY PREDICTED BY IDOCK:   -2.35 KCAL/MOL
REMARK 927      BINDING AFFINITY PREDICTED BY RF-SCORE:    0.00 PKD
ROOT
HETATM    1  C   UNL     1     -10.850  11.819  64.787  1.00  0.00    -0.358 C  
HETATM    2  C   UNL     1     -11.185  13.103  64.021  1.00  0.00    -0.418 C  
HETATM    3  C   UNL     1     -10.953  14.347  64.870  1.00  0.00    -0.416 C  
HETATM    4  C   UNL     1     -11.781  14.296  66.147  1.00  0.00    -0.397 C  
HETATM    5  C   UNL     1     -11.555  13.019  66.955  1.00  0.00    -0.413 C  
HETATM    6  C   UNL     1     -11.598  11.730  66.118  1.00  0.00    -0.215 C  
HETATM    7  C   UNL     1     -11.096  10.496  66.887  1.00  0.00    -0.050 C  
HETATM    8  N   UNL     1      -9.684  10.560  67.277  1.00  0.00    -0.166 NA 
HETATM    9  C   UNL     1      -8.774  11.074  66.237  1.00  0.00    -0.176 C  
HETATM   10  C   UNL     1      -9.334  11.619  64.909  1.00  0.00    -0.024 C  
ENDROOT
BRANCH   8  11
HETATM   11  C   UNL     1      -9.233   9.264  67.846  1.00  0.00    -0.129 C  
BRANCH  11  12
HETATM   12  C   UNL     1      -8.993   9.140  69.387  1.00  0.00    -0.147 C  
HETATM   13  H   UNL     1      -8.278  10.274  70.862  1.00  0.00     0.000 HD 
HETATM   14  O   UNL     1      -8.424  10.349  69.926  1.00  0.00    -0.087 OA 
BRANCH  12  15
HETATM   15  C   UNL     1     -10.247   8.709  70.194  1.00  0.00    -0.192 C  
BRANCH  15  16
HETATM   16  N   UNL     1     -10.075   7.439  70.910  1.00  0.00    -0.189 N  
HETATM   17  C   UNL     1     -10.943   6.379  70.788  1.00  0.00    -0.290 C  
HETATM   18  O   UNL     1     -11.948   6.383  70.088  1.00  0.00    -0.354 OA 
HETATM   19  H   UNL     1      -9.270   7.338  71.529  1.00  0.00     0.000 HD 
BRANCH  17  20
HETATM   20  C   UNL     1     -10.645   5.182  71.610  1.00  0.00    -0.226 A  
HETATM   21  C   UNL     1     -11.135   5.160  72.929  1.00  0.00    -0.359 A  
HETATM   22  H   UNL     1      -8.508   1.343  72.260  1.00  0.00     0.000 HD 
HETATM   23  C   UNL     1      -9.844   4.130  71.114  1.00  0.00    -0.244 A  
HETATM   24  C   UNL     1      -9.535   3.090  72.002  1.00  0.00    -0.134 A  
HETATM   25  C   UNL     1     -10.849   4.089  73.765  1.00  0.00    -0.333 A  
HETATM   26  C   UNL     1      -9.329   4.079  69.698  1.00  0.00    -0.243 C  
HETATM   27  O   UNL     1      -8.718   2.048  71.658  1.00  0.00    -0.061 OA 
HETATM   28  C   UNL     1     -10.042   3.056  73.300  1.00  0.00    -0.195 A  
ENDBRANCH  17  20
ENDBRANCH  15  16
BRANCH  15  29
HETATM   29  C   UNL     1     -10.814   9.840  71.104  1.00  0.00    -0.263 C  
BRANCH  29  30
HETATM   30  S   UNL     1     -12.616  10.134  70.976  1.00  0.00    -0.401 SA 
BRANCH  30  31
HETATM   31  C   UNL     1     -12.798  11.877  71.276  1.00  0.00    -0.290 A  
HETATM   32  C   UNL     1     -12.339  14.126  70.472  1.00  0.00    -0.434 A  
HETATM   33  C   UNL     1     -12.150  12.746  70.387  1.00  0.00    -0.382 A  
HETATM   34  C   UNL     1     -13.821  13.796  72.345  1.00  0.00    -0.681 A  
HETATM   35  C   UNL     1     -13.181  14.650  71.449  1.00  0.00    -0.425 A  
HETATM   36  C   UNL     1     -13.631  12.413  72.259  1.00  0.00    -0.371 A  
ENDBRANCH  30  31
ENDBRANCH  29  30
ENDBRANCH  15  29
ENDBRANCH  12  15
ENDBRANCH  11  12
ENDBRANCH   8  11
BRANCH   9  37
HETATM   37  C   UNL     1      -7.846  12.162  66.864  1.00  0.00    -0.069 C  
HETATM   38  C   UNL     1      -7.305  15.236  67.243  1.00  0.00    -0.230 C  
HETATM   39  O   UNL     1      -6.621  12.164  66.763  1.00  0.00    -0.069 OA 
HETATM   40  C   UNL     1      -9.035  15.008  69.019  1.00  0.00    -0.205 C  
HETATM   41  C   UNL     1      -7.919  14.267  68.263  1.00  0.00    -0.140 C  
HETATM   42  N   UNL     1      -8.537  13.113  67.596  1.00  0.00    -0.179 N  
HETATM   43  C   UNL     1      -6.850  13.832  69.276  1.00  0.00    -0.078 C  
HETATM   44  H   UNL     1      -9.548  13.004  67.678  1.00  0.00     0.000 HD 
ENDBRANCH   9  37
TORSDOF 9
ENDMDL
MODEL       55
REMARK 921   NORMALIZED FREE ENERGY PREDICTED BY IDOCK:   -6.15 KCAL/MOL
REMARK 922        TOTAL FREE ENERGY PREDICTED BY IDOCK:  -12.23 KCAL/MOL
REMARK 923 INTER-LIGAND FREE ENERGY PREDICTED BY IDOCK:   -9.14 KCAL/MOL
REMARK 924 INTRA-LIGAND FREE ENERGY PREDICTED BY IDOCK:   -3.08 KCAL/MOL
REMARK 927      BINDING AFFINITY PREDICTED BY RF-SCORE:    0.00 PKD
ROOT
HETATM    1  C   UNL     1     -11.535  15.576  67.705  1.00  0.00    -0.211 C  
HETATM    2  C   UNL     1     -11.679  16.533  68.893  1.00  0.00     0.079 C  
HETATM    3  C   UNL     1     -10.898  16.050  70.108  1.00  0.00    -0.349 C  
HETATM    4  C   UNL     1     -11.351  14.658  70.529  1.00  0.00    -0.209 C  
HETATM    5  C   UNL     1     -11.294  13.642  69.389  1.00  0.00    -0.303 C  
HETATM    6  C   UNL     1     -11.911  14.139  68.073  1.00  0.00    -0.400 C  
HETATM    7  C   UNL     1     -11.597  13.225  66.876  1.00  0.00    -0.364 C  
HETATM    8  N   UNL     1     -10.173  13.142  66.535  1.00  0.00    -0.271 NA 
HETATM    9  C   UNL     1      -9.454  14.430  66.556  1.00  0.00    -0.289 C  
HETATM   10  C   UNL     1     -10.159  15.711  67.042  1.00  0.00    -0.253 C  
ENDROOT
BRANCH   8  11
HETATM   11  C   UNL     1      -9.975  12.394  65.267  1.00  0.00    -0.215 C  
BRANCH  11  12
HETATM   12  C   UNL     1     -10.395  10.889  65.187  1.00  0.00    -0.278 C  
HETATM   13  H   UNL     1     -10.463   9.451  63.810  1.00  0.00     0.000 HD 
HETATM   14  O   UNL     1     -10.208  10.364  63.859  1.00  0.00    -0.243 OA 
BRANCH  12  15
HETATM   15  C   UNL     1      -9.711   9.980  66.243  1.00  0.00    -0.214 C  
BRANCH  15  16
HETATM   16  N   UNL     1     -10.518   9.781  67.455  1.00  0.00    -0.244 N  
HETATM   17  C   UNL     1     -10.142  10.240  68.696  1.00  0.00    -0.174 C  
HETATM   18  O   UNL     1      -9.101  10.845  68.926  1.00  0.00    -0.171 OA 
HETATM   19  H   UNL     1     -11.401   9.278  67.371  1.00  0.00     0.000 HD 
BRANCH  17  20
HETATM   20  C   UNL     1     -11.051   9.921  69.822  1.00  0.00    -0.294 A  
HETATM   21  C   UNL     1     -12.255  10.643  69.910  1.00  0.00    -0.346 A  
HETATM   22  H   UNL     1     -11.910   7.872  73.668  1.00  0.00     0.000 HD 
HETATM   23  C   UNL     1     -10.696   8.975  70.809  1.00  0.00    -0.301 A  
HETATM   24  C   UNL     1     -11.576   8.818  71.889  1.00  0.00    -0.361 A  
HETATM   25  C   UNL     1     -13.128  10.425  70.968  1.00  0.00    -0.450 A  
HETATM   26  C   UNL     1      -9.440   8.142  70.744  1.00  0.00    -0.180 C  
HETATM   27  O   UNL     1     -11.313   7.979  72.936  1.00  0.00    -0.408 OA 
HETATM   28  C   UNL     1     -12.782   9.514  71.961  1.00  0.00    -0.479 A  
ENDBRANCH  17  20
ENDBRANCH  15  16
BRANCH  15  29
HETATM   29  C   UNL     1      -9.175   8.642  65.652  1.00  0.00    -0.139 C  
BRANCH  29  30
HETATM   30  S   UNL     1      -7.744   7.905  66.524  1.00  0.00    -0.098 SA 
BRANCH  30  31
HETATM   31  C   UNL     1      -8.464   6.669  67.580  1.00  0.00    -0.121 A  
HETATM   32  C   UNL     1     -10.475   5.438  68.172  1.00  0.00    -0.188 A  
HETATM   33  C   UNL     1      -9.847   6.469  67.474  1.00  0.00    -0.150 A  
HETATM   34  C   UNL     1      -8.348   4.789  69.105  1.00  0.00    -0.084 A  
HETATM   35  C   UNL     1      -9.722   4.592  68.984  1.00  0.00    -0.242 A  
HETATM   36  C   UNL     1      -7.719   5.824  68.405  1.00  0.00    -0.096 A  
ENDBRANCH  30  31
ENDBRANCH  29  30
ENDBRANCH  15  29
ENDBRANCH  12  15
ENDBRANCH  11  12
ENDBRANCH   8  11
BRANCH   9  37
HETATM   37  C   UNL     1      -8.129  14.259  67.364  1.00  0.00    -0.196 C  
HETATM   38  C   UNL     1      -5.265  15.411  67.966  1.00  0.00    -0.134 C  
HETATM   39  O   UNL     1      -7.502  13.205  67.445  1.00  0.00    -0.156 OA 
HETATM   40  C   UNL     1      -6.534  16.951  69.455  1.00  0.00    -0.223 C  
HETATM   41  C   UNL     1      -6.522  15.543  68.837  1.00  0.00    -0.110 C  
HETATM   42  N   UNL     1      -7.744  15.410  68.032  1.00  0.00    -0.120 N  
HETATM   43  C   UNL     1      -6.477  14.511  69.974  1.00  0.00    -0.160 C  
HETATM   44  H   UNL     1      -8.353  16.225  67.959  1.00  0.00     0.000 HD 
ENDBRANCH   9  37
TORSDOF 9
ENDMDL
MODEL       56
REMARK 921   NORMALIZED FREE ENERGY PREDICTED BY IDOCK:   -6.12 KCAL/MOL
REMARK 922        TOTAL FREE ENERGY PREDICTED BY IDOCK:  -12.17 KCAL/MOL
REMARK 923 INTER-LIGAND FREE ENERGY PREDICTED BY IDOCK:   -8.74 KCAL/MOL
REMARK 924 INTRA-LIGAND FREE ENERGY PREDICTED BY IDOCK:   -3.43 KCAL/MOL
REMARK 927      BINDING AFFINITY PREDICTED BY RF-SCORE:    0.00 PKD
ROOT
HETATM    1  C   UNL     1     -11.645  15.325  67.644  1.00  0.00    -0.249 C  
HETATM    2  C   UNL     1     -11.783  16.315  68.806  1.00  0.00    -0.138 C  
HETATM    3  C   UNL     1     -10.992  15.868  70.029  1.00  0.00    -0.361 C  
HETATM    4  C   UNL     1     -11.440  14.488  70.492  1.00  0.00    -0.240 C  
HETATM    5  C   UNL     1     -11.388  13.439  69.382  1.00  0.00    -0.286 C  
HETATM    6  C   UNL     1     -12.015  13.898  68.056  1.00  0.00    -0.390 C  
HETATM    7  C   UNL     1     -11.707  12.950  66.884  1.00  0.00    -0.382 C  
HETATM    8  N   UNL     1     -10.285  12.861  66.535  1.00  0.00    -0.254 NA 
HETATM    9  C   UNL     1      -9.569  14.149  66.515  1.00  0.00    -0.296 C  
HETATM   10  C   UNL     1     -10.273  15.443  66.969  1.00  0.00    -0.262 C  
ENDROOT
BRANCH   8  11
HETATM   11  C   UNL     1     -10.095  12.077  65.288  1.00  0.00    -0.260 C  
BRANCH  11  12
HETATM   12  C   UNL     1     -10.182  10.515  65.338  1.00  0.00    -0.270 C  
HETATM   13  H   UNL     1      -9.769   8.979  64.139  1.00  0.00     0.000 HD 
HETATM   14  O   UNL     1      -9.716   9.927  64.109  1.00  0.00    -0.234 OA 
BRANCH  12  15
HETATM   15  C   UNL     1      -9.473   9.877  66.562  1.00  0.00    -0.181 C  
BRANCH  15  16
HETATM   16  N   UNL     1     -10.385   9.566  67.670  1.00  0.00    -0.228 N  
HETATM   17  C   UNL     1     -10.192  10.014  68.957  1.00  0.00    -0.203 C  
HETATM   18  O   UNL     1      -9.245  10.703  69.316  1.00  0.00    -0.178 OA 
HETATM   19  H   UNL     1     -11.203   8.987  67.476  1.00  0.00     0.000 HD 
BRANCH  17  20
HETATM   20  C   UNL     1     -11.186   9.577  69.965  1.00  0.00    -0.243 A  
HETATM   21  C   UNL     1     -12.002  10.564  70.546  1.00  0.00    -0.436 A  
HETATM   22  H   UNL     1     -12.907   6.475  72.639  1.00  0.00     0.000 HD 
HETATM   23  C   UNL     1     -11.269   8.229  70.379  1.00  0.00    -0.222 A  
HETATM   24  C   UNL     1     -12.170   7.932  71.411  1.00  0.00    -0.313 A  
HETATM   25  C   UNL     1     -12.920  10.225  71.532  1.00  0.00    -0.556 A  
HETATM   26  C   UNL     1     -10.452   7.121  69.762  1.00  0.00    -0.238 C  
HETATM   27  O   UNL     1     -12.297   6.676  71.939  1.00  0.00    -0.342 OA 
HETATM   28  C   UNL     1     -12.997   8.907  71.967  1.00  0.00    -0.454 A  
ENDBRANCH  17  20
ENDBRANCH  15  16
BRANCH  15  29
HETATM   29  C   UNL     1      -8.552   8.678  66.186  1.00  0.00    -0.142 C  
BRANCH  29  30
HETATM   30  S   UNL     1      -6.753   8.979  66.338  1.00  0.00    -0.075 SA 
BRANCH  30  31
HETATM   31  C   UNL     1      -6.473   9.084  68.090  1.00  0.00    -0.060 A  
HETATM   32  C   UNL     1      -5.707  10.469  69.936  1.00  0.00    -0.053 A  
HETATM   33  C   UNL     1      -5.854  10.247  68.567  1.00  0.00    -0.040 A  
HETATM   34  C   UNL     1      -6.789   8.361  70.381  1.00  0.00    -0.037 A  
HETATM   35  C   UNL     1      -6.182   9.526  70.845  1.00  0.00    -0.086 A  
HETATM   36  C   UNL     1      -6.935   8.139  69.008  1.00  0.00    -0.061 A  
ENDBRANCH  30  31
ENDBRANCH  29  30
ENDBRANCH  15  29
ENDBRANCH  12  15
ENDBRANCH  11  12
ENDBRANCH   8  11
BRANCH   9  37
HETATM   37  C   UNL     1      -8.238  14.005  67.318  1.00  0.00    -0.171 C  
HETATM   38  C   UNL     1      -5.410  15.232  67.939  1.00  0.00    -0.125 C  
HETATM   39  O   UNL     1      -7.579  12.969  67.379  1.00  0.00    -0.154 OA 
HETATM   40  C   UNL     1      -6.723  16.705  69.458  1.00  0.00    -0.189 C  
HETATM   41  C   UNL     1      -6.669  15.309  68.813  1.00  0.00    -0.103 C  
HETATM   42  N   UNL     1      -7.888  15.155  68.007  1.00  0.00    -0.123 N  
HETATM   43  C   UNL     1      -6.591  14.259  69.931  1.00  0.00    -0.109 C  
HETATM   44  H   UNL     1      -8.521  15.952  67.949  1.00  0.00     0.000 HD 
ENDBRANCH   9  37
TORSDOF 9
ENDMDL
MODEL       57
REMARK 921   NORMALIZED FREE ENERGY PREDICTED BY IDOCK:   -6.10 KCAL/MOL
REMARK 922        TOTAL FREE ENERGY PREDICTED BY IDOCK:  -12.14 KCAL/MOL
REMARK 923 INTER-LIGAND FREE ENERGY PREDICTED BY IDOCK:  -11.11 KCAL/MOL
REMARK 924 INTRA-LIGAND FREE ENERGY PREDICTED BY IDOCK:   -1.03 KCAL/MOL
REMARK 927      BINDING AFFINITY PREDICTED BY RF-SCORE:    0.00 PKD
ROOT
HETATM    1  C   UNL     1      -7.149  18.182  68.247  1.00  0.00    -0.249 C  
HETATM    2  C   UNL     1      -7.391  19.647  67.871  1.00  0.00    -0.315 C  
HETATM    3  C   UNL     1      -8.080  19.780  66.518  1.00  0.00    -0.351 C  
HETATM    4  C   UNL     1      -7.261  19.111  65.423  1.00  0.00    -0.008 C  
HETATM    5  C   UNL     1      -6.922  17.654  65.735  1.00  0.00    -0.154 C  
HETATM    6  C   UNL     1      -6.387  17.425  67.157  1.00  0.00    -0.189 C  
HETATM    7  C   UNL     1      -6.318  15.938  67.544  1.00  0.00    -0.168 C  
HETATM    8  N   UNL     1      -7.621  15.266  67.596  1.00  0.00    -0.155 NA 
HETATM    9  C   UNL     1      -8.695  16.042  68.244  1.00  0.00    -0.177 C  
HETATM   10  C   UNL     1      -8.448  17.496  68.689  1.00  0.00    -0.258 C  
ENDROOT
BRANCH   8  11
HETATM   11  C   UNL     1      -7.487  13.895  68.151  1.00  0.00    -0.126 C  
BRANCH  11  12
HETATM   12  C   UNL     1      -7.874  12.664  67.266  1.00  0.00    -0.155 C  
HETATM   13  H   UNL     1      -6.950  11.128  66.396  1.00  0.00     0.000 HD 
HETATM   14  O   UNL     1      -6.716  11.875  66.933  1.00  0.00    -0.138 OA 
BRANCH  12  15
HETATM   15  C   UNL     1      -8.996  11.775  67.867  1.00  0.00    -0.180 C  
BRANCH  15  16
HETATM   16  N   UNL     1      -9.887  12.497  68.784  1.00  0.00    -0.421 N  
HETATM   17  C   UNL     1     -11.248  12.300  68.828  1.00  0.00    -0.265 C  
HETATM   18  O   UNL     1     -11.859  11.520  68.107  1.00  0.00    -0.510 OA 
HETATM   19  H   UNL     1      -9.476  13.180  69.421  1.00  0.00     0.000 HD 
BRANCH  17  20
HETATM   20  C   UNL     1     -12.007  13.139  69.785  1.00  0.00    -0.382 A  
HETATM   21  C   UNL     1     -11.956  14.534  69.611  1.00  0.00    -0.375 A  
HETATM   22  H   UNL     1     -14.363  13.614  73.520  1.00  0.00     0.000 HD 
HETATM   23  C   UNL     1     -12.703  12.566  70.872  1.00  0.00    -0.270 A  
HETATM   24  C   UNL     1     -13.306  13.448  71.780  1.00  0.00    -0.394 A  
HETATM   25  C   UNL     1     -12.607  15.376  70.503  1.00  0.00    -0.471 A  
HETATM   26  C   UNL     1     -12.828  11.078  71.084  1.00  0.00    -0.491 C  
HETATM   27  O   UNL     1     -13.955  13.017  72.904  1.00  0.00    -0.433 OA 
HETATM   28  C   UNL     1     -13.278  14.829  71.592  1.00  0.00    -0.431 A  
ENDBRANCH  17  20
ENDBRANCH  15  16
BRANCH  15  29
HETATM   29  C   UNL     1      -9.774  10.954  66.795  1.00  0.00    -0.190 C  
BRANCH  29  30
HETATM   30  S   UNL     1      -9.135   9.270  66.466  1.00  0.00    -0.164 SA 
BRANCH  30  31
HETATM   31  C   UNL     1      -9.905   8.259  67.709  1.00  0.00    -0.170 A  
HETATM   32  C   UNL     1     -11.075   6.182  68.186  1.00  0.00    -0.328 A  
HETATM   33  C   UNL     1     -10.552   7.096  67.271  1.00  0.00    -0.398 A  
HETATM   34  C   UNL     1     -10.320   7.581  69.998  1.00  0.00    -0.222 A  
HETATM   35  C   UNL     1     -10.952   6.422  69.552  1.00  0.00    -0.421 A  
HETATM   36  C   UNL     1      -9.797   8.498  69.080  1.00  0.00    -0.184 A  
ENDBRANCH  30  31
ENDBRANCH  29  30
ENDBRANCH  15  29
ENDBRANCH  12  15
ENDBRANCH  11  12
ENDBRANCH   8  11
BRANCH   9  37
HETATM   37  C   UNL     1      -9.964  16.013  67.334  1.00  0.00    -0.241 C  
HETATM   38  C   UNL     1     -11.073  15.963  64.392  1.00  0.00    -0.165 C  
HETATM   39  O   UNL     1     -10.926  16.765  67.470  1.00  0.00    -0.261 OA 
HETATM   40  C   UNL     1     -10.559  13.533  64.567  1.00  0.00    -0.439 C  
HETATM   41  C   UNL     1     -10.968  14.782  65.366  1.00  0.00    -0.359 C  
HETATM   42  N   UNL     1      -9.925  15.014  66.375  1.00  0.00    -0.266 N  
HETATM   43  C   UNL     1     -12.336  14.519  66.014  1.00  0.00    -0.234 C  
HETATM   44  H   UNL     1      -9.114  14.396  66.369  1.00  0.00     0.000 HD 
ENDBRANCH   9  37
TORSDOF 9
ENDMDL
MODEL       58
REMARK 921   NORMALIZED FREE ENERGY PREDICTED BY IDOCK:   -6.09 KCAL/MOL
REMARK 922        TOTAL FREE ENERGY PREDICTED BY IDOCK:  -12.13 KCAL/MOL
REMARK 923 INTER-LIGAND FREE ENERGY PREDICTED BY IDOCK:   -9.76 KCAL/MOL
REMARK 924 INTRA-LIGAND FREE ENERGY PREDICTED BY IDOCK:   -2.37 KCAL/MOL
REMARK 927      BINDING AFFINITY PREDICTED BY RF-SCORE:    0.00 PKD
ROOT
HETATM    1  C   UNL     1      -9.541   8.672  72.170  1.00  0.00    -0.378 C  
HETATM    2  C   UNL     1      -9.116   7.895  73.420  1.00  0.00    -0.347 C  
HETATM    3  C   UNL     1      -9.515   6.427  73.340  1.00  0.00    -0.151 C  
HETATM    4  C   UNL     1     -11.019   6.282  73.148  1.00  0.00    -0.251 C  
HETATM    5  C   UNL     1     -11.547   7.070  71.950  1.00  0.00    -0.320 C  
HETATM    6  C   UNL     1     -11.034   8.517  71.875  1.00  0.00    -0.394 C  
HETATM    7  C   UNL     1     -11.347   9.198  70.531  1.00  0.00    -0.257 C  
HETATM    8  N   UNL     1     -10.691   8.580  69.374  1.00  0.00    -0.198 NA 
HETATM    9  C   UNL     1      -9.280   8.207  69.584  1.00  0.00    -0.155 C  
HETATM   10  C   UNL     1      -8.634   8.350  70.976  1.00  0.00    -0.181 C  
ENDROOT
BRANCH   8  11
HETATM   11  C   UNL     1     -10.893   9.400  68.152  1.00  0.00    -0.119 C  
BRANCH  11  12
HETATM   12  C   UNL     1      -9.777  10.401  67.702  1.00  0.00    -0.168 C  
HETATM   13  H   UNL     1      -8.497  10.594  66.188  1.00  0.00     0.000 HD 
HETATM   14  O   UNL     1      -9.174   9.987  66.461  1.00  0.00    -0.146 OA 
BRANCH  12  15
HETATM   15  C   UNL     1     -10.242  11.880  67.626  1.00  0.00    -0.201 C  
BRANCH  15  16
HETATM   16  N   UNL     1     -10.759  12.397  68.899  1.00  0.00    -0.354 N  
HETATM   17  C   UNL     1     -11.798  13.295  68.984  1.00  0.00    -0.321 C  
HETATM   18  O   UNL     1     -12.389  13.765  68.019  1.00  0.00    -0.241 OA 
HETATM   19  H   UNL     1     -10.326  12.075  69.765  1.00  0.00     0.000 HD 
BRANCH  17  20
HETATM   20  C   UNL     1     -12.172  13.747  70.345  1.00  0.00    -0.433 A  
HETATM   21  C   UNL     1     -13.056  12.935  71.080  1.00  0.00    -0.170 A  
HETATM   22  H   UNL     1     -12.216  16.825  73.547  1.00  0.00     0.000 HD 
HETATM   23  C   UNL     1     -11.714  14.978  70.863  1.00  0.00    -0.376 A  
HETATM   24  C   UNL     1     -12.205  15.365  72.118  1.00  0.00    -0.385 A  
HETATM   25  C   UNL     1     -13.482  13.327  72.342  1.00  0.00    -0.670 A  
HETATM   26  C   UNL     1     -10.734  15.868  70.139  1.00  0.00    -0.338 C  
HETATM   27  O   UNL     1     -11.883  16.562  72.697  1.00  0.00    -0.541 OA 
HETATM   28  C   UNL     1     -13.058  14.548  72.857  1.00  0.00    -0.614 A  
ENDBRANCH  17  20
ENDBRANCH  15  16
BRANCH  15  29
HETATM   29  C   UNL     1      -9.187  12.825  66.977  1.00  0.00    -0.221 C  
BRANCH  29  30
HETATM   30  S   UNL     1      -7.565  12.907  67.822  1.00  0.00    -0.157 SA 
BRANCH  30  31
HETATM   31  C   UNL     1      -7.349  14.633  68.188  1.00  0.00    -0.125 A  
HETATM   32  C   UNL     1      -7.894  16.917  67.559  1.00  0.00    -0.186 A  
HETATM   33  C   UNL     1      -7.909  15.549  67.288  1.00  0.00    -0.236 A  
HETATM   34  C   UNL     1      -6.750  16.481  69.636  1.00  0.00    -0.126 A  
HETATM   35  C   UNL     1      -7.320  17.383  68.739  1.00  0.00    -0.257 A  
HETATM   36  C   UNL     1      -6.764  15.110  69.363  1.00  0.00    -0.162 A  
ENDBRANCH  30  31
ENDBRANCH  29  30
ENDBRANCH  15  29
ENDBRANCH  12  15
ENDBRANCH  11  12
ENDBRANCH   8  11
BRANCH   9  37
HETATM   37  C   UNL     1      -9.060   6.744  69.086  1.00  0.00    -0.138 C  
HETATM   38  C   UNL     1      -7.319   4.820  67.309  1.00  0.00    -0.077 C  
HETATM   39  O   UNL     1      -9.951   6.030  68.632  1.00  0.00    -0.134 OA 
HETATM   40  C   UNL     1      -5.793   4.886  69.276  1.00  0.00    -0.017 C  
HETATM   41  C   UNL     1      -7.264   4.982  68.835  1.00  0.00    -0.057 C  
HETATM   42  N   UNL     1      -7.757   6.302  69.249  1.00  0.00    -0.098 N  
HETATM   43  C   UNL     1      -8.049   3.846  69.506  1.00  0.00    -0.062 C  
HETATM   44  H   UNL     1      -7.093   6.939  69.688  1.00  0.00     0.000 HD 
ENDBRANCH   9  37
TORSDOF 9
ENDMDL
MODEL       59
REMARK 921   NORMALIZED FREE ENERGY PREDICTED BY IDOCK:   -6.09 KCAL/MOL
REMARK 922        TOTAL FREE ENERGY PREDICTED BY IDOCK:  -12.13 KCAL/MOL
REMARK 923 INTER-LIGAND FREE ENERGY PREDICTED BY IDOCK:  -10.15 KCAL/MOL
REMARK 924 INTRA-LIGAND FREE ENERGY PREDICTED BY IDOCK:   -1.98 KCAL/MOL
REMARK 927      BINDING AFFINITY PREDICTED BY RF-SCORE:    0.00 PKD
ROOT
HETATM    1  C   UNL     1     -10.477  17.979  66.349  1.00  0.00    -0.345 C  
HETATM    2  C   UNL     1     -10.497  19.478  66.032  1.00  0.00    -0.611 C  
HETATM    3  C   UNL     1      -9.616  20.272  66.988  1.00  0.00    -0.572 C  
HETATM    4  C   UNL     1     -10.052  20.061  68.432  1.00  0.00    -0.513 C  
HETATM    5  C   UNL     1     -10.115  18.586  68.827  1.00  0.00    -0.394 C  
HETATM    6  C   UNL     1     -10.841  17.693  67.808  1.00  0.00    -0.241 C  
HETATM    7  C   UNL     1     -10.652  16.191  68.080  1.00  0.00    -0.304 C  
HETATM    8  N   UNL     1      -9.266  15.725  67.962  1.00  0.00    -0.188 NA 
HETATM    9  C   UNL     1      -8.527  16.259  66.803  1.00  0.00    -0.247 C  
HETATM   10  C   UNL     1      -9.164  17.328  65.895  1.00  0.00    -0.005 C  
ENDROOT
BRANCH   8  11
HETATM   11  C   UNL     1      -9.197  14.244  68.056  1.00  0.00    -0.192 C  
BRANCH  11  12
HETATM   12  C   UNL     1     -10.265  13.373  67.314  1.00  0.00    -0.241 C  
HETATM   13  H   UNL     1     -10.660  12.804  65.446  1.00  0.00     0.000 HD 
HETATM   14  O   UNL     1     -10.012  13.332  65.897  1.00  0.00    -0.285 OA 
BRANCH  12  15
HETATM   15  C   UNL     1     -10.430  11.941  67.890  1.00  0.00    -0.204 C  
BRANCH  15  16
HETATM   16  N   UNL     1      -9.349  11.550  68.804  1.00  0.00    -0.367 N  
HETATM   17  C   UNL     1      -8.306  10.732  68.435  1.00  0.00    -0.132 C  
HETATM   18  O   UNL     1      -8.173  10.238  67.321  1.00  0.00    -0.120 OA 
HETATM   19  H   UNL     1      -9.374  11.901  69.761  1.00  0.00     0.000 HD 
BRANCH  17  20
HETATM   20  C   UNL     1      -7.319  10.402  69.490  1.00  0.00    -0.144 A  
HETATM   21  C   UNL     1      -6.436  11.419  69.896  1.00  0.00    -0.118 A  
HETATM   22  H   UNL     1      -5.257   7.462  72.104  1.00  0.00     0.000 HD 
HETATM   23  C   UNL     1      -7.222   9.098  70.023  1.00  0.00    -0.066 A  
HETATM   24  C   UNL     1      -6.190   8.859  70.942  1.00  0.00    -0.047 A  
HETATM   25  C   UNL     1      -5.457  11.159  70.846  1.00  0.00    -0.104 A  
HETATM   26  C   UNL     1      -8.167   7.981  69.658  1.00  0.00    -0.121 C  
HETATM   27  O   UNL     1      -5.956   7.624  71.481  1.00  0.00    -0.036 OA 
HETATM   28  C   UNL     1      -5.333   9.874  71.364  1.00  0.00    -0.077 A  
ENDBRANCH  17  20
ENDBRANCH  15  16
BRANCH  15  29
HETATM   29  C   UNL     1     -11.845  11.674  68.483  1.00  0.00    -0.292 C  
BRANCH  29  30
HETATM   30  S   UNL     1     -12.047  12.055  70.262  1.00  0.00    -0.245 SA 
BRANCH  30  31
HETATM   31  C   UNL     1     -12.082  10.462  71.050  1.00  0.00    -0.385 A  
HETATM   32  C   UNL     1     -13.464   8.610  71.807  1.00  0.00    -0.418 A  
HETATM   33  C   UNL     1     -13.343   9.907  71.307  1.00  0.00    -0.419 A  
HETATM   34  C   UNL     1     -11.063   8.400  71.812  1.00  0.00    -0.358 A  
HETATM   35  C   UNL     1     -12.322   7.853  72.054  1.00  0.00    -0.346 A  
HETATM   36  C   UNL     1     -10.942   9.700  71.312  1.00  0.00    -0.399 A  
ENDBRANCH  30  31
ENDBRANCH  29  30
ENDBRANCH  15  29
ENDBRANCH  12  15
ENDBRANCH  11  12
ENDBRANCH   8  11
BRANCH   9  37
HETATM   37  C   UNL     1      -7.137  16.783  67.283  1.00  0.00    -0.173 C  
HETATM   38  C   UNL     1      -5.231  19.269  67.554  1.00  0.00    -0.164 C  
HETATM   39  O   UNL     1      -6.066  16.245  67.011  1.00  0.00    -0.275 OA 
HETATM   40  C   UNL     1      -6.632  19.738  69.557  1.00  0.00    -0.388 C  
HETATM   41  C   UNL     1      -6.076  18.621  68.659  1.00  0.00    -0.211 C  
HETATM   42  N   UNL     1      -7.227  17.901  68.096  1.00  0.00    -0.223 N  
HETATM   43  C   UNL     1      -5.194  17.700  69.515  1.00  0.00    -0.178 C  
HETATM   44  H   UNL     1      -8.159  18.249  68.320  1.00  0.00     0.000 HD 
ENDBRANCH   9  37
TORSDOF 9
ENDMDL
MODEL       60
REMARK 921   NORMALIZED FREE ENERGY PREDICTED BY IDOCK:   -6.08 KCAL/MOL
REMARK 922        TOTAL FREE ENERGY PREDICTED BY IDOCK:  -12.12 KCAL/MOL
REMARK 923 INTER-LIGAND FREE ENERGY PREDICTED BY IDOCK:   -9.91 KCAL/MOL
REMARK 924 INTRA-LIGAND FREE ENERGY PREDICTED BY IDOCK:   -2.20 KCAL/MOL
REMARK 927      BINDING AFFINITY PREDICTED BY RF-SCORE:    0.00 PKD
ROOT
HETATM    1  C   UNL     1     -11.917  14.059  65.982  1.00  0.00    -0.434 C  
HETATM    2  C   UNL     1     -11.414  15.162  65.044  1.00  0.00    -0.339 C  
HETATM    3  C   UNL     1      -9.934  15.455  65.256  1.00  0.00    -0.305 C  
HETATM    4  C   UNL     1      -9.661  15.862  66.698  1.00  0.00    -0.270 C  
HETATM    5  C   UNL     1     -10.179  14.844  67.714  1.00  0.00    -0.236 C  
HETATM    6  C   UNL     1     -11.616  14.369  67.449  1.00  0.00    -0.398 C  
HETATM    7  C   UNL     1     -12.016  13.153  68.303  1.00  0.00    -0.291 C  
HETATM    8  N   UNL     1     -11.238  11.940  68.030  1.00  0.00    -0.237 NA 
HETATM    9  C   UNL     1     -11.000  11.663  66.601  1.00  0.00    -0.299 C  
HETATM   10  C   UNL     1     -11.438  12.675  65.526  1.00  0.00    -0.375 C  
ENDROOT
BRANCH   8  11
HETATM   11  C   UNL     1     -11.803  10.775  68.756  1.00  0.00    -0.179 C  
BRANCH  11  12
HETATM   12  C   UNL     1     -11.528  10.613  70.288  1.00  0.00    -0.337 C  
HETATM   13  H   UNL     1     -12.252  11.333  71.998  1.00  0.00     0.000 HD 
HETATM   14  O   UNL     1     -12.419  11.431  71.069  1.00  0.00    -0.386 OA 
BRANCH  12  15
HETATM   15  C   UNL     1     -11.546   9.143  70.786  1.00  0.00    -0.276 C  
BRANCH  15  16
HETATM   16  N   UNL     1     -11.016   8.186  69.806  1.00  0.00    -0.400 N  
HETATM   17  C   UNL     1     -11.391   6.863  69.763  1.00  0.00    -0.237 C  
HETATM   18  O   UNL     1     -12.188   6.342  70.535  1.00  0.00    -0.235 OA 
HETATM   19  H   UNL     1     -10.336   8.519  69.123  1.00  0.00     0.000 HD 
BRANCH  17  20
HETATM   20  C   UNL     1     -10.733   6.022  68.735  1.00  0.00    -0.375 A  
HETATM   21  C   UNL     1     -10.926   6.372  67.387  1.00  0.00    -0.463 A  
HETATM   22  H   UNL     1      -8.480   2.383  67.547  1.00  0.00     0.000 HD 
HETATM   23  C   UNL     1      -9.994   4.872  69.090  1.00  0.00    -0.252 A  
HETATM   24  C   UNL     1      -9.495   4.085  68.042  1.00  0.00    -0.165 A  
HETATM   25  C   UNL     1     -10.375   5.596  66.375  1.00  0.00    -0.241 A  
HETATM   26  C   UNL     1      -9.718   4.472  70.518  1.00  0.00    -0.290 C  
HETATM   27  O   UNL     1      -8.817   2.917  68.257  1.00  0.00    -0.097 OA 
HETATM   28  C   UNL     1      -9.664   4.448  66.707  1.00  0.00    -0.235 A  
ENDBRANCH  17  20
ENDBRANCH  15  16
BRANCH  15  29
HETATM   29  C   UNL     1     -10.919   8.963  72.201  1.00  0.00    -0.279 C  
BRANCH  29  30
HETATM   30  S   UNL     1      -9.160   8.453  72.233  1.00  0.00    -0.248 SA 
BRANCH  30  31
HETATM   31  C   UNL     1      -9.159   6.940  73.166  1.00  0.00    -0.132 A  
HETATM   32  C   UNL     1     -10.508   5.195  74.189  1.00  0.00    -0.326 A  
HETATM   33  C   UNL     1     -10.406   6.437  73.563  1.00  0.00    -0.281 A  
HETATM   34  C   UNL     1      -8.115   4.938  74.043  1.00  0.00    -0.101 A  
HETATM   35  C   UNL     1      -9.361   4.441  74.424  1.00  0.00    -0.124 A  
HETATM   36  C   UNL     1      -8.014   6.183  73.416  1.00  0.00    -0.106 A  
ENDBRANCH  30  31
ENDBRANCH  29  30
ENDBRANCH  15  29
ENDBRANCH  12  15
ENDBRANCH  11  12
ENDBRANCH   8  11
BRANCH   9  37
HETATM   37  C   UNL     1      -9.487  11.342  66.390  1.00  0.00    -0.200 C  
HETATM   38  C   UNL     1      -7.135   9.333  66.958  1.00  0.00    -0.086 C  
HETATM   39  O   UNL     1      -8.578  12.147  66.581  1.00  0.00    -0.185 OA 
HETATM   40  C   UNL     1      -8.155   8.081  65.064  1.00  0.00    -0.145 C  
HETATM   41  C   UNL     1      -7.936   9.483  65.658  1.00  0.00    -0.108 C  
HETATM   42  N   UNL     1      -9.263  10.061  65.912  1.00  0.00    -0.157 N  
HETATM   43  C   UNL     1      -7.137  10.320  64.648  1.00  0.00    -0.081 C  
HETATM   44  H   UNL     1     -10.077   9.476  65.725  1.00  0.00     0.000 HD 
ENDBRANCH   9  37
TORSDOF 9
ENDMDL
MODEL       61
REMARK 921   NORMALIZED FREE ENERGY PREDICTED BY IDOCK:   -6.07 KCAL/MOL
REMARK 922        TOTAL FREE ENERGY PREDICTED BY IDOCK:  -12.09 KCAL/MOL
REMARK 923 INTER-LIGAND FREE ENERGY PREDICTED BY IDOCK:   -9.48 KCAL/MOL
REMARK 924 INTRA-LIGAND FREE ENERGY PREDICTED BY IDOCK:   -2.61 KCAL/MOL
REMARK 927      BINDING AFFINITY PREDICTED BY RF-SCORE:    0.00 PKD
ROOT
HETATM    1  C   UNL     1     -11.500  12.202  66.330  1.00  0.00    -0.433 C  
HETATM    2  C   UNL     1     -12.266  13.521  66.189  1.00  0.00    -0.484 C  
HETATM    3  C   UNL     1     -11.838  14.540  67.239  1.00  0.00    -0.419 C  
HETATM    4  C   UNL     1     -12.042  13.990  68.645  1.00  0.00    -0.332 C  
HETATM    5  C   UNL     1     -11.356  12.642  68.864  1.00  0.00    -0.345 C  
HETATM    6  C   UNL     1     -11.604  11.622  67.742  1.00  0.00    -0.359 C  
HETATM    7  C   UNL     1     -10.691  10.387  67.838  1.00  0.00    -0.261 C  
HETATM    8  N   UNL     1      -9.262  10.677  67.678  1.00  0.00    -0.146 NA 
HETATM    9  C   UNL     1      -8.938  11.625  66.596  1.00  0.00    -0.189 C  
HETATM   10  C   UNL     1     -10.061  12.332  65.814  1.00  0.00    -0.274 C  
ENDROOT
BRANCH   8  11
HETATM   11  C   UNL     1      -8.473   9.422  67.599  1.00  0.00    -0.119 C  
BRANCH  11  12
HETATM   12  C   UNL     1      -7.382   9.127  68.682  1.00  0.00    -0.076 C  
HETATM   13  H   UNL     1      -6.067  10.160  69.765  1.00  0.00     0.000 HD 
HETATM   14  O   UNL     1      -6.729  10.338  69.109  1.00  0.00    -0.052 OA 
BRANCH  12  15
HETATM   15  C   UNL     1      -7.897   8.316  69.901  1.00  0.00    -0.102 C  
BRANCH  15  16
HETATM   16  N   UNL     1      -9.342   8.454  70.128  1.00  0.00    -0.162 N  
HETATM   17  C   UNL     1      -9.889   8.741  71.357  1.00  0.00    -0.283 C  
HETATM   18  O   UNL     1      -9.241   8.899  72.385  1.00  0.00    -0.362 OA 
HETATM   19  H   UNL     1      -9.970   8.331  69.335  1.00  0.00     0.000 HD 
BRANCH  17  20
HETATM   20  C   UNL     1     -11.368   8.808  71.423  1.00  0.00    -0.364 A  
HETATM   21  C   UNL     1     -11.961  10.084  71.465  1.00  0.00    -0.438 A  
HETATM   22  H   UNL     1     -15.331   6.867  71.932  1.00  0.00     0.000 HD 
HETATM   23  C   UNL     1     -12.154   7.638  71.507  1.00  0.00    -0.338 A  
HETATM   24  C   UNL     1     -13.536   7.807  71.668  1.00  0.00    -0.357 A  
HETATM   25  C   UNL     1     -13.339  10.213  71.575  1.00  0.00    -0.434 A  
HETATM   26  C   UNL     1     -11.578   6.246  71.423  1.00  0.00    -0.338 C  
HETATM   27  O   UNL     1     -14.394   6.752  71.822  1.00  0.00    -0.287 OA 
HETATM   28  C   UNL     1     -14.125   9.070  71.682  1.00  0.00    -0.343 A  
ENDBRANCH  17  20
ENDBRANCH  15  16
BRANCH  15  29
HETATM   29  C   UNL     1      -7.429   6.830  69.896  1.00  0.00    -0.095 C  
BRANCH  29  30
HETATM   30  S   UNL     1      -7.202   6.063  71.543  1.00  0.00    -0.085 SA 
BRANCH  30  31
HETATM   31  C   UNL     1      -8.211   4.601  71.488  1.00  0.00    -0.103 A  
HETATM   32  C   UNL     1      -9.238   2.904  70.082  1.00  0.00    -0.207 A  
HETATM   33  C   UNL     1      -8.555   4.112  70.220  1.00  0.00    -0.104 A  
HETATM   34  C   UNL     1      -9.256   2.653  72.480  1.00  0.00    -0.129 A  
HETATM   35  C   UNL     1      -9.583   2.170  71.214  1.00  0.00    -0.216 A  
HETATM   36  C   UNL     1      -8.572   3.864  72.618  1.00  0.00    -0.102 A  
ENDBRANCH  30  31
ENDBRANCH  29  30
ENDBRANCH  15  29
ENDBRANCH  12  15
ENDBRANCH  11  12
ENDBRANCH   8  11
BRANCH   9  37
HETATM   37  C   UNL     1      -7.959  12.710  67.145  1.00  0.00    -0.122 C  
HETATM   38  C   UNL     1      -7.298  15.779  67.339  1.00  0.00    -0.229 C  
HETATM   39  O   UNL     1      -6.737  12.660  67.027  1.00  0.00    -0.084 OA 
HETATM   40  C   UNL     1      -9.006  15.719  69.150  1.00  0.00    -0.256 C  
HETATM   41  C   UNL     1      -7.931  14.894  68.422  1.00  0.00    -0.134 C  
HETATM   42  N   UNL     1      -8.602  13.727  67.831  1.00  0.00    -0.170 N  
HETATM   43  C   UNL     1      -6.862  14.477  69.442  1.00  0.00    -0.149 C  
HETATM   44  H   UNL     1      -9.615  13.663  67.934  1.00  0.00     0.000 HD 
ENDBRANCH   9  37
TORSDOF 9
ENDMDL
MODEL       62
REMARK 921   NORMALIZED FREE ENERGY PREDICTED BY IDOCK:   -6.05 KCAL/MOL
REMARK 922        TOTAL FREE ENERGY PREDICTED BY IDOCK:  -12.07 KCAL/MOL
REMARK 923 INTER-LIGAND FREE ENERGY PREDICTED BY IDOCK:  -10.38 KCAL/MOL
REMARK 924 INTRA-LIGAND FREE ENERGY PREDICTED BY IDOCK:   -1.70 KCAL/MOL
REMARK 927      BINDING AFFINITY PREDICTED BY RF-SCORE:    0.00 PKD
ROOT
HETATM    1  C   UNL     1      -7.205   9.463  64.930  1.00  0.00    -0.106 C  
HETATM    2  C   UNL     1      -7.432   8.395  63.855  1.00  0.00    -0.116 C  
HETATM    3  C   UNL     1      -7.889   7.072  64.458  1.00  0.00    -0.118 C  
HETATM    4  C   UNL     1      -6.875   6.555  65.469  1.00  0.00    -0.048 C  
HETATM    5  C   UNL     1      -6.542   7.577  66.556  1.00  0.00    -0.053 C  
HETATM    6  C   UNL     1      -6.244   8.987  66.022  1.00  0.00    -0.059 C  
HETATM    7  C   UNL     1      -6.188  10.052  67.130  1.00  0.00    -0.066 C  
HETATM    8  N   UNL     1      -7.457  10.255  67.838  1.00  0.00    -0.087 NA 
HETATM    9  C   UNL     1      -8.651  10.299  66.974  1.00  0.00    -0.129 C  
HETATM   10  C   UNL     1      -8.534  10.010  65.465  1.00  0.00    -0.155 C  
ENDROOT
BRANCH   8  11
HETATM   11  C   UNL     1      -7.369  11.418  68.758  1.00  0.00    -0.114 C  
BRANCH  11  12
HETATM   12  C   UNL     1      -7.190  12.856  68.167  1.00  0.00    -0.114 C  
HETATM   13  H   UNL     1      -6.229  13.714  66.647  1.00  0.00     0.000 HD 
HETATM   14  O   UNL     1      -6.338  12.841  67.006  1.00  0.00    -0.219 OA 
BRANCH  12  15
HETATM   15  C   UNL     1      -8.524  13.592  67.867  1.00  0.00    -0.179 C  
BRANCH  15  16
HETATM   16  N   UNL     1      -9.511  13.478  68.948  1.00  0.00    -0.402 N  
HETATM   17  C   UNL     1     -10.820  13.109  68.740  1.00  0.00    -0.246 C  
HETATM   18  O   UNL     1     -11.302  12.851  67.642  1.00  0.00    -0.269 OA 
HETATM   19  H   UNL     1      -9.211  13.682  69.901  1.00  0.00     0.000 HD 
BRANCH  17  20
HETATM   20  C   UNL     1     -11.697  13.080  69.934  1.00  0.00    -0.326 A  
HETATM   21  C   UNL     1     -11.982  11.825  70.502  1.00  0.00    -0.383 A  
HETATM   22  H   UNL     1     -14.458  15.079  72.782  1.00  0.00     0.000 HD 
HETATM   23  C   UNL     1     -12.281  14.259  70.446  1.00  0.00    -0.411 A  
HETATM   24  C   UNL     1     -13.176  14.116  71.516  1.00  0.00    -0.353 A  
HETATM   25  C   UNL     1     -12.835  11.726  71.593  1.00  0.00    -0.433 A  
HETATM   26  C   UNL     1     -11.979  15.635  69.906  1.00  0.00    -0.376 C  
HETATM   27  O   UNL     1     -13.851  15.176  72.057  1.00  0.00    -0.408 OA 
HETATM   28  C   UNL     1     -13.436  12.876  72.095  1.00  0.00    -0.619 A  
ENDBRANCH  17  20
ENDBRANCH  15  16
BRANCH  15  29
HETATM   29  C   UNL     1      -8.324  15.061  67.388  1.00  0.00    -0.190 C  
BRANCH  29  30
HETATM   30  S   UNL     1      -9.727  15.795  66.470  1.00  0.00    -0.287 SA 
BRANCH  30  31
HETATM   31  C   UNL     1      -9.756  17.492  66.999  1.00  0.00    -0.284 A  
HETATM   32  C   UNL     1     -10.520  19.749  66.512  1.00  0.00    -0.615 A  
HETATM   33  C   UNL     1     -10.342  18.420  66.127  1.00  0.00    -0.431 A  
HETATM   34  C   UNL     1      -9.521  19.250  68.649  1.00  0.00    -0.463 A  
HETATM   35  C   UNL     1     -10.114  20.163  67.779  1.00  0.00    -0.540 A  
HETATM   36  C   UNL     1      -9.342  17.919  68.262  1.00  0.00    -0.287 A  
ENDBRANCH  30  31
ENDBRANCH  29  30
ENDBRANCH  15  29
ENDBRANCH  12  15
ENDBRANCH  11  12
ENDBRANCH   8  11
BRANCH   9  37
HETATM   37  C   UNL     1      -9.748   9.363  67.572  1.00  0.00    -0.157 C  
HETATM   38  C   UNL     1     -10.909   6.443  67.701  1.00  0.00    -0.425 C  
HETATM   39  O   UNL     1     -10.948   9.625  67.579  1.00  0.00    -0.260 OA 
HETATM   40  C   UNL     1      -9.059   6.109  69.332  1.00  0.00    -0.135 C  
HETATM   41  C   UNL     1     -10.036   7.144  68.751  1.00  0.00    -0.173 C  
HETATM   42  N   UNL     1      -9.230   8.214  68.147  1.00  0.00    -0.134 N  
HETATM   43  C   UNL     1     -10.919   7.674  69.890  1.00  0.00    -0.208 C  
HETATM   44  H   UNL     1      -8.217   8.101  68.150  1.00  0.00     0.000 HD 
ENDBRANCH   9  37
TORSDOF 9
ENDMDL
MODEL       63
REMARK 921   NORMALIZED FREE ENERGY PREDICTED BY IDOCK:   -6.04 KCAL/MOL
REMARK 922        TOTAL FREE ENERGY PREDICTED BY IDOCK:  -12.06 KCAL/MOL
REMARK 923 INTER-LIGAND FREE ENERGY PREDICTED BY IDOCK:  -10.04 KCAL/MOL
REMARK 924 INTRA-LIGAND FREE ENERGY PREDICTED BY IDOCK:   -2.02 KCAL/MOL
REMARK 927      BINDING AFFINITY PREDICTED BY RF-SCORE:    0.00 PKD
ROOT
HETATM    1  C   UNL     1     -14.055  14.622  71.644  1.00  0.00    -0.571 C  
HETATM    2  C   UNL     1     -14.373  15.739  72.644  1.00  0.00    -0.189 C  
HETATM    3  C   UNL     1     -13.108  16.338  73.246  1.00  0.00    -0.432 C  
HETATM    4  C   UNL     1     -12.275  15.268  73.939  1.00  0.00    -0.735 C  
HETATM    5  C   UNL     1     -11.953  14.081  73.032  1.00  0.00     0.740 C  
HETATM    6  C   UNL     1     -13.162  13.540  72.254  1.00  0.00    -0.571 C  
HETATM    7  C   UNL     1     -12.771  12.542  71.149  1.00  0.00    -0.245 C  
HETATM    8  N   UNL     1     -11.951  13.117  70.078  1.00  0.00    -0.339 NA 
HETATM    9  C   UNL     1     -12.384  14.447  69.609  1.00  0.00    -0.255 C  
HETATM   10  C   UNL     1     -13.531  15.190  70.319  1.00  0.00     0.166 C  
ENDROOT
BRANCH   8  11
HETATM   11  C   UNL     1     -11.773  12.146  68.969  1.00  0.00    -0.322 C  
BRANCH  11  12
HETATM   12  C   UNL     1     -10.403  12.079  68.214  1.00  0.00    -0.204 C  
HETATM   13  H   UNL     1      -8.547  12.756  68.470  1.00  0.00     0.000 HD 
HETATM   14  O   UNL     1      -9.378  12.797  68.928  1.00  0.00     0.080 OA 
BRANCH  12  15
HETATM   15  C   UNL     1      -9.936  10.640  67.871  1.00  0.00    -0.166 C  
BRANCH  15  16
HETATM   16  N   UNL     1     -10.544   9.608  68.720  1.00  0.00    -0.215 N  
HETATM   17  C   UNL     1     -10.029   9.232  69.939  1.00  0.00    -0.205 C  
HETATM   18  O   UNL     1      -9.013   9.703  70.437  1.00  0.00    -0.244 OA 
HETATM   19  H   UNL     1     -11.391   9.146  68.389  1.00  0.00     0.000 HD 
BRANCH  17  20
HETATM   20  C   UNL     1     -10.743   8.147  70.653  1.00  0.00    -0.238 A  
HETATM   21  C   UNL     1     -11.934   8.482  71.322  1.00  0.00    -0.334 A  
HETATM   22  H   UNL     1     -10.939   3.997  72.223  1.00  0.00     0.000 HD 
HETATM   23  C   UNL     1     -10.215   6.839  70.718  1.00  0.00    -0.215 A  
HETATM   24  C   UNL     1     -10.911   5.908  71.501  1.00  0.00    -0.262 A  
HETATM   25  C   UNL     1     -12.624   7.521  72.048  1.00  0.00    -0.268 A  
HETATM   26  C   UNL     1      -8.966   6.413  69.987  1.00  0.00    -0.146 C  
HETATM   27  O   UNL     1     -10.467   4.628  71.691  1.00  0.00    -0.156 OA 
HETATM   28  C   UNL     1     -12.106   6.233  72.141  1.00  0.00    -0.304 A  
ENDBRANCH  17  20
ENDBRANCH  15  16
BRANCH  15  29
HETATM   29  C   UNL     1     -10.036  10.304  66.352  1.00  0.00    -0.229 C  
BRANCH  29  30
HETATM   30  S   UNL     1      -9.221  11.491  65.221  1.00  0.00    -0.005 SA 
BRANCH  30  31
HETATM   31  C   UNL     1     -10.496  12.667  64.828  1.00  0.00    -0.320 A  
HETATM   32  C   UNL     1     -11.211  14.988  64.945  1.00  0.00    -0.423 A  
HETATM   33  C   UNL     1     -10.326  13.973  65.308  1.00  0.00    -0.403 A  
HETATM   34  C   UNL     1     -12.460  13.408  63.619  1.00  0.00    -0.316 A  
HETATM   35  C   UNL     1     -12.276  14.705  64.093  1.00  0.00    -0.343 A  
HETATM   36  C   UNL     1     -11.573  12.391  63.985  1.00  0.00    -0.488 A  
ENDBRANCH  30  31
ENDBRANCH  29  30
ENDBRANCH  15  29
ENDBRANCH  12  15
ENDBRANCH  11  12
ENDBRANCH   8  11
BRANCH   9  37
HETATM   37  C   UNL     1     -11.144  15.395  69.550  1.00  0.00    -0.284 C  
HETATM   38  C   UNL     1      -8.708  16.412  67.841  1.00  0.00    -0.179 C  
HETATM   39  O   UNL     1     -10.298  15.479  70.438  1.00  0.00    -0.293 OA 
HETATM   40  C   UNL     1     -10.447  17.838  66.774  1.00  0.00    -0.300 C  
HETATM   41  C   UNL     1     -10.042  17.132  68.079  1.00  0.00    -0.311 C  
HETATM   42  N   UNL     1     -11.111  16.179  68.409  1.00  0.00    -0.346 N  
HETATM   43  C   UNL     1      -9.871  18.194  69.175  1.00  0.00    -0.167 C  
HETATM   44  H   UNL     1     -11.884  16.089  67.750  1.00  0.00     0.000 HD 
ENDBRANCH   9  37
TORSDOF 9
ENDMDL
MODEL       64
REMARK 921   NORMALIZED FREE ENERGY PREDICTED BY IDOCK:   -6.04 KCAL/MOL
REMARK 922        TOTAL FREE ENERGY PREDICTED BY IDOCK:  -12.05 KCAL/MOL
REMARK 923 INTER-LIGAND FREE ENERGY PREDICTED BY IDOCK:  -10.13 KCAL/MOL
REMARK 924 INTRA-LIGAND FREE ENERGY PREDICTED BY IDOCK:   -1.92 KCAL/MOL
REMARK 927      BINDING AFFINITY PREDICTED BY RF-SCORE:    0.00 PKD
ROOT
HETATM    1  C   UNL     1      -9.728  13.516  66.214  1.00  0.00    -0.287 C  
HETATM    2  C   UNL     1     -10.284  14.591  65.274  1.00  0.00    -0.431 C  
HETATM    3  C   UNL     1     -11.807  14.641  65.309  1.00  0.00    -0.324 C  
HETATM    4  C   UNL     1     -12.404  13.292  64.935  1.00  0.00    -0.476 C  
HETATM    5  C   UNL     1     -11.865  12.143  65.786  1.00  0.00    -0.342 C  
HETATM    6  C   UNL     1     -10.336  12.139  65.940  1.00  0.00    -0.286 C  
HETATM    7  C   UNL     1      -9.841  11.157  67.015  1.00  0.00    -0.185 C  
HETATM    8  N   UNL     1     -10.284  11.476  68.376  1.00  0.00    -0.199 NA 
HETATM    9  C   UNL     1     -10.207  12.904  68.736  1.00  0.00    -0.091 C  
HETATM   10  C   UNL     1      -9.815  13.956  67.681  1.00  0.00    -0.236 C  
ENDROOT
BRANCH   8  11
HETATM   11  C   UNL     1      -9.618  10.596  69.370  1.00  0.00    -0.096 C  
BRANCH  11  12
HETATM   12  C   UNL     1      -8.840   9.329  68.879  1.00  0.00    -0.135 C  
HETATM   13  H   UNL     1      -6.980   8.620  68.962  1.00  0.00     0.000 HD 
HETATM   14  O   UNL     1      -7.452   9.388  69.260  1.00  0.00    -0.071 OA 
BRANCH  12  15
HETATM   15  C   UNL     1      -9.478   7.982  69.313  1.00  0.00    -0.155 C  
BRANCH  15  16
HETATM   16  N   UNL     1      -9.322   6.913  68.318  1.00  0.00    -0.126 N  
HETATM   17  C   UNL     1     -10.276   5.948  68.090  1.00  0.00    -0.184 C  
HETATM   18  O   UNL     1     -11.340   5.869  68.693  1.00  0.00    -0.145 OA 
HETATM   19  H   UNL     1      -8.463   6.885  67.768  1.00  0.00     0.000 HD 
BRANCH  17  20
HETATM   20  C   UNL     1      -9.945   4.918  67.078  1.00  0.00    -0.238 A  
HETATM   21  C   UNL     1     -10.375   5.142  65.757  1.00  0.00    -0.092 A  
HETATM   22  H   UNL     1      -8.413   0.896  65.978  1.00  0.00     0.000 HD 
HETATM   23  C   UNL     1      -9.282   3.723  67.434  1.00  0.00    -0.212 A  
HETATM   24  C   UNL     1      -9.105   2.766  66.426  1.00  0.00    -0.125 A  
HETATM   25  C   UNL     1     -10.138   4.192  64.772  1.00  0.00    -0.204 A  
HETATM   26  C   UNL     1      -8.762   3.447  68.823  1.00  0.00    -0.143 C  
HETATM   27  O   UNL     1      -8.533   1.546  66.661  1.00  0.00    -0.084 OA 
HETATM   28  C   UNL     1      -9.507   3.000  65.112  1.00  0.00    -0.103 A  
ENDBRANCH  17  20
ENDBRANCH  15  16
BRANCH  15  29
HETATM   29  C   UNL     1      -9.060   7.536  70.746  1.00  0.00    -0.154 C  
BRANCH  29  30
HETATM   30  S   UNL     1      -9.723   8.550  72.119  1.00  0.00    -0.316 SA 
BRANCH  30  31
HETATM   31  C   UNL     1     -11.486   8.456  71.922  1.00  0.00    -0.318 A  
HETATM   32  C   UNL     1     -13.437   7.006  71.828  1.00  0.00    -0.307 A  
HETATM   33  C   UNL     1     -12.052   7.175  71.857  1.00  0.00    -0.357 A  
HETATM   34  C   UNL     1     -13.718   9.399  71.918  1.00  0.00    -0.440 A  
HETATM   35  C   UNL     1     -14.271   8.121  71.865  1.00  0.00    -0.530 A  
HETATM   36  C   UNL     1     -12.331   9.567  71.946  1.00  0.00    -0.450 A  
ENDBRANCH  30  31
ENDBRANCH  29  30
ENDBRANCH  15  29
ENDBRANCH  12  15
ENDBRANCH  11  12
ENDBRANCH   8  11
BRANCH   9  37
HETATM   37  C   UNL     1     -11.557  13.339  69.389  1.00  0.00    -0.305 C  
HETATM   38  C   UNL     1     -13.385  13.219  71.944  1.00  0.00    -0.540 C  
HETATM   39  O   UNL     1     -12.653  13.223  68.845  1.00  0.00     0.142 OA 
HETATM   40  C   UNL     1     -11.872  15.031  72.735  1.00  0.00    -0.391 C  
HETATM   41  C   UNL     1     -12.501  14.387  71.488  1.00  0.00    -0.355 C  
HETATM   42  N   UNL     1     -11.398  13.920  70.636  1.00  0.00    -0.451 N  
HETATM   43  C   UNL     1     -13.360  15.442  70.775  1.00  0.00    -0.385 C  
HETATM   44  H   UNL     1     -10.448  14.031  70.989  1.00  0.00     0.000 HD 
ENDBRANCH   9  37
TORSDOF 9
ENDMDL
MODEL       65
REMARK 921   NORMALIZED FREE ENERGY PREDICTED BY IDOCK:   -6.02 KCAL/MOL
REMARK 922        TOTAL FREE ENERGY PREDICTED BY IDOCK:  -12.02 KCAL/MOL
REMARK 923 INTER-LIGAND FREE ENERGY PREDICTED BY IDOCK:  -10.14 KCAL/MOL
REMARK 924 INTRA-LIGAND FREE ENERGY PREDICTED BY IDOCK:   -1.88 KCAL/MOL
REMARK 927      BINDING AFFINITY PREDICTED BY RF-SCORE:    0.00 PKD
ROOT
HETATM    1  C   UNL     1      -9.504   4.621  67.181  1.00  0.00    -0.171 C  
HETATM    2  C   UNL     1      -9.545   3.203  67.760  1.00  0.00    -0.120 C  
HETATM    3  C   UNL     1      -9.022   3.159  69.190  1.00  0.00    -0.181 C  
HETATM    4  C   UNL     1      -7.597   3.689  69.265  1.00  0.00    -0.052 C  
HETATM    5  C   UNL     1      -7.445   5.084  68.659  1.00  0.00    -0.070 C  
HETATM    6  C   UNL     1      -8.111   5.246  67.283  1.00  0.00    -0.101 C  
HETATM    7  C   UNL     1      -8.191   6.711  66.821  1.00  0.00    -0.114 C  
HETATM    8  N   UNL     1      -9.027   7.568  67.669  1.00  0.00    -0.127 NA 
HETATM    9  C   UNL     1     -10.304   6.965  68.094  1.00  0.00    -0.190 C  
HETATM   10  C   UNL     1     -10.623   5.495  67.761  1.00  0.00    -0.229 C  
ENDROOT
BRANCH   8  11
HETATM   11  C   UNL     1      -9.200   8.910  67.058  1.00  0.00    -0.137 C  
BRANCH  11  12
HETATM   12  C   UNL     1      -8.227  10.070  67.455  1.00  0.00    -0.118 C  
HETATM   13  H   UNL     1      -6.860  11.215  66.566  1.00  0.00     0.000 HD 
HETATM   14  O   UNL     1      -7.451  10.511  66.325  1.00  0.00    -0.120 OA 
BRANCH  12  15
HETATM   15  C   UNL     1      -8.919  11.270  68.155  1.00  0.00    -0.166 C  
BRANCH  15  16
HETATM   16  N   UNL     1      -9.676  12.128  67.233  1.00  0.00    -0.189 N  
HETATM   17  C   UNL     1      -9.182  13.305  66.720  1.00  0.00    -0.233 C  
HETATM   18  O   UNL     1      -8.077  13.766  66.981  1.00  0.00    -0.118 OA 
HETATM   19  H   UNL     1     -10.615  11.836  66.961  1.00  0.00     0.000 HD 
BRANCH  17  20
HETATM   20  C   UNL     1     -10.090  14.072  65.834  1.00  0.00    -0.336 A  
HETATM   21  C   UNL     1     -10.267  15.440  66.110  1.00  0.00    -0.324 A  
HETATM   22  H   UNL     1     -13.125  14.255  62.596  1.00  0.00     0.000 HD 
HETATM   23  C   UNL     1     -10.804  13.442  64.791  1.00  0.00    -0.387 A  
HETATM   24  C   UNL     1     -11.714  14.230  64.073  1.00  0.00    -0.163 A  
HETATM   25  C   UNL     1     -11.141  16.202  65.346  1.00  0.00    -0.126 A  
HETATM   26  C   UNL     1     -10.623  11.991  64.422  1.00  0.00    -0.361 C  
HETATM   27  O   UNL     1     -12.508  13.721  63.082  1.00  0.00    -0.786 OA 
HETATM   28  C   UNL     1     -11.869  15.592  64.330  1.00  0.00    -0.222 A  
ENDBRANCH  17  20
ENDBRANCH  15  16
BRANCH  15  29
HETATM   29  C   UNL     1      -9.746  10.859  69.409  1.00  0.00     0.009 C  
BRANCH  29  30
HETATM   30  S   UNL     1     -11.565  10.990  69.241  1.00  0.00    -0.342 SA 
BRANCH  30  31
HETATM   31  C   UNL     1     -11.976  12.500  70.084  1.00  0.00    -0.301 A  
HETATM   32  C   UNL     1     -11.975  14.930  69.995  1.00  0.00    -0.377 A  
HETATM   33  C   UNL     1     -11.586  13.698  69.469  1.00  0.00    -0.361 A  
HETATM   34  C   UNL     1     -13.143  13.790  71.770  1.00  0.00    -0.463 A  
HETATM   35  C   UNL     1     -12.760  14.975  71.144  1.00  0.00    -0.431 A  
HETATM   36  C   UNL     1     -12.753  12.556  71.242  1.00  0.00    -0.350 A  
ENDBRANCH  30  31
ENDBRANCH  29  30
ENDBRANCH  15  29
ENDBRANCH  12  15
ENDBRANCH  11  12
ENDBRANCH   8  11
BRANCH   9  37
HETATM   37  C   UNL     1     -10.477   7.171  69.632  1.00  0.00    -0.229 C  
HETATM   38  C   UNL     1     -12.048   8.665  71.911  1.00  0.00    -0.422 C  
HETATM   39  O   UNL     1      -9.548   7.386  70.408  1.00  0.00    -0.166 OA 
HETATM   40  C   UNL     1     -13.748   6.899  71.474  1.00  0.00    -0.274 C  
HETATM   41  C   UNL     1     -12.243   7.216  71.442  1.00  0.00    -0.362 C  
HETATM   42  N   UNL     1     -11.790   7.039  70.056  1.00  0.00    -0.600 N  
HETATM   43  C   UNL     1     -11.523   6.258  72.402  1.00  0.00    -0.335 C  
HETATM   44  H   UNL     1     -12.491   6.801  69.355  1.00  0.00     0.000 HD 
ENDBRANCH   9  37
TORSDOF 9
ENDMDL
MODEL       66
REMARK 921   NORMALIZED FREE ENERGY PREDICTED BY IDOCK:   -6.02 KCAL/MOL
REMARK 922        TOTAL FREE ENERGY PREDICTED BY IDOCK:  -12.02 KCAL/MOL
REMARK 923 INTER-LIGAND FREE ENERGY PREDICTED BY IDOCK:   -9.89 KCAL/MOL
REMARK 924 INTRA-LIGAND FREE ENERGY PREDICTED BY IDOCK:   -2.13 KCAL/MOL
REMARK 927      BINDING AFFINITY PREDICTED BY RF-SCORE:    0.00 PKD
ROOT
HETATM    1  C   UNL     1      -8.314   6.902  73.380  1.00  0.00    -0.133 C  
HETATM    2  C   UNL     1      -8.215   5.932  74.561  1.00  0.00    -0.112 C  
HETATM    3  C   UNL     1      -8.833   4.578  74.236  1.00  0.00    -0.108 C  
HETATM    4  C   UNL     1     -10.294   4.729  73.834  1.00  0.00    -0.281 C  
HETATM    5  C   UNL     1     -10.500   5.723  72.693  1.00  0.00    -0.243 C  
HETATM    6  C   UNL     1      -9.751   7.053  72.876  1.00  0.00    -0.188 C  
HETATM    7  C   UNL     1      -9.742   7.920  71.605  1.00  0.00    -0.163 C  
HETATM    8  N   UNL     1      -9.030   7.322  70.471  1.00  0.00    -0.153 NA 
HETATM    9  C   UNL     1      -7.747   6.679  70.812  1.00  0.00    -0.097 C  
HETATM   10  C   UNL     1      -7.303   6.552  72.281  1.00  0.00    -0.090 C  
ENDROOT
BRANCH   8  11
HETATM   11  C   UNL     1      -8.908   8.291  69.352  1.00  0.00    -0.146 C  
BRANCH  11  12
HETATM   12  C   UNL     1      -8.702   9.810  69.668  1.00  0.00    -0.199 C  
HETATM   13  H   UNL     1      -7.180  11.054  69.989  1.00  0.00     0.000 HD 
HETATM   14  O   UNL     1      -7.305  10.132  69.798  1.00  0.00    -0.123 OA 
BRANCH  12  15
HETATM   15  C   UNL     1      -9.401  10.769  68.666  1.00  0.00    -0.184 C  
BRANCH  15  16
HETATM   16  N   UNL     1     -10.094  11.890  69.314  1.00  0.00    -0.394 N  
HETATM   17  C   UNL     1     -11.424  12.177  69.110  1.00  0.00    -0.296 C  
HETATM   18  O   UNL     1     -12.163  11.544  68.365  1.00  0.00    -0.540 OA 
HETATM   19  H   UNL     1      -9.561  12.486  69.948  1.00  0.00     0.000 HD 
BRANCH  17  20
HETATM   20  C   UNL     1     -11.959  13.368  69.811  1.00  0.00    -0.396 A  
HETATM   21  C   UNL     1     -11.688  14.629  69.251  1.00  0.00    -0.348 A  
HETATM   22  H   UNL     1     -13.916  15.261  73.320  1.00  0.00     0.000 HD 
HETATM   23  C   UNL     1     -12.657  13.249  71.033  1.00  0.00    -0.408 A  
HETATM   24  C   UNL     1     -13.034  14.439  71.671  1.00  0.00    -0.341 A  
HETATM   25  C   UNL     1     -12.121  15.786  69.886  1.00  0.00    -0.315 A  
HETATM   26  C   UNL     1     -13.013  11.923  71.658  1.00  0.00    -0.447 C  
HETATM   27  O   UNL     1     -13.661  14.455  72.887  1.00  0.00    -0.586 OA 
HETATM   28  C   UNL     1     -12.790  15.687  71.102  1.00  0.00    -0.540 A  
ENDBRANCH  17  20
ENDBRANCH  15  16
BRANCH  15  29
HETATM   29  C   UNL     1      -8.474  11.227  67.501  1.00  0.00    -0.131 C  
BRANCH  29  30
HETATM   30  S   UNL     1      -8.884  10.556  65.848  1.00  0.00    -0.171 SA 
BRANCH  30  31
HETATM   31  C   UNL     1      -9.967  11.772  65.137  1.00  0.00    -0.253 A  
HETATM   32  C   UNL     1     -11.787  12.197  63.581  1.00  0.00    -0.608 A  
HETATM   33  C   UNL     1     -10.819  11.343  64.110  1.00  0.00    -0.431 A  
HETATM   34  C   UNL     1     -11.065  13.932  65.092  1.00  0.00    -0.334 A  
HETATM   35  C   UNL     1     -11.914  13.492  64.078  1.00  0.00    -0.501 A  
HETATM   36  C   UNL     1     -10.094  13.076  65.620  1.00  0.00    -0.276 A  
ENDBRANCH  30  31
ENDBRANCH  29  30
ENDBRANCH  15  29
ENDBRANCH  12  15
ENDBRANCH  11  12
ENDBRANCH   8  11
BRANCH   9  37
HETATM   37  C   UNL     1      -7.697   5.263  70.157  1.00  0.00    -0.072 C  
HETATM   38  C   UNL     1      -6.018   2.640  69.721  1.00  0.00    -0.023 C  
HETATM   39  O   UNL     1      -7.981   5.036  68.983  1.00  0.00    -0.079 OA 
HETATM   40  C   UNL     1      -6.872   2.083  71.992  1.00  0.00    -0.018 C  
HETATM   41  C   UNL     1      -7.187   2.844  70.694  1.00  0.00    -0.033 C  
HETATM   42  N   UNL     1      -7.345   4.262  71.047  1.00  0.00    -0.043 N  
HETATM   43  C   UNL     1      -8.474   2.264  70.088  1.00  0.00    -0.087 C  
HETATM   44  H   UNL     1      -7.183   4.528  72.018  1.00  0.00     0.000 HD 
ENDBRANCH   9  37
TORSDOF 9
ENDMDL
MODEL       67
REMARK 921   NORMALIZED FREE ENERGY PREDICTED BY IDOCK:   -6.02 KCAL/MOL
REMARK 922        TOTAL FREE ENERGY PREDICTED BY IDOCK:  -12.02 KCAL/MOL
REMARK 923 INTER-LIGAND FREE ENERGY PREDICTED BY IDOCK:  -10.19 KCAL/MOL
REMARK 924 INTRA-LIGAND FREE ENERGY PREDICTED BY IDOCK:   -1.83 KCAL/MOL
REMARK 927      BINDING AFFINITY PREDICTED BY RF-SCORE:    0.00 PKD
ROOT
HETATM    1  C   UNL     1     -10.977  14.896  65.752  1.00  0.00    -0.345 C  
HETATM    2  C   UNL     1     -10.946  16.278  65.090  1.00  0.00    -0.285 C  
HETATM    3  C   UNL     1     -10.201  17.298  65.943  1.00  0.00    -0.273 C  
HETATM    4  C   UNL     1     -10.832  17.418  67.323  1.00  0.00    -0.126 C  
HETATM    5  C   UNL     1     -10.957  16.075  68.042  1.00  0.00    -0.341 C  
HETATM    6  C   UNL     1     -11.540  14.950  67.173  1.00  0.00    -0.327 C  
HETATM    7  C   UNL     1     -11.398  13.559  67.814  1.00  0.00    -0.296 C  
HETATM    8  N   UNL     1     -10.012  13.116  67.998  1.00  0.00    -0.227 NA 
HETATM    9  C   UNL     1      -9.118  13.384  66.857  1.00  0.00    -0.231 C  
HETATM   10  C   UNL     1      -9.618  14.194  65.645  1.00  0.00    -0.115 C  
ENDROOT
BRANCH   8  11
HETATM   11  C   UNL     1      -9.964  11.701  68.447  1.00  0.00    -0.201 C  
BRANCH  11  12
HETATM   12  C   UNL     1     -11.231  10.797  68.285  1.00  0.00    -0.297 C  
HETATM   13  H   UNL     1     -11.802   9.248  67.170  1.00  0.00     0.000 HD 
HETATM   14  O   UNL     1     -11.033   9.796  67.269  1.00  0.00    -0.235 OA 
BRANCH  12  15
HETATM   15  C   UNL     1     -11.727  10.154  69.608  1.00  0.00    -0.098 C  
BRANCH  15  16
HETATM   16  N   UNL     1     -11.120   8.846  69.887  1.00  0.00    -0.392 N  
HETATM   17  C   UNL     1     -11.729   7.877  70.650  1.00  0.00    -0.157 C  
HETATM   18  O   UNL     1     -12.825   8.002  71.183  1.00  0.00    -0.231 OA 
HETATM   19  H   UNL     1     -10.199   8.647  69.495  1.00  0.00     0.000 HD 
BRANCH  17  20
HETATM   20  C   UNL     1     -10.963   6.627  70.867  1.00  0.00    -0.315 A  
HETATM   21  C   UNL     1     -10.735   5.802  69.751  1.00  0.00    -0.418 A  
HETATM   22  H   UNL     1      -9.075   3.640  73.558  1.00  0.00     0.000 HD 
HETATM   23  C   UNL     1     -10.533   6.243  72.156  1.00  0.00    -0.228 A  
HETATM   24  C   UNL     1      -9.905   4.995  72.274  1.00  0.00    -0.166 A  
HETATM   25  C   UNL     1     -10.065   4.594  69.897  1.00  0.00    -0.257 A  
HETATM   26  C   UNL     1     -10.712   7.106  73.380  1.00  0.00    -0.410 C  
HETATM   27  O   UNL     1      -9.500   4.486  73.477  1.00  0.00    -0.117 OA 
HETATM   28  C   UNL     1      -9.655   4.190  71.164  1.00  0.00    -0.249 A  
ENDBRANCH  17  20
ENDBRANCH  15  16
BRANCH  15  29
HETATM   29  C   UNL     1     -11.659  11.121  70.827  1.00  0.00     0.038 C  
BRANCH  29  30
HETATM   30  S   UNL     1     -13.273  11.660  71.505  1.00  0.00    -0.054 SA 
BRANCH  30  31
HETATM   31  C   UNL     1     -13.114  13.423  71.662  1.00  0.00    -0.375 A  
HETATM   32  C   UNL     1     -13.992  15.450  72.679  1.00  0.00    -0.590 A  
HETATM   33  C   UNL     1     -14.103  14.088  72.400  1.00  0.00    -0.576 A  
HETATM   34  C   UNL     1     -11.903  15.514  71.477  1.00  0.00    -0.472 A  
HETATM   35  C   UNL     1     -12.886  16.162  72.222  1.00  0.00    -0.303 A  
HETATM   36  C   UNL     1     -12.015  14.149  71.198  1.00  0.00    -0.316 A  
ENDBRANCH  30  31
ENDBRANCH  29  30
ENDBRANCH  15  29
ENDBRANCH  12  15
ENDBRANCH  11  12
ENDBRANCH   8  11
BRANCH   9  37
HETATM   37  C   UNL     1      -7.804  14.044  67.383  1.00  0.00    -0.170 C  
HETATM   38  C   UNL     1      -5.827  16.479  67.156  1.00  0.00    -0.174 C  
HETATM   39  O   UNL     1      -6.737  13.448  67.511  1.00  0.00    -0.163 OA 
HETATM   40  C   UNL     1      -7.528  17.598  68.589  1.00  0.00    -0.273 C  
HETATM   41  C   UNL     1      -6.892  16.243  68.237  1.00  0.00    -0.132 C  
HETATM   42  N   UNL     1      -7.967  15.372  67.744  1.00  0.00    -0.138 N  
HETATM   43  C   UNL     1      -6.232  15.671  69.500  1.00  0.00    -0.152 C  
HETATM   44  H   UNL     1      -8.901  15.773  67.661  1.00  0.00     0.000 HD 
ENDBRANCH   9  37
TORSDOF 9
ENDMDL
MODEL       68
REMARK 921   NORMALIZED FREE ENERGY PREDICTED BY IDOCK:   -6.01 KCAL/MOL
REMARK 922        TOTAL FREE ENERGY PREDICTED BY IDOCK:  -12.01 KCAL/MOL
REMARK 923 INTER-LIGAND FREE ENERGY PREDICTED BY IDOCK:   -9.46 KCAL/MOL
REMARK 924 INTRA-LIGAND FREE ENERGY PREDICTED BY IDOCK:   -2.55 KCAL/MOL
REMARK 927      BINDING AFFINITY PREDICTED BY RF-SCORE:    0.00 PKD
ROOT
HETATM    1  C   UNL     1     -11.466  12.050  66.748  1.00  0.00    -0.410 C  
HETATM    2  C   UNL     1     -12.208  13.367  66.499  1.00  0.00    -0.414 C  
HETATM    3  C   UNL     1     -11.900  14.404  67.573  1.00  0.00    -0.418 C  
HETATM    4  C   UNL     1     -12.262  13.878  68.956  1.00  0.00    -0.274 C  
HETATM    5  C   UNL     1     -11.608  12.534  69.275  1.00  0.00    -0.378 C  
HETATM    6  C   UNL     1     -11.730  11.495  68.149  1.00  0.00    -0.357 C  
HETATM    7  C   UNL     1     -10.837  10.262  68.369  1.00  0.00    -0.245 C  
HETATM    8  N   UNL     1      -9.398  10.549  68.366  1.00  0.00    -0.152 NA 
HETATM    9  C   UNL     1      -8.952  11.477  67.311  1.00  0.00    -0.162 C  
HETATM   10  C   UNL     1      -9.978  12.171  66.396  1.00  0.00    -0.243 C  
ENDROOT
BRANCH   8  11
HETATM   11  C   UNL     1      -8.608   9.291  68.398  1.00  0.00    -0.124 C  
BRANCH  11  12
HETATM   12  C   UNL     1      -8.110   8.729  69.771  1.00  0.00    -0.111 C  
HETATM   13  H   UNL     1      -7.595   9.447  71.557  1.00  0.00     0.000 HD 
HETATM   14  O   UNL     1      -7.898   9.788  70.724  1.00  0.00    -0.304 OA 
BRANCH  12  15
HETATM   15  C   UNL     1      -9.013   7.617  70.369  1.00  0.00    -0.152 C  
BRANCH  15  16
HETATM   16  N   UNL     1      -8.853   6.315  69.711  1.00  0.00    -0.139 N  
HETATM   17  C   UNL     1      -9.877   5.664  69.062  1.00  0.00    -0.158 C  
HETATM   18  O   UNL     1     -11.023   6.090  68.975  1.00  0.00    -0.321 OA 
HETATM   19  H   UNL     1      -7.936   5.869  69.736  1.00  0.00     0.000 HD 
BRANCH  17  20
HETATM   20  C   UNL     1      -9.557   4.338  68.483  1.00  0.00    -0.202 A  
HETATM   21  C   UNL     1      -9.359   3.269  69.376  1.00  0.00    -0.232 A  
HETATM   22  H   UNL     1      -8.463   1.761  65.035  1.00  0.00     0.000 HD 
HETATM   23  C   UNL     1      -9.391   4.165  67.092  1.00  0.00    -0.198 A  
HETATM   24  C   UNL     1      -8.989   2.896  66.650  1.00  0.00    -0.155 A  
HETATM   25  C   UNL     1      -9.009   2.013  68.898  1.00  0.00    -0.162 A  
HETATM   26  C   UNL     1      -9.632   5.262  66.085  1.00  0.00    -0.176 C  
HETATM   27  O   UNL     1      -8.736   2.621  65.334  1.00  0.00    -0.106 OA 
HETATM   28  C   UNL     1      -8.819   1.831  67.533  1.00  0.00    -0.147 A  
ENDBRANCH  17  20
ENDBRANCH  15  16
BRANCH  15  29
HETATM   29  C   UNL     1      -8.927   7.521  71.922  1.00  0.00    -0.121 C  
BRANCH  29  30
HETATM   30  S   UNL     1     -10.371   6.763  72.753  1.00  0.00    -0.224 SA 
BRANCH  30  31
HETATM   31  C   UNL     1     -11.758   7.711  72.173  1.00  0.00    -0.311 A  
HETATM   32  C   UNL     1     -14.121   7.694  71.597  1.00  0.00    -0.547 A  
HETATM   33  C   UNL     1     -12.950   7.014  71.934  1.00  0.00    -0.283 A  
HETATM   34  C   UNL     1     -12.927   9.785  71.721  1.00  0.00    -0.536 A  
HETATM   35  C   UNL     1     -14.110   9.083  71.497  1.00  0.00    -0.299 A  
HETATM   36  C   UNL     1     -11.754   9.102  72.058  1.00  0.00    -0.384 A  
ENDBRANCH  30  31
ENDBRANCH  29  30
ENDBRANCH  15  29
ENDBRANCH  12  15
ENDBRANCH  11  12
ENDBRANCH   8  11
BRANCH   9  37
HETATM   37  C   UNL     1      -8.039  12.571  67.949  1.00  0.00    -0.163 C  
HETATM   38  C   UNL     1      -6.334  15.168  67.457  1.00  0.00    -0.109 C  
HETATM   39  O   UNL     1      -7.088  12.330  68.689  1.00  0.00    -0.093 OA 
HETATM   40  C   UNL     1      -8.559  16.280  67.572  1.00  0.00    -0.189 C  
HETATM   41  C   UNL     1      -7.738  15.080  68.073  1.00  0.00    -0.123 C  
HETATM   42  N   UNL     1      -8.435  13.862  67.637  1.00  0.00    -0.178 N  
HETATM   43  C   UNL     1      -7.640  15.161  69.603  1.00  0.00    -0.163 C  
HETATM   44  H   UNL     1      -9.271  13.975  67.063  1.00  0.00     0.000 HD 
ENDBRANCH   9  37
TORSDOF 9
ENDMDL
MODEL       69
REMARK 921   NORMALIZED FREE ENERGY PREDICTED BY IDOCK:   -6.01 KCAL/MOL
REMARK 922        TOTAL FREE ENERGY PREDICTED BY IDOCK:  -12.01 KCAL/MOL
REMARK 923 INTER-LIGAND FREE ENERGY PREDICTED BY IDOCK:   -9.65 KCAL/MOL
REMARK 924 INTRA-LIGAND FREE ENERGY PREDICTED BY IDOCK:   -2.36 KCAL/MOL
REMARK 927      BINDING AFFINITY PREDICTED BY RF-SCORE:    0.00 PKD
ROOT
HETATM    1  C   UNL     1     -11.810  14.068  68.401  1.00  0.00    -0.397 C  
HETATM    2  C   UNL     1     -12.108  14.810  69.708  1.00  0.00    -0.364 C  
HETATM    3  C   UNL     1     -11.098  15.921  69.973  1.00  0.00    -0.356 C  
HETATM    4  C   UNL     1      -9.681  15.366  70.023  1.00  0.00    -0.049 C  
HETATM    5  C   UNL     1      -9.309  14.560  68.780  1.00  0.00    -0.177 C  
HETATM    6  C   UNL     1     -10.375  13.538  68.353  1.00  0.00    -0.249 C  
HETATM    7  C   UNL     1     -10.115  12.943  66.958  1.00  0.00    -0.245 C  
HETATM    8  N   UNL     1     -10.170  13.918  65.864  1.00  0.00    -0.306 NA 
HETATM    9  C   UNL     1     -11.284  14.881  65.946  1.00  0.00    -0.328 C  
HETATM   10  C   UNL     1     -12.208  14.905  67.179  1.00  0.00     0.131 C  
ENDROOT
BRANCH   8  11
HETATM   11  C   UNL     1     -10.093  13.239  64.546  1.00  0.00    -0.216 C  
BRANCH  11  12
HETATM   12  C   UNL     1     -10.756  11.833  64.363  1.00  0.00    -0.327 C  
HETATM   13  H   UNL     1     -11.894  10.906  63.015  1.00  0.00     0.000 HD 
HETATM   14  O   UNL     1     -11.491  11.759  63.127  1.00  0.00    -0.290 OA 
BRANCH  12  15
HETATM   15  C   UNL     1      -9.769  10.642  64.493  1.00  0.00    -0.309 C  
BRANCH  15  16
HETATM   16  N   UNL     1     -10.173   9.655  65.502  1.00  0.00    -0.262 N  
HETATM   17  C   UNL     1      -9.399   9.328  66.592  1.00  0.00    -0.170 C  
HETATM   18  O   UNL     1      -8.297   9.810  66.829  1.00  0.00    -0.123 OA 
HETATM   19  H   UNL     1     -11.072   9.187  65.390  1.00  0.00     0.000 HD 
BRANCH  17  20
HETATM   20  C   UNL     1      -9.936   8.283  67.495  1.00  0.00    -0.252 A  
HETATM   21  C   UNL     1     -10.175   7.010  66.947  1.00  0.00    -0.318 A  
HETATM   22  H   UNL     1     -11.675   7.020  71.382  1.00  0.00     0.000 HD 
HETATM   23  C   UNL     1     -10.259   8.569  68.840  1.00  0.00    -0.221 A  
HETATM   24  C   UNL     1     -10.856   7.542  69.585  1.00  0.00    -0.202 A  
HETATM   25  C   UNL     1     -10.722   6.001  67.729  1.00  0.00    -0.369 A  
HETATM   26  C   UNL     1      -9.986   9.901  69.492  1.00  0.00    -0.240 C  
HETATM   27  O   UNL     1     -11.271   7.716  70.877  1.00  0.00    -0.259 OA 
HETATM   28  C   UNL     1     -11.068   6.273  69.049  1.00  0.00    -0.446 A  
ENDBRANCH  17  20
ENDBRANCH  15  16
BRANCH  15  29
HETATM   29  C   UNL     1      -9.405   9.990  63.126  1.00  0.00    -0.260 C  
BRANCH  29  30
HETATM   30  S   UNL     1      -7.617   9.871  62.753  1.00  0.00    -0.131 SA 
BRANCH  30  31
HETATM   31  C   UNL     1      -7.048   8.521  63.761  1.00  0.00    -0.092 A  
HETATM   32  C   UNL     1      -5.417   7.769  65.399  1.00  0.00    -0.033 A  
HETATM   33  C   UNL     1      -5.868   8.725  64.490  1.00  0.00    -0.065 A  
HETATM   34  C   UNL     1      -7.313   6.380  64.863  1.00  0.00    -0.079 A  
HETATM   35  C   UNL     1      -6.145   6.597  65.591  1.00  0.00    -0.038 A  
HETATM   36  C   UNL     1      -7.764   7.339  63.950  1.00  0.00    -0.120 A  
ENDBRANCH  30  31
ENDBRANCH  29  30
ENDBRANCH  15  29
ENDBRANCH  12  15
ENDBRANCH  11  12
ENDBRANCH   8  11
BRANCH   9  37
HETATM   37  C   UNL     1     -10.729  16.322  65.717  1.00  0.00    -0.255 C  
HETATM   38  C   UNL     1     -10.778  19.324  66.655  1.00  0.00    -0.504 C  
HETATM   39  O   UNL     1     -10.679  16.876  64.621  1.00  0.00    -0.756 OA 
HETATM   40  C   UNL     1      -9.212  18.484  68.399  1.00  0.00    -0.347 C  
HETATM   41  C   UNL     1      -9.700  18.273  66.955  1.00  0.00    -0.303 C  
HETATM   42  N   UNL     1     -10.246  16.911  66.874  1.00  0.00    -0.290 N  
HETATM   43  C   UNL     1      -8.509  18.464  66.005  1.00  0.00    -0.037 C  
HETATM   44  H   UNL     1     -10.272  16.360  67.732  1.00  0.00     0.000 HD 
ENDBRANCH   9  37
TORSDOF 9
ENDMDL
MODEL       70
REMARK 921   NORMALIZED FREE ENERGY PREDICTED BY IDOCK:   -6.01 KCAL/MOL
REMARK 922        TOTAL FREE ENERGY PREDICTED BY IDOCK:  -12.00 KCAL/MOL
REMARK 923 INTER-LIGAND FREE ENERGY PREDICTED BY IDOCK:   -9.32 KCAL/MOL
REMARK 924 INTRA-LIGAND FREE ENERGY PREDICTED BY IDOCK:   -2.69 KCAL/MOL
REMARK 927      BINDING AFFINITY PREDICTED BY RF-SCORE:    0.00 PKD
ROOT
HETATM    1  C   UNL     1     -10.450  15.831  66.525  1.00  0.00    -0.304 C  
HETATM    2  C   UNL     1      -9.544  17.027  66.219  1.00  0.00    -0.289 C  
HETATM    3  C   UNL     1      -8.410  17.153  67.229  1.00  0.00    -0.208 C  
HETATM    4  C   UNL     1      -8.955  17.289  68.645  1.00  0.00    -0.265 C  
HETATM    5  C   UNL     1      -9.918  16.164  69.024  1.00  0.00    -0.242 C  
HETATM    6  C   UNL     1     -10.984  15.865  67.959  1.00  0.00    -0.336 C  
HETATM    7  C   UNL     1     -11.757  14.562  68.229  1.00  0.00    -0.335 C  
HETATM    8  N   UNL     1     -10.933  13.350  68.187  1.00  0.00    -0.246 NA 
HETATM    9  C   UNL     1      -9.965  13.295  67.075  1.00  0.00    -0.238 C  
HETATM   10  C   UNL     1      -9.779  14.506  66.141  1.00  0.00    -0.340 C  
ENDROOT
BRANCH   8  11
HETATM   11  C   UNL     1     -11.778  12.132  68.273  1.00  0.00    -0.342 C  
BRANCH  11  12
HETATM   12  C   UNL     1     -11.618  11.167  69.495  1.00  0.00    -0.321 C  
HETATM   13  H   UNL     1     -12.788  10.323  70.868  1.00  0.00     0.000 HD 
HETATM   14  O   UNL     1     -12.886  10.909  70.127  1.00  0.00    -0.244 OA 
BRANCH  12  15
HETATM   15  C   UNL     1     -10.882   9.840  69.165  1.00  0.00    -0.207 C  
BRANCH  15  16
HETATM   16  N   UNL     1     -10.227   9.844  67.851  1.00  0.00    -0.181 N  
HETATM   17  C   UNL     1     -10.247   8.769  66.993  1.00  0.00    -0.281 C  
HETATM   18  O   UNL     1     -10.797   7.701  67.233  1.00  0.00    -0.293 OA 
HETATM   19  H   UNL     1      -9.731  10.687  67.561  1.00  0.00     0.000 HD 
BRANCH  17  20
HETATM   20  C   UNL     1      -9.503   8.925  65.721  1.00  0.00    -0.272 A  
HETATM   21  C   UNL     1      -9.893   9.968  64.862  1.00  0.00    -0.352 A  
HETATM   22  H   UNL     1      -6.568   7.456  62.728  1.00  0.00     0.000 HD 
HETATM   23  C   UNL     1      -8.484   8.020  65.351  1.00  0.00    -0.155 A  
HETATM   24  C   UNL     1      -7.909   8.190  64.083  1.00  0.00    -0.142 A  
HETATM   25  C   UNL     1      -9.267  10.136  63.634  1.00  0.00    -0.320 A  
HETATM   26  C   UNL     1      -7.996   6.910  66.248  1.00  0.00    -0.108 C  
HETATM   27  O   UNL     1      -6.957   7.341  63.587  1.00  0.00    -0.057 OA 
HETATM   28  C   UNL     1      -8.277   9.240  63.244  1.00  0.00    -0.176 A  
ENDBRANCH  17  20
ENDBRANCH  15  16
BRANCH  15  29
HETATM   29  C   UNL     1      -9.937   9.359  70.307  1.00  0.00    -0.237 C  
BRANCH  29  30
HETATM   30  S   UNL     1     -10.766   8.716  71.807  1.00  0.00    -0.347 SA 
BRANCH  30  31
HETATM   31  C   UNL     1     -10.569   6.953  71.695  1.00  0.00    -0.209 A  
HETATM   32  C   UNL     1      -9.602   5.101  70.450  1.00  0.00    -0.252 A  
HETATM   33  C   UNL     1      -9.910   6.457  70.561  1.00  0.00    -0.207 A  
HETATM   34  C   UNL     1     -10.615   4.706  72.602  1.00  0.00    -0.259 A  
HETATM   35  C   UNL     1      -9.950   4.226  71.476  1.00  0.00    -0.243 A  
HETATM   36  C   UNL     1     -10.924   6.066  72.712  1.00  0.00    -0.299 A  
ENDBRANCH  30  31
ENDBRANCH  29  30
ENDBRANCH  15  29
ENDBRANCH  12  15
ENDBRANCH  11  12
ENDBRANCH   8  11
BRANCH   9  37
HETATM   37  C   UNL     1      -8.567  12.886  67.636  1.00  0.00    -0.182 C  
HETATM   38  C   UNL     1      -6.559  10.530  68.190  1.00  0.00    -0.063 C  
HETATM   39  O   UNL     1      -8.129  13.248  68.726  1.00  0.00    -0.067 OA 
HETATM   40  C   UNL     1      -6.033  10.818  65.774  1.00  0.00    -0.126 C  
HETATM   41  C   UNL     1      -6.504  11.548  67.043  1.00  0.00    -0.134 C  
HETATM   42  N   UNL     1      -7.835  12.103  66.759  1.00  0.00    -0.366 N  
HETATM   43  C   UNL     1      -5.489  12.651  67.376  1.00  0.00    -0.074 C  
HETATM   44  H   UNL     1      -8.249  11.896  65.850  1.00  0.00     0.000 HD 
ENDBRANCH   9  37
TORSDOF 9
ENDMDL
MODEL       71
REMARK 921   NORMALIZED FREE ENERGY PREDICTED BY IDOCK:   -5.97 KCAL/MOL
REMARK 922        TOTAL FREE ENERGY PREDICTED BY IDOCK:  -11.95 KCAL/MOL
REMARK 923 INTER-LIGAND FREE ENERGY PREDICTED BY IDOCK:   -9.88 KCAL/MOL
REMARK 924 INTRA-LIGAND FREE ENERGY PREDICTED BY IDOCK:   -2.06 KCAL/MOL
REMARK 927      BINDING AFFINITY PREDICTED BY RF-SCORE:    0.00 PKD
ROOT
HETATM    1  C   UNL     1      -8.242   7.760  68.470  1.00  0.00    -0.128 C  
HETATM    2  C   UNL     1      -8.484   6.266  68.709  1.00  0.00    -0.119 C  
HETATM    3  C   UNL     1      -9.097   5.588  67.489  1.00  0.00    -0.107 C  
HETATM    4  C   UNL     1     -10.411   6.252  67.101  1.00  0.00    -0.327 C  
HETATM    5  C   UNL     1     -10.280   7.761  66.894  1.00  0.00    -0.373 C  
HETATM    6  C   UNL     1      -9.509   8.483  68.010  1.00  0.00    -0.154 C  
HETATM    7  C   UNL     1      -9.147   9.935  67.651  1.00  0.00    -0.131 C  
HETATM    8  N   UNL     1      -8.231  10.065  66.513  1.00  0.00    -0.118 NA 
HETATM    9  C   UNL     1      -7.108   9.110  66.506  1.00  0.00    -0.081 C  
HETATM   10  C   UNL     1      -7.027   7.991  67.562  1.00  0.00    -0.075 C  
ENDROOT
BRANCH   8  11
HETATM   11  C   UNL     1      -7.790  11.474  66.349  1.00  0.00    -0.020 C  
BRANCH  11  12
HETATM   12  C   UNL     1      -7.828  12.442  67.577  1.00  0.00    -0.169 C  
HETATM   13  H   UNL     1      -6.611  13.750  68.460  1.00  0.00     0.000 HD 
HETATM   14  O   UNL     1      -6.588  13.162  67.714  1.00  0.00    -0.119 OA 
BRANCH  12  15
HETATM   15  C   UNL     1      -9.038  13.415  67.584  1.00  0.00    -0.203 C  
BRANCH  15  16
HETATM   16  N   UNL     1      -9.924  13.239  68.742  1.00  0.00    -0.423 N  
HETATM   17  C   UNL     1     -11.296  13.206  68.645  1.00  0.00    -0.289 C  
HETATM   18  O   UNL     1     -11.920  13.330  67.598  1.00  0.00    -0.355 OA 
HETATM   19  H   UNL     1      -9.501  13.136  69.664  1.00  0.00     0.000 HD 
BRANCH  17  20
HETATM   20  C   UNL     1     -12.045  13.060  69.915  1.00  0.00    -0.347 A  
HETATM   21  C   UNL     1     -12.365  14.234  70.621  1.00  0.00    -0.431 A  
HETATM   22  H   UNL     1     -13.714  10.553  73.181  1.00  0.00     0.000 HD 
HETATM   23  C   UNL     1     -12.368  11.788  70.436  1.00  0.00    -0.362 A  
HETATM   24  C   UNL     1     -12.988  11.751  71.693  1.00  0.00    -0.362 A  
HETATM   25  C   UNL     1     -13.024  14.162  71.841  1.00  0.00    -0.441 A  
HETATM   26  C   UNL     1     -12.088  10.498  69.705  1.00  0.00    -0.285 C  
HETATM   27  O   UNL     1     -13.294  10.579  72.329  1.00  0.00    -0.384 OA 
HETATM   28  C   UNL     1     -13.329  12.915  72.378  1.00  0.00    -0.526 A  
ENDBRANCH  17  20
ENDBRANCH  15  16
BRANCH  15  29
HETATM   29  C   UNL     1      -8.635  14.902  67.356  1.00  0.00    -0.193 C  
BRANCH  29  30
HETATM   30  S   UNL     1      -9.566  15.786  66.051  1.00  0.00    -0.362 SA 
BRANCH  30  31
HETATM   31  C   UNL     1      -9.872  17.394  66.744  1.00  0.00    -0.296 A  
HETATM   32  C   UNL     1      -9.494  18.892  68.622  1.00  0.00    -0.427 A  
HETATM   33  C   UNL     1      -9.408  17.624  68.047  1.00  0.00    -0.274 A  
HETATM   34  C   UNL     1     -10.518  19.726  66.605  1.00  0.00    -0.615 A  
HETATM   35  C   UNL     1     -10.043  19.946  67.897  1.00  0.00    -0.571 A  
HETATM   36  C   UNL     1     -10.432  18.454  66.029  1.00  0.00    -0.400 A  
ENDBRANCH  30  31
ENDBRANCH  29  30
ENDBRANCH  15  29
ENDBRANCH  12  15
ENDBRANCH  11  12
ENDBRANCH   8  11
BRANCH   9  37
HETATM   37  C   UNL     1      -7.000   8.461  65.090  1.00  0.00    -0.074 C  
HETATM   38  C   UNL     1      -5.529   6.345  63.288  1.00  0.00    -0.019 C  
HETATM   39  O   UNL     1      -6.937   9.099  64.042  1.00  0.00    -0.088 OA 
HETATM   40  C   UNL     1      -7.077   4.758  64.421  1.00  0.00    -0.050 C  
HETATM   41  C   UNL     1      -6.912   6.210  63.940  1.00  0.00    -0.043 C  
HETATM   42  N   UNL     1      -7.031   7.076  65.121  1.00  0.00    -0.051 N  
HETATM   43  C   UNL     1      -8.006   6.508  62.905  1.00  0.00    -0.092 C  
HETATM   44  H   UNL     1      -7.144   6.626  66.029  1.00  0.00     0.000 HD 
ENDBRANCH   9  37
TORSDOF 9
ENDMDL
MODEL       72
REMARK 921   NORMALIZED FREE ENERGY PREDICTED BY IDOCK:   -5.96 KCAL/MOL
REMARK 922        TOTAL FREE ENERGY PREDICTED BY IDOCK:  -11.94 KCAL/MOL
REMARK 923 INTER-LIGAND FREE ENERGY PREDICTED BY IDOCK:   -8.91 KCAL/MOL
REMARK 924 INTRA-LIGAND FREE ENERGY PREDICTED BY IDOCK:   -3.02 KCAL/MOL
REMARK 927      BINDING AFFINITY PREDICTED BY RF-SCORE:    0.00 PKD
ROOT
HETATM    1  C   UNL     1     -11.073  12.044  64.901  1.00  0.00    -0.368 C  
HETATM    2  C   UNL     1     -11.694  12.647  63.636  1.00  0.00    -0.597 C  
HETATM    3  C   UNL     1     -12.127  14.092  63.851  1.00  0.00    -0.301 C  
HETATM    4  C   UNL     1     -13.125  14.196  64.996  1.00  0.00     0.044 C  
HETATM    5  C   UNL     1     -12.614  13.570  66.293  1.00  0.00    -0.298 C  
HETATM    6  C   UNL     1     -11.996  12.174  66.114  1.00  0.00    -0.225 C  
HETATM    7  C   UNL     1     -11.243  11.684  67.364  1.00  0.00    -0.298 C  
HETATM    8  N   UNL     1     -10.073  12.494  67.720  1.00  0.00    -0.213 NA 
HETATM    9  C   UNL     1      -9.224  12.894  66.583  1.00  0.00    -0.221 C  
HETATM   10  C   UNL     1      -9.654  12.578  65.137  1.00  0.00     0.062 C  
ENDROOT
BRANCH   8  11
HETATM   11  C   UNL     1      -9.301  11.854  68.816  1.00  0.00     0.024 C  
BRANCH  11  12
HETATM   12  C   UNL     1      -7.811  11.442  68.572  1.00  0.00    -0.140 C  
HETATM   13  H   UNL     1      -6.013  11.943  69.267  1.00  0.00     0.000 HD 
HETATM   14  O   UNL     1      -6.917  12.192  69.415  1.00  0.00    -0.065 OA 
BRANCH  12  15
HETATM   15  C   UNL     1      -7.543   9.918  68.696  1.00  0.00    -0.080 C  
BRANCH  15  16
HETATM   16  N   UNL     1      -8.675   9.169  69.257  1.00  0.00    -0.135 N  
HETATM   17  C   UNL     1      -8.816   8.906  70.600  1.00  0.00    -0.198 C  
HETATM   18  O   UNL     1      -8.018   9.254  71.462  1.00  0.00    -0.334 OA 
HETATM   19  H   UNL     1      -9.392   8.825  68.618  1.00  0.00     0.000 HD 
BRANCH  17  20
HETATM   20  C   UNL     1      -9.997   8.102  70.996  1.00  0.00    -0.220 A  
HETATM   21  C   UNL     1      -9.836   6.707  71.079  1.00  0.00    -0.196 A  
HETATM   22  H   UNL     1     -14.341   7.729  71.842  1.00  0.00     0.000 HD 
HETATM   23  C   UNL     1     -11.255   8.705  71.217  1.00  0.00    -0.338 A  
HETATM   24  C   UNL     1     -12.333   7.850  71.488  1.00  0.00    -0.315 A  
HETATM   25  C   UNL     1     -10.916   5.895  71.399  1.00  0.00    -0.327 A  
HETATM   26  C   UNL     1     -11.476  10.196  71.184  1.00  0.00    -0.387 C  
HETATM   27  O   UNL     1     -13.610   8.308  71.659  1.00  0.00    -0.347 OA 
HETATM   28  C   UNL     1     -12.167   6.470  71.597  1.00  0.00    -0.353 A  
ENDBRANCH  17  20
ENDBRANCH  15  16
BRANCH  15  29
HETATM   29  C   UNL     1      -6.989   9.280  67.387  1.00  0.00    -0.078 C  
BRANCH  29  30
HETATM   30  S   UNL     1      -8.212   9.018  66.051  1.00  0.00    -0.117 SA 
BRANCH  30  31
HETATM   31  C   UNL     1      -9.156   7.612  66.591  1.00  0.00    -0.164 A  
HETATM   32  C   UNL     1      -9.090   5.309  67.367  1.00  0.00    -0.112 A  
HETATM   33  C   UNL     1      -8.451   6.424  66.824  1.00  0.00    -0.112 A  
HETATM   34  C   UNL     1     -11.157   6.547  67.447  1.00  0.00    -0.411 A  
HETATM   35  C   UNL     1     -10.444   5.373  67.685  1.00  0.00    -0.217 A  
HETATM   36  C   UNL     1     -10.516   7.663  66.901  1.00  0.00    -0.388 A  
ENDBRANCH  30  31
ENDBRANCH  29  30
ENDBRANCH  15  29
ENDBRANCH  12  15
ENDBRANCH  11  12
ENDBRANCH   8  11
BRANCH   9  37
HETATM   37  C   UNL     1      -8.924  14.423  66.685  1.00  0.00    -0.205 C  
HETATM   38  C   UNL     1      -8.818  16.949  68.555  1.00  0.00    -0.251 C  
HETATM   39  O   UNL     1      -9.368  15.266  65.908  1.00  0.00    -0.326 OA 
HETATM   40  C   UNL     1      -6.618  15.988  69.214  1.00  0.00    -0.176 C  
HETATM   41  C   UNL     1      -7.634  16.105  68.065  1.00  0.00    -0.133 C  
HETATM   42  N   UNL     1      -8.058  14.741  67.719  1.00  0.00    -0.140 N  
HETATM   43  C   UNL     1      -6.952  16.804  66.881  1.00  0.00    -0.257 C  
HETATM   44  H   UNL     1      -7.690  13.974  68.280  1.00  0.00     0.000 HD 
ENDBRANCH   9  37
TORSDOF 9
ENDMDL
MODEL       73
REMARK 921   NORMALIZED FREE ENERGY PREDICTED BY IDOCK:   -5.95 KCAL/MOL
REMARK 922        TOTAL FREE ENERGY PREDICTED BY IDOCK:  -11.92 KCAL/MOL
REMARK 923 INTER-LIGAND FREE ENERGY PREDICTED BY IDOCK:  -10.30 KCAL/MOL
REMARK 924 INTRA-LIGAND FREE ENERGY PREDICTED BY IDOCK:   -1.62 KCAL/MOL
REMARK 927      BINDING AFFINITY PREDICTED BY RF-SCORE:    0.00 PKD
ROOT
HETATM    1  C   UNL     1     -10.580  17.193  66.311  1.00  0.00    -0.185 C  
HETATM    2  C   UNL     1     -10.493  18.698  66.040  1.00  0.00    -0.456 C  
HETATM    3  C   UNL     1      -9.583  19.403  67.039  1.00  0.00    -0.412 C  
HETATM    4  C   UNL     1     -10.065  19.178  68.466  1.00  0.00    -0.499 C  
HETATM    5  C   UNL     1     -10.234  17.700  68.813  1.00  0.00    -0.373 C  
HETATM    6  C   UNL     1     -10.995  16.889  67.752  1.00  0.00    -0.212 C  
HETATM    7  C   UNL     1     -10.912  15.370  67.981  1.00  0.00    -0.307 C  
HETATM    8  N   UNL     1      -9.558  14.815  67.877  1.00  0.00    -0.208 NA 
HETATM    9  C   UNL     1      -8.760  15.333  66.751  1.00  0.00    -0.270 C  
HETATM   10  C   UNL     1      -9.303  16.469  65.864  1.00  0.00    -0.226 C  
ENDROOT
BRANCH   8  11
HETATM   11  C   UNL     1      -9.589  13.331  67.926  1.00  0.00    -0.217 C  
BRANCH  11  12
HETATM   12  C   UNL     1     -10.824  12.566  67.343  1.00  0.00    -0.240 C  
HETATM   13  H   UNL     1     -11.304  11.611  65.661  1.00  0.00     0.000 HD 
HETATM   14  O   UNL     1     -10.555  12.076  66.016  1.00  0.00    -0.251 OA 
BRANCH  12  15
HETATM   15  C   UNL     1     -11.359  11.431  68.256  1.00  0.00    -0.286 C  
BRANCH  15  16
HETATM   16  N   UNL     1     -10.915  10.092  67.847  1.00  0.00    -0.352 N  
HETATM   17  C   UNL     1      -9.714   9.543  68.234  1.00  0.00    -0.147 C  
HETATM   18  O   UNL     1      -8.890  10.108  68.942  1.00  0.00    -0.136 OA 
HETATM   19  H   UNL     1     -11.528   9.542  67.245  1.00  0.00     0.000 HD 
BRANCH  17  20
HETATM   20  C   UNL     1      -9.401   8.196  67.701  1.00  0.00    -0.160 A  
HETATM   21  C   UNL     1      -8.726   8.124  66.468  1.00  0.00    -0.160 A  
HETATM   22  H   UNL     1      -9.807   3.774  67.822  1.00  0.00     0.000 HD 
HETATM   23  C   UNL     1      -9.821   7.025  68.369  1.00  0.00    -0.148 A  
HETATM   24  C   UNL     1      -9.567   5.801  67.734  1.00  0.00    -0.115 A  
HETATM   25  C   UNL     1      -8.446   6.892  65.893  1.00  0.00    -0.147 A  
HETATM   26  C   UNL     1     -10.510   7.039  69.711  1.00  0.00    -0.235 C  
HETATM   27  O   UNL     1      -9.979   4.604  68.252  1.00  0.00    -0.136 OA 
HETATM   28  C   UNL     1      -8.874   5.730  66.527  1.00  0.00    -0.126 A  
ENDBRANCH  17  20
ENDBRANCH  15  16
BRANCH  15  29
HETATM   29  C   UNL     1     -11.133  11.701  69.774  1.00  0.00    -0.044 C  
BRANCH  29  30
HETATM   30  S   UNL     1     -12.648  11.817  70.794  1.00  0.00    -0.183 SA 
BRANCH  30  31
HETATM   31  C   UNL     1     -12.719  13.525  71.283  1.00  0.00    -0.348 A  
HETATM   32  C   UNL     1     -13.941  15.227  72.516  1.00  0.00    -0.609 A  
HETATM   33  C   UNL     1     -13.857  13.938  71.987  1.00  0.00    -0.588 A  
HETATM   34  C   UNL     1     -11.750  15.717  71.638  1.00  0.00    -0.521 A  
HETATM   35  C   UNL     1     -12.882  16.115  72.346  1.00  0.00    -0.342 A  
HETATM   36  C   UNL     1     -11.667  14.426  71.107  1.00  0.00    -0.225 A  
ENDBRANCH  30  31
ENDBRANCH  29  30
ENDBRANCH  15  29
ENDBRANCH  12  15
ENDBRANCH  11  12
ENDBRANCH   8  11
BRANCH   9  37
HETATM   37  C   UNL     1      -7.349  15.748  67.276  1.00  0.00    -0.222 C  
HETATM   38  C   UNL     1      -5.174  18.016  67.417  1.00  0.00    -0.144 C  
HETATM   39  O   UNL     1      -6.337  15.063  67.147  1.00  0.00    -0.267 OA 
HETATM   40  C   UNL     1      -6.632  18.874  69.244  1.00  0.00    -0.311 C  
HETATM   41  C   UNL     1      -6.160  17.603  68.519  1.00  0.00    -0.179 C  
HETATM   42  N   UNL     1      -7.353  16.957  67.952  1.00  0.00    -0.164 N  
HETATM   43  C   UNL     1      -5.453  16.695  69.536  1.00  0.00    -0.152 C  
HETATM   44  H   UNL     1      -8.247  17.434  68.064  1.00  0.00     0.000 HD 
ENDBRANCH   9  37
TORSDOF 9
ENDMDL
MODEL       74
REMARK 921   NORMALIZED FREE ENERGY PREDICTED BY IDOCK:   -5.90 KCAL/MOL
REMARK 922        TOTAL FREE ENERGY PREDICTED BY IDOCK:  -11.85 KCAL/MOL
REMARK 923 INTER-LIGAND FREE ENERGY PREDICTED BY IDOCK:   -9.58 KCAL/MOL
REMARK 924 INTRA-LIGAND FREE ENERGY PREDICTED BY IDOCK:   -2.27 KCAL/MOL
REMARK 927      BINDING AFFINITY PREDICTED BY RF-SCORE:    0.00 PKD
ROOT
HETATM    1  C   UNL     1     -11.563  13.920  66.230  1.00  0.00    -0.378 C  
HETATM    2  C   UNL     1     -12.907  13.468  65.650  1.00  0.00    -0.380 C  
HETATM    3  C   UNL     1     -12.747  12.285  64.703  1.00  0.00    -0.275 C  
HETATM    4  C   UNL     1     -11.798  12.626  63.562  1.00  0.00    -0.619 C  
HETATM    5  C   UNL     1     -10.443  13.140  64.045  1.00  0.00    -0.258 C  
HETATM    6  C   UNL     1     -10.533  14.217  65.138  1.00  0.00    -0.422 C  
HETATM    7  C   UNL     1      -9.178  14.515  65.803  1.00  0.00     0.167 C  
HETATM    8  N   UNL     1      -8.602  13.383  66.536  1.00  0.00     0.087 NA 
HETATM    9  C   UNL     1      -9.560  12.623  67.360  1.00  0.00    -0.194 C  
HETATM   10  C   UNL     1     -11.065  12.950  67.309  1.00  0.00    -0.309 C  
ENDROOT
BRANCH   8  11
HETATM   11  C   UNL     1      -7.397  13.804  67.296  1.00  0.00     0.002 C  
BRANCH  11  12
HETATM   12  C   UNL     1      -7.444  13.834  68.860  1.00  0.00    -0.056 C  
HETATM   13  H   UNL     1      -6.166  13.634  70.376  1.00  0.00     0.000 HD 
HETATM   14  O   UNL     1      -6.138  13.616  69.427  1.00  0.00    -0.093 OA 
BRANCH  12  15
HETATM   15  C   UNL     1      -8.099  15.110  69.453  1.00  0.00    -0.200 C  
BRANCH  15  16
HETATM   16  N   UNL     1      -8.078  16.259  68.538  1.00  0.00    -0.183 N  
HETATM   17  C   UNL     1      -7.194  17.306  68.661  1.00  0.00    -0.231 C  
HETATM   18  O   UNL     1      -6.349  17.400  69.542  1.00  0.00    -0.244 OA 
HETATM   19  H   UNL     1      -8.752  16.280  67.773  1.00  0.00     0.000 HD 
BRANCH  17  20
HETATM   20  C   UNL     1      -7.332  18.406  67.676  1.00  0.00    -0.219 A  
HETATM   21  C   UNL     1      -8.263  19.421  67.960  1.00  0.00    -0.353 A  
HETATM   22  H   UNL     1      -6.471  20.201  63.706  1.00  0.00     0.000 HD 
HETATM   23  C   UNL     1      -6.605  18.403  66.466  1.00  0.00    -0.227 A  
HETATM   24  C   UNL     1      -6.879  19.432  65.554  1.00  0.00    -0.274 A  
HETATM   25  C   UNL     1      -8.472  20.453  67.055  1.00  0.00    -0.355 A  
HETATM   26  C   UNL     1      -5.564  17.365  66.127  1.00  0.00    -0.172 C  
HETATM   27  O   UNL     1      -6.285  19.503  64.323  1.00  0.00    -0.378 OA 
HETATM   28  C   UNL     1      -7.782  20.453  65.848  1.00  0.00    -0.084 A  
ENDBRANCH  17  20
ENDBRANCH  15  16
BRANCH  15  29
HETATM   29  C   UNL     1      -9.510  14.854  70.063  1.00  0.00     0.394 C  
BRANCH  29  30
HETATM   30  S   UNL     1     -10.777  16.124  69.697  1.00  0.00    -0.340 SA 
BRANCH  30  31
HETATM   31  C   UNL     1     -12.056  15.824  70.894  1.00  0.00    -0.416 A  
HETATM   32  C   UNL     1     -12.815  16.185  73.176  1.00  0.00    -0.559 A  
HETATM   33  C   UNL     1     -11.819  16.267  72.203  1.00  0.00    -0.585 A  
HETATM   34  C   UNL     1     -14.305  15.206  71.552  1.00  0.00    -0.660 A  
HETATM   35  C   UNL     1     -14.062  15.660  72.848  1.00  0.00    -0.315 A  
HETATM   36  C   UNL     1     -13.305  15.287  70.578  1.00  0.00    -0.208 A  
ENDBRANCH  30  31
ENDBRANCH  29  30
ENDBRANCH  15  29
ENDBRANCH  12  15
ENDBRANCH  11  12
ENDBRANCH   8  11
BRANCH   9  37
HETATM   37  C   UNL     1      -9.377  11.099  67.078  1.00  0.00    -0.170 C  
HETATM   38  C   UNL     1      -8.432   8.323  68.215  1.00  0.00    -0.136 C  
HETATM   39  O   UNL     1      -8.835  10.644  66.073  1.00  0.00    -0.162 OA 
HETATM   40  C   UNL     1     -10.682   8.341  69.281  1.00  0.00    -0.140 C  
HETATM   41  C   UNL     1      -9.875   8.823  68.064  1.00  0.00    -0.169 C  
HETATM   42  N   UNL     1      -9.932  10.292  68.057  1.00  0.00    -0.150 N  
HETATM   43  C   UNL     1     -10.502   8.225  66.796  1.00  0.00    -0.313 C  
HETATM   44  H   UNL     1     -10.415  10.750  68.830  1.00  0.00     0.000 HD 
ENDBRANCH   9  37
TORSDOF 9
ENDMDL
MODEL       75
REMARK 921   NORMALIZED FREE ENERGY PREDICTED BY IDOCK:   -5.89 KCAL/MOL
REMARK 922        TOTAL FREE ENERGY PREDICTED BY IDOCK:  -11.83 KCAL/MOL
REMARK 923 INTER-LIGAND FREE ENERGY PREDICTED BY IDOCK:   -9.85 KCAL/MOL
REMARK 924 INTRA-LIGAND FREE ENERGY PREDICTED BY IDOCK:   -1.99 KCAL/MOL
REMARK 927      BINDING AFFINITY PREDICTED BY RF-SCORE:    0.00 PKD
ROOT
HETATM    1  C   UNL     1      -5.480  18.576  68.263  1.00  0.00    -0.172 C  
HETATM    2  C   UNL     1      -5.525  19.990  67.676  1.00  0.00    -0.198 C  
HETATM    3  C   UNL     1      -6.548  20.105  66.552  1.00  0.00    -0.241 C  
HETATM    4  C   UNL     1      -6.248  19.110  65.439  1.00  0.00    -0.290 C  
HETATM    5  C   UNL     1      -6.130  17.671  65.940  1.00  0.00    -0.188 C  
HETATM    6  C   UNL     1      -5.248  17.512  67.189  1.00  0.00    -0.158 C  
HETATM    7  C   UNL     1      -5.366  16.121  67.836  1.00  0.00    -0.125 C  
HETATM    8  N   UNL     1      -6.699  15.809  68.361  1.00  0.00    -0.113 NA 
HETATM    9  C   UNL     1      -7.350  16.910  69.096  1.00  0.00    -0.197 C  
HETATM   10  C   UNL     1      -6.695  18.303  69.159  1.00  0.00    -0.259 C  
ENDROOT
BRANCH   8  11
HETATM   11  C   UNL     1      -6.682  14.537  69.127  1.00  0.00    -0.115 C  
BRANCH  11  12
HETATM   12  C   UNL     1      -6.440  13.187  68.374  1.00  0.00    -0.086 C  
HETATM   13  H   UNL     1      -5.266  11.587  68.559  1.00  0.00     0.000 HD 
HETATM   14  O   UNL     1      -5.414  12.407  69.016  1.00  0.00    -0.062 OA 
BRANCH  12  15
HETATM   15  C   UNL     1      -7.723  12.342  68.153  1.00  0.00    -0.138 C  
BRANCH  15  16
HETATM   16  N   UNL     1      -8.099  11.534  69.321  1.00  0.00    -0.359 N  
HETATM   17  C   UNL     1      -8.382  10.189  69.250  1.00  0.00    -0.158 C  
HETATM   18  O   UNL     1      -8.363   9.531  68.216  1.00  0.00    -0.116 OA 
HETATM   19  H   UNL     1      -8.154  11.993  70.230  1.00  0.00     0.000 HD 
BRANCH  17  20
HETATM   20  C   UNL     1      -8.784   9.530  70.515  1.00  0.00    -0.247 A  
HETATM   21  C   UNL     1      -7.769   8.950  71.297  1.00  0.00    -0.145 A  
HETATM   22  H   UNL     1     -11.901   7.984  73.276  1.00  0.00     0.000 HD 
HETATM   23  C   UNL     1     -10.141   9.429  70.892  1.00  0.00    -0.366 A  
HETATM   24  C   UNL     1     -10.428   8.699  72.054  1.00  0.00    -0.352 A  
HETATM   25  C   UNL     1      -8.086   8.276  72.469  1.00  0.00    -0.209 A  
HETATM   26  C   UNL     1     -11.266  10.068  70.117  1.00  0.00    -0.367 C  
HETATM   27  O   UNL     1     -11.706   8.479  72.488  1.00  0.00    -0.380 OA 
HETATM   28  C   UNL     1      -9.420   8.147  72.843  1.00  0.00    -0.345 A  
ENDBRANCH  17  20
ENDBRANCH  15  16
BRANCH  15  29
HETATM   29  C   UNL     1      -8.915  13.167  67.584  1.00  0.00    -0.192 C  
BRANCH  29  30
HETATM   30  S   UNL     1     -10.555  12.357  67.667  1.00  0.00    -0.220 SA 
BRANCH  30  31
HETATM   31  C   UNL     1     -11.117  12.332  65.981  1.00  0.00    -0.309 A  
HETATM   32  C   UNL     1     -10.730  11.491  63.732  1.00  0.00    -0.474 A  
HETATM   33  C   UNL     1     -10.308  11.666  65.050  1.00  0.00    -0.329 A  
HETATM   34  C   UNL     1     -12.780  12.650  64.248  1.00  0.00    -0.394 A  
HETATM   35  C   UNL     1     -11.972  11.978  63.333  1.00  0.00    -0.571 A  
HETATM   36  C   UNL     1     -12.355  12.827  65.568  1.00  0.00    -0.495 A  
ENDBRANCH  30  31
ENDBRANCH  29  30
ENDBRANCH  15  29
ENDBRANCH  12  15
ENDBRANCH  11  12
ENDBRANCH   8  11
BRANCH   9  37
HETATM   37  C   UNL     1      -8.813  17.075  68.575  1.00  0.00    -0.253 C  
HETATM   38  C   UNL     1     -10.657  18.049  66.221  1.00  0.00    -0.262 C  
HETATM   39  O   UNL     1      -9.725  17.576  69.229  1.00  0.00    -0.150 OA 
HETATM   40  C   UNL     1     -10.051  15.841  65.243  1.00  0.00    -0.257 C  
HETATM   41  C   UNL     1     -10.268  16.603  66.561  1.00  0.00    -0.310 C  
HETATM   42  N   UNL     1      -9.002  16.553  67.306  1.00  0.00    -0.197 N  
HETATM   43  C   UNL     1     -11.409  15.926  67.334  1.00  0.00    -0.048 C  
HETATM   44  H   UNL     1      -8.206  16.102  66.856  1.00  0.00     0.000 HD 
ENDBRANCH   9  37
TORSDOF 9
ENDMDL
MODEL       76
REMARK 921   NORMALIZED FREE ENERGY PREDICTED BY IDOCK:   -5.89 KCAL/MOL
REMARK 922        TOTAL FREE ENERGY PREDICTED BY IDOCK:  -11.82 KCAL/MOL
REMARK 923 INTER-LIGAND FREE ENERGY PREDICTED BY IDOCK:   -9.01 KCAL/MOL
REMARK 924 INTRA-LIGAND FREE ENERGY PREDICTED BY IDOCK:   -2.81 KCAL/MOL
REMARK 927      BINDING AFFINITY PREDICTED BY RF-SCORE:    0.00 PKD
ROOT
HETATM    1  C   UNL     1     -12.031  13.875  66.115  1.00  0.00    -0.449 C  
HETATM    2  C   UNL     1     -11.513  14.949  65.152  1.00  0.00    -0.357 C  
HETATM    3  C   UNL     1     -10.034  15.244  65.374  1.00  0.00    -0.364 C  
HETATM    4  C   UNL     1      -9.778  15.691  66.806  1.00  0.00    -0.255 C  
HETATM    5  C   UNL     1     -10.311  14.705  67.845  1.00  0.00    -0.237 C  
HETATM    6  C   UNL     1     -11.747  14.226  67.577  1.00  0.00    -0.415 C  
HETATM    7  C   UNL     1     -12.160  13.036  68.460  1.00  0.00    -0.149 C  
HETATM    8  N   UNL     1     -11.382  11.814  68.232  1.00  0.00    -0.257 NA 
HETATM    9  C   UNL     1     -11.129  11.495  66.814  1.00  0.00    -0.302 C  
HETATM   10  C   UNL     1     -11.551  12.477  65.705  1.00  0.00    -0.435 C  
ENDROOT
BRANCH   8  11
HETATM   11  C   UNL     1     -11.960  10.671  68.984  1.00  0.00    -0.114 C  
BRANCH  11  12
HETATM   12  C   UNL     1     -11.481  10.391  70.447  1.00  0.00    -0.337 C  
HETATM   13  H   UNL     1     -11.995  10.934  72.294  1.00  0.00     0.000 HD 
HETATM   14  O   UNL     1     -12.285  11.104  71.406  1.00  0.00    -0.264 OA 
BRANCH  12  15
HETATM   15  C   UNL     1     -11.392   8.884  70.810  1.00  0.00    -0.278 C  
BRANCH  15  16
HETATM   16  N   UNL     1     -10.487   8.124  69.938  1.00  0.00    -0.222 N  
HETATM   17  C   UNL     1     -10.763   6.855  69.485  1.00  0.00    -0.246 C  
HETATM   18  O   UNL     1     -11.775   6.223  69.766  1.00  0.00    -0.403 OA 
HETATM   19  H   UNL     1      -9.610   8.560  69.654  1.00  0.00     0.000 HD 
BRANCH  17  20
HETATM   20  C   UNL     1      -9.725   6.213  68.643  1.00  0.00    -0.145 A  
HETATM   21  C   UNL     1      -8.930   5.216  69.238  1.00  0.00    -0.126 A  
HETATM   22  H   UNL     1      -7.339   5.992  64.904  1.00  0.00     0.000 HD 
HETATM   23  C   UNL     1      -9.495   6.630  67.314  1.00  0.00    -0.151 A  
HETATM   24  C   UNL     1      -8.425   6.033  66.633  1.00  0.00    -0.112 A  
HETATM   25  C   UNL     1      -7.910   4.610  68.517  1.00  0.00    -0.080 A  
HETATM   26  C   UNL     1     -10.342   7.662  66.612  1.00  0.00    -0.258 C  
HETATM   27  O   UNL     1      -8.064   6.397  65.365  1.00  0.00    -0.116 OA 
HETATM   28  C   UNL     1      -7.655   5.026  67.214  1.00  0.00    -0.091 A  
ENDBRANCH  17  20
ENDBRANCH  15  16
BRANCH  15  29
HETATM   29  C   UNL     1     -11.124   8.628  72.323  1.00  0.00    -0.325 C  
BRANCH  29  30
HETATM   30  S   UNL     1      -9.430   8.079  72.749  1.00  0.00    -0.286 SA 
BRANCH  30  31
HETATM   31  C   UNL     1      -9.582   6.322  72.969  1.00  0.00    -0.153 A  
HETATM   32  C   UNL     1     -11.098   4.443  73.259  1.00  0.00    -0.368 A  
HETATM   33  C   UNL     1     -10.869   5.818  73.198  1.00  0.00    -0.310 A  
HETATM   34  C   UNL     1      -8.752   4.047  72.871  1.00  0.00    -0.103 A  
HETATM   35  C   UNL     1     -10.038   3.557  73.088  1.00  0.00    -0.213 A  
HETATM   36  C   UNL     1      -8.523   5.426  72.811  1.00  0.00    -0.116 A  
ENDBRANCH  30  31
ENDBRANCH  29  30
ENDBRANCH  15  29
ENDBRANCH  12  15
ENDBRANCH  11  12
ENDBRANCH   8  11
BRANCH   9  37
HETATM   37  C   UNL     1      -9.614  11.164  66.630  1.00  0.00    -0.190 C  
HETATM   38  C   UNL     1      -6.654  12.005  67.280  1.00  0.00    -0.145 C  
HETATM   39  O   UNL     1      -9.091  10.909  65.548  1.00  0.00    -0.192 OA 
HETATM   40  C   UNL     1      -7.130  10.864  69.442  1.00  0.00    -0.131 C  
HETATM   41  C   UNL     1      -7.469  10.884  67.941  1.00  0.00    -0.090 C  
HETATM   42  N   UNL     1      -8.912  11.135  67.824  1.00  0.00    -0.137 N  
HETATM   43  C   UNL     1      -7.078   9.529  67.334  1.00  0.00    -0.086 C  
HETATM   44  H   UNL     1      -9.435  11.300  68.684  1.00  0.00     0.000 HD 
ENDBRANCH   9  37
TORSDOF 9
ENDMDL
MODEL       77
REMARK 921   NORMALIZED FREE ENERGY PREDICTED BY IDOCK:   -5.87 KCAL/MOL
REMARK 922        TOTAL FREE ENERGY PREDICTED BY IDOCK:  -11.79 KCAL/MOL
REMARK 923 INTER-LIGAND FREE ENERGY PREDICTED BY IDOCK:  -10.37 KCAL/MOL
REMARK 924 INTRA-LIGAND FREE ENERGY PREDICTED BY IDOCK:   -1.42 KCAL/MOL
REMARK 927      BINDING AFFINITY PREDICTED BY RF-SCORE:    0.00 PKD
ROOT
HETATM    1  C   UNL     1     -10.296  17.674  66.653  1.00  0.00    -0.333 C  
HETATM    2  C   UNL     1      -9.572  18.857  66.003  1.00  0.00    -0.140 C  
HETATM    3  C   UNL     1      -8.381  19.320  66.834  1.00  0.00    -0.302 C  
HETATM    4  C   UNL     1      -8.818  19.712  68.239  1.00  0.00    -0.361 C  
HETATM    5  C   UNL     1      -9.600  18.608  68.951  1.00  0.00    -0.332 C  
HETATM    6  C   UNL     1     -10.708  17.972  68.096  1.00  0.00    -0.267 C  
HETATM    7  C   UNL     1     -11.290  16.692  68.720  1.00  0.00    -0.139 C  
HETATM    8  N   UNL     1     -10.329  15.590  68.845  1.00  0.00    -0.213 NA 
HETATM    9  C   UNL     1      -9.460  15.387  67.672  1.00  0.00    -0.205 C  
HETATM   10  C   UNL     1      -9.502  16.372  66.488  1.00  0.00    -0.296 C  
ENDROOT
BRANCH   8  11
HETATM   11  C   UNL     1     -11.009  14.343  69.279  1.00  0.00    -0.255 C  
BRANCH  11  12
HETATM   12  C   UNL     1     -11.890  13.549  68.258  1.00  0.00    -0.366 C  
HETATM   13  H   UNL     1     -12.687  13.849  66.457  1.00  0.00     0.000 HD 
HETATM   14  O   UNL     1     -12.152  14.330  67.077  1.00  0.00    -0.425 OA 
BRANCH  12  15
HETATM   15  C   UNL     1     -11.329  12.151  67.886  1.00  0.00    -0.300 C  
BRANCH  15  16
HETATM   16  N   UNL     1     -11.814  11.074  68.759  1.00  0.00    -0.378 N  
HETATM   17  C   UNL     1     -10.993  10.345  69.587  1.00  0.00    -0.277 C  
HETATM   18  O   UNL     1      -9.781  10.504  69.677  1.00  0.00    -0.176 OA 
HETATM   19  H   UNL     1     -12.810  10.856  68.750  1.00  0.00     0.000 HD 
BRANCH  17  20
HETATM   20  C   UNL     1     -11.636   9.267  70.375  1.00  0.00    -0.215 A  
HETATM   21  C   UNL     1     -11.248   7.942  70.104  1.00  0.00    -0.157 A  
HETATM   22  H   UNL     1     -14.724   7.856  73.239  1.00  0.00     0.000 HD 
HETATM   23  C   UNL     1     -12.650   9.550  71.316  1.00  0.00    -0.425 A  
HETATM   24  C   UNL     1     -13.269   8.455  71.936  1.00  0.00    -0.357 A  
HETATM   25  C   UNL     1     -11.848   6.884  70.774  1.00  0.00    -0.427 A  
HETATM   26  C   UNL     1     -13.077  10.950  71.678  1.00  0.00    -0.538 C  
HETATM   27  O   UNL     1     -14.304   8.597  72.819  1.00  0.00    -0.520 OA 
HETATM   28  C   UNL     1     -12.864   7.144  71.687  1.00  0.00    -0.420 A  
ENDBRANCH  17  20
ENDBRANCH  15  16
BRANCH  15  29
HETATM   29  C   UNL     1     -11.476  11.810  66.373  1.00  0.00    -0.239 C  
BRANCH  29  30
HETATM   30  S   UNL     1      -9.929  11.855  65.394  1.00  0.00    -0.247 SA 
BRANCH  30  31
HETATM   31  C   UNL     1      -9.410  10.156  65.317  1.00  0.00    -0.224 A  
HETATM   32  C   UNL     1      -8.242   8.456  64.030  1.00  0.00    -0.115 A  
HETATM   33  C   UNL     1      -8.790   9.734  64.133  1.00  0.00    -0.260 A  
HETATM   34  C   UNL     1      -8.931   7.992  66.294  1.00  0.00    -0.208 A  
HETATM   35  C   UNL     1      -8.306   7.586  65.116  1.00  0.00    -0.092 A  
HETATM   36  C   UNL     1      -9.481   9.273  66.395  1.00  0.00    -0.277 A  
ENDBRANCH  30  31
ENDBRANCH  29  30
ENDBRANCH  15  29
ENDBRANCH  12  15
ENDBRANCH  11  12
ENDBRANCH   8  11
BRANCH   9  37
HETATM   37  C   UNL     1      -7.980  15.257  68.152  1.00  0.00    -0.128 C  
HETATM   38  C   UNL     1      -6.046  14.293  70.437  1.00  0.00    -0.176 C  
HETATM   39  O   UNL     1      -7.162  16.174  68.122  1.00  0.00    -0.128 OA 
HETATM   40  C   UNL     1      -6.399  12.068  69.376  1.00  0.00    -0.116 C  
HETATM   41  C   UNL     1      -6.344  13.582  69.109  1.00  0.00    -0.101 C  
HETATM   42  N   UNL     1      -7.654  13.978  68.575  1.00  0.00    -0.124 N  
HETATM   43  C   UNL     1      -5.214  13.860  68.107  1.00  0.00    -0.113 C  
HETATM   44  H   UNL     1      -8.376  13.261  68.512  1.00  0.00     0.000 HD 
ENDBRANCH   9  37
TORSDOF 9
ENDMDL
MODEL       78
REMARK 921   NORMALIZED FREE ENERGY PREDICTED BY IDOCK:   -5.86 KCAL/MOL
REMARK 922        TOTAL FREE ENERGY PREDICTED BY IDOCK:  -11.78 KCAL/MOL
REMARK 923 INTER-LIGAND FREE ENERGY PREDICTED BY IDOCK:   -9.44 KCAL/MOL
REMARK 924 INTRA-LIGAND FREE ENERGY PREDICTED BY IDOCK:   -2.34 KCAL/MOL
REMARK 927      BINDING AFFINITY PREDICTED BY RF-SCORE:    0.00 PKD
ROOT
HETATM    1  C   UNL     1     -10.834  11.500  65.484  1.00  0.00    -0.313 C  
HETATM    2  C   UNL     1     -10.810  12.296  64.176  1.00  0.00    -0.412 C  
HETATM    3  C   UNL     1     -10.482  13.766  64.412  1.00  0.00    -0.265 C  
HETATM    4  C   UNL     1     -11.486  14.400  65.365  1.00  0.00    -0.344 C  
HETATM    5  C   UNL     1     -11.620  13.640  66.684  1.00  0.00    -0.391 C  
HETATM    6  C   UNL     1     -11.774  12.120  66.520  1.00  0.00    -0.392 C  
HETATM    7  C   UNL     1     -11.626  11.352  67.845  1.00  0.00    -0.266 C  
HETATM    8  N   UNL     1     -10.299  11.460  68.461  1.00  0.00    -0.199 NA 
HETATM    9  C   UNL     1      -9.167  11.335  67.525  1.00  0.00    -0.158 C  
HETATM   10  C   UNL     1      -9.415  11.240  66.007  1.00  0.00    -0.240 C  
ENDROOT
BRANCH   8  11
HETATM   11  C   UNL     1     -10.183  10.549  69.629  1.00  0.00    -0.168 C  
BRANCH  11  12
HETATM   12  C   UNL     1      -9.059   9.461  69.648  1.00  0.00    -0.181 C  
HETATM   13  H   UNL     1      -7.374   9.103  70.650  1.00  0.00     0.000 HD 
HETATM   14  O   UNL     1      -8.057   9.763  70.638  1.00  0.00    -0.264 OA 
BRANCH  12  15
HETATM   15  C   UNL     1      -9.581   8.009  69.814  1.00  0.00    -0.171 C  
BRANCH  15  16
HETATM   16  N   UNL     1      -9.319   7.156  68.648  1.00  0.00    -0.135 N  
HETATM   17  C   UNL     1      -9.975   7.295  67.446  1.00  0.00    -0.174 C  
HETATM   18  O   UNL     1     -10.846   8.128  67.225  1.00  0.00    -0.248 OA 
HETATM   19  H   UNL     1      -8.616   6.422  68.733  1.00  0.00     0.000 HD 
BRANCH  17  20
HETATM   20  C   UNL     1      -9.619   6.327  66.383  1.00  0.00    -0.159 A  
HETATM   21  C   UNL     1     -10.364   5.136  66.311  1.00  0.00    -0.313 A  
HETATM   22  H   UNL     1      -6.923   4.924  63.143  1.00  0.00     0.000 HD 
HETATM   23  C   UNL     1      -8.530   6.557  65.513  1.00  0.00    -0.139 A  
HETATM   24  C   UNL     1      -8.210   5.536  64.607  1.00  0.00    -0.130 A  
HETATM   25  C   UNL     1     -10.049   4.167  65.367  1.00  0.00    -0.207 A  
HETATM   26  C   UNL     1      -7.724   7.832  65.516  1.00  0.00    -0.100 C  
HETATM   27  O   UNL     1      -7.141   5.616  63.757  1.00  0.00    -0.048 OA 
HETATM   28  C   UNL     1      -8.965   4.368  64.519  1.00  0.00    -0.151 A  
ENDBRANCH  17  20
ENDBRANCH  15  16
BRANCH  15  29
HETATM   29  C   UNL     1      -9.146   7.345  71.154  1.00  0.00    -0.148 C  
BRANCH  29  30
HETATM   30  S   UNL     1     -10.410   6.305  71.975  1.00  0.00    -0.206 SA 
BRANCH  30  31
HETATM   31  C   UNL     1     -11.878   7.307  71.960  1.00  0.00    -0.296 A  
HETATM   32  C   UNL     1     -12.818   9.522  72.314  1.00  0.00    -0.426 A  
HETATM   33  C   UNL     1     -11.750   8.630  72.406  1.00  0.00    -0.393 A  
HETATM   34  C   UNL     1     -14.170   7.783  71.333  1.00  0.00    -0.489 A  
HETATM   35  C   UNL     1     -14.028   9.098  71.770  1.00  0.00    -0.372 A  
HETATM   36  C   UNL     1     -13.098   6.889  71.428  1.00  0.00    -0.316 A  
ENDBRANCH  30  31
ENDBRANCH  29  30
ENDBRANCH  15  29
ENDBRANCH  12  15
ENDBRANCH  11  12
ENDBRANCH   8  11
BRANCH   9  37
HETATM   37  C   UNL     1      -8.159  12.498  67.788  1.00  0.00    -0.164 C  
HETATM   38  C   UNL     1      -7.495  15.538  67.333  1.00  0.00    -0.235 C  
HETATM   39  O   UNL     1      -6.946  12.413  67.604  1.00  0.00    -0.104 OA 
HETATM   40  C   UNL     1      -9.083  15.851  69.225  1.00  0.00    -0.253 C  
HETATM   41  C   UNL     1      -8.055  14.889  68.607  1.00  0.00    -0.151 C  
HETATM   42  N   UNL     1      -8.759  13.636  68.300  1.00  0.00    -0.171 N  
HETATM   43  C   UNL     1      -6.922  14.670  69.619  1.00  0.00    -0.149 C  
HETATM   44  H   UNL     1      -9.763  13.603  68.477  1.00  0.00     0.000 HD 
ENDBRANCH   9  37
TORSDOF 9
ENDMDL
MODEL       79
REMARK 921   NORMALIZED FREE ENERGY PREDICTED BY IDOCK:   -5.84 KCAL/MOL
REMARK 922        TOTAL FREE ENERGY PREDICTED BY IDOCK:  -11.75 KCAL/MOL
REMARK 923 INTER-LIGAND FREE ENERGY PREDICTED BY IDOCK:   -9.71 KCAL/MOL
REMARK 924 INTRA-LIGAND FREE ENERGY PREDICTED BY IDOCK:   -2.04 KCAL/MOL
REMARK 927      BINDING AFFINITY PREDICTED BY RF-SCORE:    0.00 PKD
ROOT
HETATM    1  C   UNL     1      -9.536   5.398  71.319  1.00  0.00    -0.205 C  
HETATM    2  C   UNL     1      -9.554   3.867  71.282  1.00  0.00    -0.241 C  
HETATM    3  C   UNL     1      -9.062   3.326  69.944  1.00  0.00    -0.199 C  
HETATM    4  C   UNL     1      -9.907   3.864  68.797  1.00  0.00     0.000 C  
HETATM    5  C   UNL     1      -9.993   5.390  68.783  1.00  0.00    -0.235 C  
HETATM    6  C   UNL     1     -10.312   6.012  70.152  1.00  0.00    -0.284 C  
HETATM    7  C   UNL     1     -10.119   7.539  70.179  1.00  0.00    -0.195 C  
HETATM    8  N   UNL     1      -8.738   7.978  69.957  1.00  0.00    -0.134 NA 
HETATM    9  C   UNL     1      -7.714   7.196  70.674  1.00  0.00    -0.094 C  
HETATM   10  C   UNL     1      -8.108   5.938  71.471  1.00  0.00    -0.115 C  
ENDROOT
BRANCH   8  11
HETATM   11  C   UNL     1      -8.606   9.440  70.180  1.00  0.00    -0.212 C  
BRANCH  11  12
HETATM   12  C   UNL     1      -8.103  10.356  69.015  1.00  0.00    -0.138 C  
HETATM   13  H   UNL     1      -6.898  10.201  67.436  1.00  0.00     0.000 HD 
HETATM   14  O   UNL     1      -7.203   9.646  68.143  1.00  0.00    -0.078 OA 
BRANCH  12  15
HETATM   15  C   UNL     1      -9.238  11.037  68.205  1.00  0.00    -0.165 C  
BRANCH  15  16
HETATM   16  N   UNL     1     -10.005  12.019  68.983  1.00  0.00    -0.415 N  
HETATM   17  C   UNL     1     -11.377  11.995  69.088  1.00  0.00    -0.281 C  
HETATM   18  O   UNL     1     -12.099  11.170  68.541  1.00  0.00    -0.586 OA 
HETATM   19  H   UNL     1      -9.495  12.755  69.470  1.00  0.00     0.000 HD 
BRANCH  17  20
HETATM   20  C   UNL     1     -11.999  13.081  69.881  1.00  0.00    -0.381 A  
HETATM   21  C   UNL     1     -11.822  14.401  69.427  1.00  0.00    -0.369 A  
HETATM   22  H   UNL     1     -14.092  14.533  73.519  1.00  0.00     0.000 HD 
HETATM   23  C   UNL     1     -12.687  12.812  71.084  1.00  0.00    -0.355 A  
HETATM   24  C   UNL     1     -13.151  13.915  71.815  1.00  0.00    -0.377 A  
HETATM   25  C   UNL     1     -12.339  15.467  70.151  1.00  0.00    -0.395 A  
HETATM   26  C   UNL     1     -12.943  11.417  71.597  1.00  0.00    -0.523 C  
HETATM   27  O   UNL     1     -13.778  13.786  73.024  1.00  0.00    -0.581 OA 
HETATM   28  C   UNL     1     -13.000  15.220  71.350  1.00  0.00    -0.503 A  
ENDBRANCH  17  20
ENDBRANCH  15  16
BRANCH  15  29
HETATM   29  C   UNL     1      -8.765  11.597  66.831  1.00  0.00    -0.185 C  
BRANCH  29  30
HETATM   30  S   UNL     1      -9.690  10.999  65.368  1.00  0.00    -0.247 SA 
BRANCH  30  31
HETATM   31  C   UNL     1     -10.810  12.325  64.986  1.00  0.00    -0.298 A  
HETATM   32  C   UNL     1     -12.211  13.364  63.291  1.00  0.00    -0.314 A  
HETATM   33  C   UNL     1     -11.238  12.432  63.655  1.00  0.00    -0.544 A  
HETATM   34  C   UNL     1     -12.342  14.105  65.582  1.00  0.00    -0.473 A  
HETATM   35  C   UNL     1     -12.768  14.197  64.258  1.00  0.00     0.025 A  
HETATM   36  C   UNL     1     -11.366  13.173  65.946  1.00  0.00    -0.338 A  
ENDBRANCH  30  31
ENDBRANCH  29  30
ENDBRANCH  15  29
ENDBRANCH  12  15
ENDBRANCH  11  12
ENDBRANCH   8  11
BRANCH   9  37
HETATM   37  C   UNL     1      -6.576   6.812  69.677  1.00  0.00    -0.048 C  
HETATM   38  C   UNL     1      -5.480   4.661  67.661  1.00  0.00    -0.013 C  
HETATM   39  O   UNL     1      -5.377   6.884  69.938  1.00  0.00    -0.014 OA 
HETATM   40  C   UNL     1      -7.125   5.717  66.118  1.00  0.00    -0.068 C  
HETATM   41  C   UNL     1      -6.200   5.973  67.320  1.00  0.00    -0.033 C  
HETATM   42  N   UNL     1      -7.047   6.421  68.434  1.00  0.00    -0.080 N  
HETATM   43  C   UNL     1      -5.172   7.043  66.925  1.00  0.00    -0.017 C  
HETATM   44  H   UNL     1      -8.055   6.445  68.282  1.00  0.00     0.000 HD 
ENDBRANCH   9  37
TORSDOF 9
ENDMDL
MODEL       80
REMARK 921   NORMALIZED FREE ENERGY PREDICTED BY IDOCK:   -5.83 KCAL/MOL
REMARK 922        TOTAL FREE ENERGY PREDICTED BY IDOCK:  -11.73 KCAL/MOL
REMARK 923 INTER-LIGAND FREE ENERGY PREDICTED BY IDOCK:   -9.43 KCAL/MOL
REMARK 924 INTRA-LIGAND FREE ENERGY PREDICTED BY IDOCK:   -2.30 KCAL/MOL
REMARK 927      BINDING AFFINITY PREDICTED BY RF-SCORE:    0.00 PKD
ROOT
HETATM    1  C   UNL     1     -10.885  12.126  64.945  1.00  0.00    -0.352 C  
HETATM    2  C   UNL     1     -11.477  13.013  63.844  1.00  0.00    -0.490 C  
HETATM    3  C   UNL     1     -11.862  14.390  64.372  1.00  0.00    -0.433 C  
HETATM    4  C   UNL     1     -12.862  14.275  65.514  1.00  0.00    -0.334 C  
HETATM    5  C   UNL     1     -12.380  13.361  66.640  1.00  0.00    -0.324 C  
HETATM    6  C   UNL     1     -11.809  12.018  66.159  1.00  0.00    -0.225 C  
HETATM    7  C   UNL     1     -11.081  11.240  67.268  1.00  0.00    -0.305 C  
HETATM    8  N   UNL     1      -9.885  11.910  67.791  1.00  0.00    -0.180 NA 
HETATM    9  C   UNL     1      -9.017  12.521  66.768  1.00  0.00    -0.198 C  
HETATM   10  C   UNL     1      -9.450  12.545  65.289  1.00  0.00     0.144 C  
ENDROOT
BRANCH   8  11
HETATM   11  C   UNL     1      -9.143  11.019  68.718  1.00  0.00    -0.157 C  
BRANCH  11  12
HETATM   12  C   UNL     1      -9.040   9.490  68.401  1.00  0.00    -0.127 C  
HETATM   13  H   UNL     1      -7.606   8.151  68.055  1.00  0.00     0.000 HD 
HETATM   14  O   UNL     1      -7.668   9.078  68.248  1.00  0.00    -0.094 OA 
BRANCH  12  15
HETATM   15  C   UNL     1      -9.783   8.578  69.414  1.00  0.00    -0.177 C  
BRANCH  15  16
HETATM   16  N   UNL     1      -9.481   7.150  69.248  1.00  0.00    -0.153 N  
HETATM   17  C   UNL     1     -10.451   6.177  69.177  1.00  0.00    -0.251 C  
HETATM   18  O   UNL     1     -11.655   6.390  69.257  1.00  0.00    -0.354 OA 
HETATM   19  H   UNL     1      -8.504   6.867  69.182  1.00  0.00     0.000 HD 
BRANCH  17  20
HETATM   20  C   UNL     1      -9.976   4.779  69.047  1.00  0.00    -0.213 A  
HETATM   21  C   UNL     1      -9.664   4.085  70.230  1.00  0.00    -0.263 A  
HETATM   22  H   UNL     1      -8.563   1.365  66.582  1.00  0.00     0.000 HD 
HETATM   23  C   UNL     1      -9.778   4.185  67.781  1.00  0.00    -0.168 A  
HETATM   24  C   UNL     1      -9.230   2.894  67.761  1.00  0.00    -0.205 A  
HETATM   25  C   UNL     1      -9.169   2.789  70.173  1.00  0.00    -0.205 A  
HETATM   26  C   UNL     1     -10.135   4.864  66.483  1.00  0.00    -0.285 C  
HETATM   27  O   UNL     1      -8.935   2.239  66.597  1.00  0.00    -0.129 OA 
HETATM   28  C   UNL     1      -8.947   2.197  68.934  1.00  0.00    -0.165 A  
ENDBRANCH  17  20
ENDBRANCH  15  16
BRANCH  15  29
HETATM   29  C   UNL     1      -9.641   9.054  70.891  1.00  0.00    -0.262 C  
BRANCH  29  30
HETATM   30  S   UNL     1     -11.078   8.720  71.975  1.00  0.00    -0.342 SA 
BRANCH  30  31
HETATM   31  C   UNL     1     -10.676   7.185  72.775  1.00  0.00    -0.288 A  
HETATM   32  C   UNL     1     -11.337   4.879  73.174  1.00  0.00    -0.395 A  
HETATM   33  C   UNL     1     -11.622   6.154  72.684  1.00  0.00    -0.239 A  
HETATM   34  C   UNL     1      -9.157   5.643  73.865  1.00  0.00    -0.126 A  
HETATM   35  C   UNL     1     -10.100   4.622  73.760  1.00  0.00    -0.211 A  
HETATM   36  C   UNL     1      -9.444   6.921  73.375  1.00  0.00    -0.190 A  
ENDBRANCH  30  31
ENDBRANCH  29  30
ENDBRANCH  15  29
ENDBRANCH  12  15
ENDBRANCH  11  12
ENDBRANCH   8  11
BRANCH   9  37
HETATM   37  C   UNL     1      -8.665  13.978  67.203  1.00  0.00    -0.221 C  
HETATM   38  C   UNL     1      -7.868  16.870  66.257  1.00  0.00    -0.346 C  
HETATM   39  O   UNL     1      -7.850  14.258  68.079  1.00  0.00    -0.119 OA 
HETATM   40  C   UNL     1     -10.314  17.076  65.844  1.00  0.00    -0.310 C  
HETATM   41  C   UNL     1      -9.251  16.391  66.719  1.00  0.00    -0.237 C  
HETATM   42  N   UNL     1      -9.402  14.941  66.533  1.00  0.00    -0.266 N  
HETATM   43  C   UNL     1      -9.482  16.802  68.180  1.00  0.00    -0.234 C  
HETATM   44  H   UNL     1     -10.100  14.620  65.862  1.00  0.00     0.000 HD 
ENDBRANCH   9  37
TORSDOF 9
ENDMDL
MODEL       81
REMARK 921   NORMALIZED FREE ENERGY PREDICTED BY IDOCK:   -5.82 KCAL/MOL
REMARK 922        TOTAL FREE ENERGY PREDICTED BY IDOCK:  -11.72 KCAL/MOL
REMARK 923 INTER-LIGAND FREE ENERGY PREDICTED BY IDOCK:   -8.50 KCAL/MOL
REMARK 924 INTRA-LIGAND FREE ENERGY PREDICTED BY IDOCK:   -3.22 KCAL/MOL
REMARK 927      BINDING AFFINITY PREDICTED BY RF-SCORE:    0.00 PKD
ROOT
HETATM    1  C   UNL     1     -10.490   7.470  69.948  1.00  0.00    -0.232 C  
HETATM    2  C   UNL     1     -11.807   6.807  70.363  1.00  0.00    -0.395 C  
HETATM    3  C   UNL     1     -12.732   7.783  71.082  1.00  0.00    -0.205 C  
HETATM    4  C   UNL     1     -12.055   8.366  72.315  1.00  0.00    -0.456 C  
HETATM    5  C   UNL     1     -10.701   9.004  72.007  1.00  0.00    -0.333 C  
HETATM    6  C   UNL     1      -9.783   8.138  71.129  1.00  0.00    -0.200 C  
HETATM    7  C   UNL     1      -8.556   8.903  70.603  1.00  0.00    -0.194 C  
HETATM    8  N   UNL     1      -8.877  10.017  69.705  1.00  0.00    -0.203 NA 
HETATM    9  C   UNL     1      -9.922   9.729  68.706  1.00  0.00    -0.169 C  
HETATM   10  C   UNL     1     -10.684   8.390  68.736  1.00  0.00    -0.086 C  
ENDROOT
BRANCH   8  11
HETATM   11  C   UNL     1      -7.643  10.581  69.101  1.00  0.00    -0.123 C  
BRANCH  11  12
HETATM   12  C   UNL     1      -7.424  10.476  67.555  1.00  0.00    -0.093 C  
HETATM   13  H   UNL     1      -6.498  11.510  66.126  1.00  0.00     0.000 HD 
HETATM   14  O   UNL     1      -6.631  11.573  67.064  1.00  0.00    -0.113 OA 
BRANCH  12  15
HETATM   15  C   UNL     1      -6.841   9.116  67.085  1.00  0.00    -0.080 C  
BRANCH  15  16
HETATM   16  N   UNL     1      -7.536   7.954  67.652  1.00  0.00    -0.107 N  
HETATM   17  C   UNL     1      -6.906   6.768  67.951  1.00  0.00    -0.077 C  
HETATM   18  O   UNL     1      -5.714   6.551  67.766  1.00  0.00    -0.011 OA 
HETATM   19  H   UNL     1      -8.537   8.030  67.834  1.00  0.00     0.000 HD 
BRANCH  17  20
HETATM   20  C   UNL     1      -7.761   5.680  68.481  1.00  0.00    -0.089 A  
HETATM   21  C   UNL     1      -8.701   5.105  67.607  1.00  0.00    -0.103 A  
HETATM   22  H   UNL     1      -9.295   3.234  71.858  1.00  0.00     0.000 HD 
HETATM   23  C   UNL     1      -7.685   5.279  69.833  1.00  0.00    -0.069 A  
HETATM   24  C   UNL     1      -8.605   4.313  70.266  1.00  0.00    -0.069 A  
HETATM   25  C   UNL     1      -9.564   4.114  68.057  1.00  0.00    -0.200 A  
HETATM   26  C   UNL     1      -6.671   5.829  70.805  1.00  0.00    -0.052 C  
HETATM   27  O   UNL     1      -8.671   3.888  71.564  1.00  0.00    -0.094 OA 
HETATM   28  C   UNL     1      -9.517   3.724  69.392  1.00  0.00    -0.257 A  
ENDBRANCH  17  20
ENDBRANCH  15  16
BRANCH  15  29
HETATM   29  C   UNL     1      -6.670   9.019  65.539  1.00  0.00    -0.072 C  
BRANCH  29  30
HETATM   30  S   UNL     1      -8.085   8.300  64.627  1.00  0.00    -0.135 SA 
BRANCH  30  31
HETATM   31  C   UNL     1      -9.068   9.706  64.164  1.00  0.00    -0.209 A  
HETATM   32  C   UNL     1     -10.653  11.396  64.902  1.00  0.00    -0.368 A  
HETATM   33  C   UNL     1      -9.936  10.222  65.136  1.00  0.00    -0.395 A  
HETATM   34  C   UNL     1      -9.654  11.556  62.713  1.00  0.00    -0.212 A  
HETATM   35  C   UNL     1     -10.505  12.068  63.691  1.00  0.00    -0.494 A  
HETATM   36  C   UNL     1      -8.937  10.379  62.948  1.00  0.00    -0.260 A  
ENDBRANCH  30  31
ENDBRANCH  29  30
ENDBRANCH  15  29
ENDBRANCH  12  15
ENDBRANCH  11  12
ENDBRANCH   8  11
BRANCH   9  37
HETATM   37  C   UNL     1     -10.965  10.891  68.710  1.00  0.00    -0.237 C  
HETATM   38  C   UNL     1     -12.001  13.470  70.180  1.00  0.00    -0.399 C  
HETATM   39  O   UNL     1     -12.175  10.731  68.566  1.00  0.00    -0.470 OA 
HETATM   40  C   UNL     1     -10.100  14.543  68.981  1.00  0.00    -0.187 C  
HETATM   41  C   UNL     1     -11.134  13.406  68.915  1.00  0.00    -0.266 C  
HETATM   42  N   UNL     1     -10.387  12.142  68.845  1.00  0.00    -0.400 N  
HETATM   43  C   UNL     1     -12.011  13.616  67.672  1.00  0.00    -0.386 C  
HETATM   44  H   UNL     1      -9.370  12.190  68.900  1.00  0.00     0.000 HD 
ENDBRANCH   9  37
TORSDOF 9
ENDMDL
MODEL       82
REMARK 921   NORMALIZED FREE ENERGY PREDICTED BY IDOCK:   -5.81 KCAL/MOL
REMARK 922        TOTAL FREE ENERGY PREDICTED BY IDOCK:  -11.70 KCAL/MOL
REMARK 923 INTER-LIGAND FREE ENERGY PREDICTED BY IDOCK:   -9.57 KCAL/MOL
REMARK 924 INTRA-LIGAND FREE ENERGY PREDICTED BY IDOCK:   -2.12 KCAL/MOL
REMARK 927      BINDING AFFINITY PREDICTED BY RF-SCORE:    0.00 PKD
ROOT
HETATM    1  C   UNL     1      -5.791   7.380  72.924  1.00  0.00    -0.044 C  
HETATM    2  C   UNL     1      -5.773   6.464  74.152  1.00  0.00    -0.055 C  
HETATM    3  C   UNL     1      -7.075   5.684  74.296  1.00  0.00    -0.082 C  
HETATM    4  C   UNL     1      -8.266   6.627  74.393  1.00  0.00    -0.146 C  
HETATM    5  C   UNL     1      -8.338   7.620  73.234  1.00  0.00    -0.193 C  
HETATM    6  C   UNL     1      -7.003   8.314  72.919  1.00  0.00    -0.124 C  
HETATM    7  C   UNL     1      -7.025   9.089  71.590  1.00  0.00     0.012 C  
HETATM    8  N   UNL     1      -7.220   8.248  70.404  1.00  0.00    -0.043 NA 
HETATM    9  C   UNL     1      -6.444   6.995  70.396  1.00  0.00    -0.043 C  
HETATM   10  C   UNL     1      -5.614   6.581  71.627  1.00  0.00    -0.032 C  
ENDROOT
BRANCH   8  11
HETATM   11  C   UNL     1      -7.045   9.041  69.160  1.00  0.00    -0.063 C  
BRANCH  11  12
HETATM   12  C   UNL     1      -8.255   9.220  68.183  1.00  0.00    -0.119 C  
HETATM   13  H   UNL     1      -9.770   8.122  67.499  1.00  0.00     0.000 HD 
HETATM   14  O   UNL     1      -9.036   8.013  68.092  1.00  0.00    -0.135 OA 
BRANCH  12  15
HETATM   15  C   UNL     1      -9.157  10.441  68.505  1.00  0.00    -0.145 C  
BRANCH  15  16
HETATM   16  N   UNL     1      -9.940  10.911  67.354  1.00  0.00    -0.183 N  
HETATM   17  C   UNL     1      -9.652  12.067  66.666  1.00  0.00    -0.216 C  
HETATM   18  O   UNL     1      -8.732  12.827  66.941  1.00  0.00    -0.207 OA 
HETATM   19  H   UNL     1     -10.737  10.351  67.051  1.00  0.00     0.000 HD 
BRANCH  17  20
HETATM   20  C   UNL     1     -10.565  12.417  65.552  1.00  0.00    -0.307 A  
HETATM   21  C   UNL     1     -10.687  11.496  64.496  1.00  0.00    -0.390 A  
HETATM   22  H   UNL     1     -13.162  15.322  63.419  1.00  0.00     0.000 HD 
HETATM   23  C   UNL     1     -11.238  13.658  65.517  1.00  0.00    -0.301 A  
HETATM   24  C   UNL     1     -11.999  13.939  64.373  1.00  0.00    -0.450 A  
HETATM   25  C   UNL     1     -11.490  11.787  63.401  1.00  0.00    -0.424 A  
HETATM   26  C   UNL     1     -11.179  14.665  66.638  1.00  0.00    -0.349 C  
HETATM   27  O   UNL     1     -12.647  15.131  64.194  1.00  0.00    -0.737 OA 
HETATM   28  C   UNL     1     -12.141  13.015  63.339  1.00  0.00    -0.591 A  
ENDBRANCH  17  20
ENDBRANCH  15  16
BRANCH  15  29
HETATM   29  C   UNL     1     -10.026  10.247  69.784  1.00  0.00    -0.181 C  
BRANCH  29  30
HETATM   30  S   UNL     1     -11.834  10.412  69.549  1.00  0.00    -0.087 SA 
BRANCH  30  31
HETATM   31  C   UNL     1     -12.263  11.874  70.464  1.00  0.00    -0.336 A  
HETATM   32  C   UNL     1     -12.312  14.305  70.485  1.00  0.00    -0.430 A  
HETATM   33  C   UNL     1     -11.907  13.106  69.899  1.00  0.00    -0.378 A  
HETATM   34  C   UNL     1     -13.432  13.064  72.222  1.00  0.00    -0.645 A  
HETATM   35  C   UNL     1     -13.082  14.283  71.645  1.00  0.00    -0.417 A  
HETATM   36  C   UNL     1     -13.024  11.862  71.634  1.00  0.00    -0.447 A  
ENDBRANCH  30  31
ENDBRANCH  29  30
ENDBRANCH  15  29
ENDBRANCH  12  15
ENDBRANCH  11  12
ENDBRANCH   8  11
BRANCH   9  37
HETATM   37  C   UNL     1      -7.391   5.812  70.020  1.00  0.00    -0.074 C  
HETATM   38  C   UNL     1      -9.807   4.009  70.914  1.00  0.00    -0.229 C  
HETATM   39  O   UNL     1      -7.002   4.728  69.590  1.00  0.00    -0.050 OA 
HETATM   40  C   UNL     1     -11.150   5.957  70.137  1.00  0.00    -0.395 C  
HETATM   41  C   UNL     1      -9.838   5.181  69.924  1.00  0.00    -0.219 C  
HETATM   42  N   UNL     1      -8.733   6.118  70.172  1.00  0.00    -0.139 N  
HETATM   43  C   UNL     1      -9.817   4.646  68.485  1.00  0.00    -0.181 C  
HETATM   44  H   UNL     1      -8.972   7.060  70.478  1.00  0.00     0.000 HD 
ENDBRANCH   9  37
TORSDOF 9
ENDMDL
MODEL       83
REMARK 921   NORMALIZED FREE ENERGY PREDICTED BY IDOCK:   -5.79 KCAL/MOL
REMARK 922        TOTAL FREE ENERGY PREDICTED BY IDOCK:  -11.67 KCAL/MOL
REMARK 923 INTER-LIGAND FREE ENERGY PREDICTED BY IDOCK:   -9.88 KCAL/MOL
REMARK 924 INTRA-LIGAND FREE ENERGY PREDICTED BY IDOCK:   -1.79 KCAL/MOL
REMARK 927      BINDING AFFINITY PREDICTED BY RF-SCORE:    0.00 PKD
ROOT
HETATM    1  C   UNL     1      -9.123   4.613  67.603  1.00  0.00    -0.133 C  
HETATM    2  C   UNL     1      -8.490   3.274  67.213  1.00  0.00    -0.106 C  
HETATM    3  C   UNL     1      -8.309   3.150  65.705  1.00  0.00    -0.100 C  
HETATM    4  C   UNL     1      -9.641   3.303  64.983  1.00  0.00    -0.125 C  
HETATM    5  C   UNL     1     -10.377   4.591  65.352  1.00  0.00    -0.224 C  
HETATM    6  C   UNL     1     -10.438   4.867  66.863  1.00  0.00    -0.202 C  
HETATM    7  C   UNL     1     -10.927   6.287  67.196  1.00  0.00    -0.370 C  
HETATM    8  N   UNL     1     -10.042   7.358  66.725  1.00  0.00    -0.243 NA 
HETATM    9  C   UNL     1      -8.604   7.115  66.939  1.00  0.00    -0.124 C  
HETATM   10  C   UNL     1      -8.114   5.763  67.493  1.00  0.00    -0.102 C  
ENDROOT
BRANCH   8  11
HETATM   11  C   UNL     1     -10.486   8.677  67.243  1.00  0.00    -0.289 C  
BRANCH  11  12
HETATM   12  C   UNL     1      -9.530   9.504  68.167  1.00  0.00    -0.133 C  
HETATM   13  H   UNL     1      -8.612  11.271  68.129  1.00  0.00     0.000 HD 
HETATM   14  O   UNL     1      -9.192  10.770  67.569  1.00  0.00    -0.143 OA 
BRANCH  12  15
HETATM   15  C   UNL     1     -10.054   9.697  69.615  1.00  0.00    -0.224 C  
BRANCH  15  16
HETATM   16  N   UNL     1     -10.443  11.080  69.918  1.00  0.00    -0.421 N  
HETATM   17  C   UNL     1     -11.618  11.647  69.483  1.00  0.00    -0.331 C  
HETATM   18  O   UNL     1     -12.453  11.071  68.795  1.00  0.00    -0.468 OA 
HETATM   19  H   UNL     1      -9.808  11.649  70.478  1.00  0.00     0.000 HD 
BRANCH  17  20
HETATM   20  C   UNL     1     -11.840  13.067  69.844  1.00  0.00    -0.377 A  
HETATM   21  C   UNL     1     -11.262  14.047  69.017  1.00  0.00    -0.311 A  
HETATM   22  H   UNL     1     -13.272  16.185  72.665  1.00  0.00     0.000 HD 
HETATM   23  C   UNL     1     -12.550  13.427  71.011  1.00  0.00    -0.425 A  
HETATM   24  C   UNL     1     -12.619  14.792  71.321  1.00  0.00    -0.334 A  
HETATM   25  C   UNL     1     -11.393  15.394  69.328  1.00  0.00    -0.323 A  
HETATM   26  C   UNL     1     -13.227  12.423  71.910  1.00  0.00    -0.486 C  
HETATM   27  O   UNL     1     -13.225  15.260  72.454  1.00  0.00    -0.342 OA 
HETATM   28  C   UNL     1     -12.069  15.764  70.486  1.00  0.00    -0.407 A  
ENDBRANCH  17  20
ENDBRANCH  15  16
BRANCH  15  29
HETATM   29  C   UNL     1     -11.148   8.663  70.018  1.00  0.00    -0.157 C  
BRANCH  29  30
HETATM   30  S   UNL     1     -11.398   8.431  71.817  1.00  0.00    -0.325 SA 
BRANCH  30  31
HETATM   31  C   UNL     1     -10.958   6.733  72.106  1.00  0.00    -0.238 A  
HETATM   32  C   UNL     1     -10.199   4.645  71.118  1.00  0.00    -0.199 A  
HETATM   33  C   UNL     1     -10.672   5.950  70.979  1.00  0.00    -0.331 A  
HETATM   34  C   UNL     1     -10.297   4.877  73.516  1.00  0.00    -0.246 A  
HETATM   35  C   UNL     1     -10.005   4.111  72.389  1.00  0.00    -0.229 A  
HETATM   36  C   UNL     1     -10.772   6.185  73.376  1.00  0.00    -0.280 A  
ENDBRANCH  30  31
ENDBRANCH  29  30
ENDBRANCH  15  29
ENDBRANCH  12  15
ENDBRANCH  11  12
ENDBRANCH   8  11
BRANCH   9  37
HETATM   37  C   UNL     1      -7.834   7.413  65.614  1.00  0.00    -0.111 C  
HETATM   38  C   UNL     1      -7.933   7.396  62.471  1.00  0.00    -0.130 C  
HETATM   39  O   UNL     1      -6.690   7.028  65.380  1.00  0.00    -0.049 OA 
HETATM   40  C   UNL     1      -9.152   9.541  62.804  1.00  0.00    -0.196 C  
HETATM   41  C   UNL     1      -8.083   8.609  63.399  1.00  0.00    -0.168 C  
HETATM   42  N   UNL     1      -8.551   8.205  64.732  1.00  0.00    -0.383 N  
HETATM   43  C   UNL     1      -6.754   9.375  63.473  1.00  0.00    -0.095 C  
HETATM   44  H   UNL     1      -9.471   8.530  65.030  1.00  0.00     0.000 HD 
ENDBRANCH   9  37
TORSDOF 9
ENDMDL
MODEL       84
REMARK 921   NORMALIZED FREE ENERGY PREDICTED BY IDOCK:   -5.76 KCAL/MOL
REMARK 922        TOTAL FREE ENERGY PREDICTED BY IDOCK:  -11.63 KCAL/MOL
REMARK 923 INTER-LIGAND FREE ENERGY PREDICTED BY IDOCK:   -9.42 KCAL/MOL
REMARK 924 INTRA-LIGAND FREE ENERGY PREDICTED BY IDOCK:   -2.21 KCAL/MOL
REMARK 927      BINDING AFFINITY PREDICTED BY RF-SCORE:    0.00 PKD
ROOT
HETATM    1  C   UNL     1      -9.857   7.662  67.038  1.00  0.00    -0.282 C  
HETATM    2  C   UNL     1     -10.661   6.360  66.960  1.00  0.00    -0.396 C  
HETATM    3  C   UNL     1     -10.653   5.609  68.286  1.00  0.00    -0.253 C  
HETATM    4  C   UNL     1      -9.230   5.292  68.723  1.00  0.00    -0.145 C  
HETATM    5  C   UNL     1      -8.333   6.528  68.778  1.00  0.00    -0.122 C  
HETATM    6  C   UNL     1      -8.429   7.429  67.537  1.00  0.00    -0.116 C  
HETATM    7  C   UNL     1      -7.743   8.793  67.728  1.00  0.00    -0.102 C  
HETATM    8  N   UNL     1      -8.349   9.635  68.766  1.00  0.00    -0.108 NA 
HETATM    9  C   UNL     1      -9.823   9.660  68.763  1.00  0.00    -0.165 C  
HETATM   10  C   UNL     1     -10.619   8.745  67.812  1.00  0.00    -0.256 C  
ENDROOT
BRANCH   8  11
HETATM   11  C   UNL     1      -7.751  10.994  68.760  1.00  0.00    -0.135 C  
BRANCH  11  12
HETATM   12  C   UNL     1      -7.886  11.891  67.484  1.00  0.00    -0.152 C  
HETATM   13  H   UNL     1      -8.338  11.652  65.558  1.00  0.00     0.000 HD 
HETATM   14  O   UNL     1      -8.255  11.109  66.333  1.00  0.00    -0.162 OA 
BRANCH  12  15
HETATM   15  C   UNL     1      -8.837  13.105  67.658  1.00  0.00    -0.191 C  
BRANCH  15  16
HETATM   16  N   UNL     1      -8.132  14.377  67.859  1.00  0.00    -0.138 N  
HETATM   17  C   UNL     1      -8.287  15.158  68.981  1.00  0.00    -0.209 C  
HETATM   18  O   UNL     1      -9.030  14.887  69.917  1.00  0.00     0.088 OA 
HETATM   19  H   UNL     1      -7.495  14.698  67.129  1.00  0.00     0.000 HD 
BRANCH  17  20
HETATM   20  C   UNL     1      -7.531  16.433  69.009  1.00  0.00    -0.227 A  
HETATM   21  C   UNL     1      -6.240  16.411  69.568  1.00  0.00    -0.198 A  
HETATM   22  H   UNL     1      -7.312  20.837  68.480  1.00  0.00     0.000 HD 
HETATM   23  C   UNL     1      -8.107  17.639  68.553  1.00  0.00    -0.283 A  
HETATM   24  C   UNL     1      -7.351  18.809  68.715  1.00  0.00    -0.312 A  
HETATM   25  C   UNL     1      -5.499  17.582  69.666  1.00  0.00    -0.207 A  
HETATM   26  C   UNL     1      -9.467  17.715  67.907  1.00  0.00    -0.276 C  
HETATM   27  O   UNL     1      -7.824  20.045  68.370  1.00  0.00    -0.269 OA 
HETATM   28  C   UNL     1      -6.061  18.782  69.244  1.00  0.00    -0.268 A  
ENDBRANCH  17  20
ENDBRANCH  15  16
BRANCH  15  29
HETATM   29  C   UNL     1      -9.933  13.193  66.554  1.00  0.00    -0.268 C  
BRANCH  29  30
HETATM   30  S   UNL     1     -11.575  12.523  67.009  1.00  0.00    -0.367 SA 
BRANCH  30  31
HETATM   31  C   UNL     1     -12.000  13.382  68.506  1.00  0.00    -0.328 A  
HETATM   32  C   UNL     1     -12.252  13.235  70.920  1.00  0.00    -0.346 A  
HETATM   33  C   UNL     1     -12.050  12.622  69.683  1.00  0.00    -0.277 A  
HETATM   34  C   UNL     1     -12.367  15.380  69.827  1.00  0.00    -0.288 A  
HETATM   35  C   UNL     1     -12.404  14.617  70.992  1.00  0.00    -0.403 A  
HETATM   36  C   UNL     1     -12.165  14.766  68.587  1.00  0.00    -0.112 A  
ENDBRANCH  30  31
ENDBRANCH  29  30
ENDBRANCH  15  29
ENDBRANCH  12  15
ENDBRANCH  11  12
ENDBRANCH   8  11
BRANCH   9  37
HETATM   37  C   UNL     1     -10.339   9.426  70.218  1.00  0.00    -0.245 C  
HETATM   38  C   UNL     1     -12.792   9.579  72.180  1.00  0.00    -0.471 C  
HETATM   39  O   UNL     1      -9.765   9.831  71.226  1.00  0.00    -0.045 OA 
HETATM   40  C   UNL     1     -13.390   7.411  71.111  1.00  0.00    -0.251 C  
HETATM   41  C   UNL     1     -12.218   8.326  71.505  1.00  0.00    -0.301 C  
HETATM   42  N   UNL     1     -11.497   8.667  70.271  1.00  0.00    -0.448 N  
HETATM   43  C   UNL     1     -11.320   7.568  72.495  1.00  0.00    -0.384 C  
HETATM   44  H   UNL     1     -11.877   8.322  69.390  1.00  0.00     0.000 HD 
ENDBRANCH   9  37
TORSDOF 9
ENDMDL
MODEL       85
REMARK 921   NORMALIZED FREE ENERGY PREDICTED BY IDOCK:   -5.75 KCAL/MOL
REMARK 922        TOTAL FREE ENERGY PREDICTED BY IDOCK:  -11.62 KCAL/MOL
REMARK 923 INTER-LIGAND FREE ENERGY PREDICTED BY IDOCK:   -9.86 KCAL/MOL
REMARK 924 INTRA-LIGAND FREE ENERGY PREDICTED BY IDOCK:   -1.76 KCAL/MOL
REMARK 927      BINDING AFFINITY PREDICTED BY RF-SCORE:    0.00 PKD
ROOT
HETATM    1  C   UNL     1      -8.952   5.284  68.056  1.00  0.00    -0.113 C  
HETATM    2  C   UNL     1      -8.189   3.982  67.794  1.00  0.00    -0.093 C  
HETATM    3  C   UNL     1      -8.027   3.709  66.304  1.00  0.00    -0.089 C  
HETATM    4  C   UNL     1      -9.382   3.643  65.612  1.00  0.00    -0.162 C  
HETATM    5  C   UNL     1     -10.241   4.881  65.862  1.00  0.00    -0.251 C  
HETATM    6  C   UNL     1     -10.301   5.318  67.335  1.00  0.00    -0.237 C  
HETATM    7  C   UNL     1     -10.930   6.708  67.526  1.00  0.00    -0.338 C  
HETATM    8  N   UNL     1     -10.173   7.804  66.913  1.00  0.00    -0.287 NA 
HETATM    9  C   UNL     1      -8.713   7.736  67.107  1.00  0.00    -0.125 C  
HETATM   10  C   UNL     1      -8.072   6.512  67.789  1.00  0.00    -0.115 C  
ENDROOT
BRANCH   8  11
HETATM   11  C   UNL     1     -10.743   9.121  67.298  1.00  0.00    -0.154 C  
BRANCH  11  12
HETATM   12  C   UNL     1      -9.793  10.249  67.822  1.00  0.00    -0.169 C  
HETATM   13  H   UNL     1      -8.749  11.766  67.062  1.00  0.00     0.000 HD 
HETATM   14  O   UNL     1      -9.326  11.081  66.744  1.00  0.00    -0.176 OA 
BRANCH  12  15
HETATM   15  C   UNL     1     -10.396  11.108  68.965  1.00  0.00    -0.194 C  
BRANCH  15  16
HETATM   16  N   UNL     1     -10.204  12.552  68.776  1.00  0.00    -0.404 N  
HETATM   17  C   UNL     1     -11.061  13.338  68.042  1.00  0.00    -0.256 C  
HETATM   18  O   UNL     1     -12.058  12.923  67.462  1.00  0.00    -0.330 OA 
HETATM   19  H   UNL     1      -9.394  12.993  69.212  1.00  0.00     0.000 HD 
BRANCH  17  20
HETATM   20  C   UNL     1     -10.702  14.771  67.917  1.00  0.00    -0.259 A  
HETATM   21  C   UNL     1     -10.741  15.555  69.084  1.00  0.00    -0.250 A  
HETATM   22  H   UNL     1      -9.770  18.347  65.454  1.00  0.00     0.000 HD 
HETATM   23  C   UNL     1     -10.396  15.345  66.664  1.00  0.00    -0.281 A  
HETATM   24  C   UNL     1     -10.168  16.729  66.635  1.00  0.00    -0.309 A  
HETATM   25  C   UNL     1     -10.461  16.914  69.026  1.00  0.00    -0.341 A  
HETATM   26  C   UNL     1     -10.297  14.547  65.389  1.00  0.00    -0.405 C  
HETATM   27  O   UNL     1      -9.923  17.410  65.474  1.00  0.00    -0.555 OA 
HETATM   28  C   UNL     1     -10.180  17.500  67.796  1.00  0.00    -0.349 A  
ENDBRANCH  17  20
ENDBRANCH  15  16
BRANCH  15  29
HETATM   29  C   UNL     1     -11.871  10.737  69.305  1.00  0.00    -0.288 C  
BRANCH  29  30
HETATM   30  S   UNL     1     -12.208  10.347  71.061  1.00  0.00    -0.419 SA 
BRANCH  30  31
HETATM   31  C   UNL     1     -11.582   8.697  71.272  1.00  0.00    -0.284 A  
HETATM   32  C   UNL     1     -12.132   6.350  71.588  1.00  0.00    -0.319 A  
HETATM   33  C   UNL     1     -12.520   7.689  71.532  1.00  0.00    -0.361 A  
HETATM   34  C   UNL     1      -9.855   7.002  71.134  1.00  0.00    -0.180 A  
HETATM   35  C   UNL     1     -10.798   6.006  71.382  1.00  0.00    -0.328 A  
HETATM   36  C   UNL     1     -10.245   8.344  71.080  1.00  0.00    -0.245 A  
ENDBRANCH  30  31
ENDBRANCH  29  30
ENDBRANCH  15  29
ENDBRANCH  12  15
ENDBRANCH  11  12
ENDBRANCH   8  11
BRANCH   9  37
HETATM   37  C   UNL     1      -8.006   7.961  65.733  1.00  0.00    -0.109 C  
HETATM   38  C   UNL     1      -8.285   7.874  62.602  1.00  0.00    -0.111 C  
HETATM   39  O   UNL     1      -6.899   7.511  65.446  1.00  0.00    -0.047 OA 
HETATM   40  C   UNL     1      -9.372  10.087  62.944  1.00  0.00    -0.290 C  
HETATM   41  C   UNL     1      -8.320   9.115  63.504  1.00  0.00    -0.188 C  
HETATM   42  N   UNL     1      -8.731   8.768  64.872  1.00  0.00    -0.330 N  
HETATM   43  C   UNL     1      -6.952   9.812  63.483  1.00  0.00    -0.116 C  
HETATM   44  H   UNL     1      -9.614   9.148  65.211  1.00  0.00     0.000 HD 
ENDBRANCH   9  37
TORSDOF 9
ENDMDL
MODEL       86
REMARK 921   NORMALIZED FREE ENERGY PREDICTED BY IDOCK:   -5.75 KCAL/MOL
REMARK 922        TOTAL FREE ENERGY PREDICTED BY IDOCK:  -11.61 KCAL/MOL
REMARK 923 INTER-LIGAND FREE ENERGY PREDICTED BY IDOCK:   -9.90 KCAL/MOL
REMARK 924 INTRA-LIGAND FREE ENERGY PREDICTED BY IDOCK:   -1.70 KCAL/MOL
REMARK 927      BINDING AFFINITY PREDICTED BY RF-SCORE:    0.00 PKD
ROOT
HETATM    1  C   UNL     1     -10.302   7.899  73.202  1.00  0.00    -0.357 C  
HETATM    2  C   UNL     1     -10.228   6.580  73.978  1.00  0.00    -0.374 C  
HETATM    3  C   UNL     1     -10.496   5.378  73.080  1.00  0.00    -0.251 C  
HETATM    4  C   UNL     1     -11.860   5.491  72.413  1.00  0.00    -0.117 C  
HETATM    5  C   UNL     1     -12.049   6.805  71.657  1.00  0.00    -0.404 C  
HETATM    6  C   UNL     1     -11.625   8.052  72.449  1.00  0.00    -0.450 C  
HETATM    7  C   UNL     1     -11.557   9.322  71.583  1.00  0.00    -0.393 C  
HETATM    8  N   UNL     1     -10.547   9.276  70.521  1.00  0.00    -0.231 NA 
HETATM    9  C   UNL     1      -9.246   8.713  70.924  1.00  0.00    -0.190 C  
HETATM   10  C   UNL     1      -9.059   8.105  72.327  1.00  0.00    -0.263 C  
ENDROOT
BRANCH   8  11
HETATM   11  C   UNL     1     -10.420  10.598  69.855  1.00  0.00    -0.086 C  
BRANCH  11  12
HETATM   12  C   UNL     1     -11.695  11.293  69.271  1.00  0.00    -0.334 C  
HETATM   13  H   UNL     1     -12.788  12.916  69.643  1.00  0.00     0.000 HD 
HETATM   14  O   UNL     1     -12.014  12.495  69.997  1.00  0.00    -0.332 OA 
BRANCH  12  15
HETATM   15  C   UNL     1     -11.626  11.570  67.745  1.00  0.00    -0.267 C  
BRANCH  15  16
HETATM   16  N   UNL     1     -11.514  12.996  67.413  1.00  0.00    -0.312 N  
HETATM   17  C   UNL     1     -10.362  13.726  67.592  1.00  0.00    -0.239 C  
HETATM   18  O   UNL     1      -9.321  13.275  68.054  1.00  0.00    -0.204 OA 
HETATM   19  H   UNL     1     -12.333  13.469  67.030  1.00  0.00     0.000 HD 
BRANCH  17  20
HETATM   20  C   UNL     1     -10.430  15.164  67.242  1.00  0.00    -0.271 A  
HETATM   21  C   UNL     1     -10.429  15.503  65.877  1.00  0.00    -0.356 A  
HETATM   22  H   UNL     1     -10.297  19.455  68.383  1.00  0.00     0.000 HD 
HETATM   23  C   UNL     1     -10.427  16.164  68.240  1.00  0.00    -0.276 A  
HETATM   24  C   UNL     1     -10.390  17.497  67.807  1.00  0.00    -0.367 A  
HETATM   25  C   UNL     1     -10.443  16.835  65.484  1.00  0.00    -0.254 A  
HETATM   26  C   UNL     1     -10.471  15.861  69.716  1.00  0.00    -0.311 C  
HETATM   27  O   UNL     1     -10.323  18.551  68.676  1.00  0.00    -0.357 OA 
HETATM   28  C   UNL     1     -10.417  17.832  66.454  1.00  0.00    -0.297 A  
ENDBRANCH  17  20
ENDBRANCH  15  16
BRANCH  15  29
HETATM   29  C   UNL     1     -10.568  10.696  67.007  1.00  0.00    -0.262 C  
BRANCH  29  30
HETATM   30  S   UNL     1     -10.336  11.062  65.228  1.00  0.00    -0.260 SA 
BRANCH  30  31
HETATM   31  C   UNL     1      -8.850  10.191  64.791  1.00  0.00    -0.195 A  
HETATM   32  C   UNL     1      -6.577   9.618  65.440  1.00  0.00    -0.082 A  
HETATM   33  C   UNL     1      -7.743  10.358  65.636  1.00  0.00    -0.150 A  
HETATM   34  C   UNL     1      -7.597   8.533  63.544  1.00  0.00    -0.127 A  
HETATM   35  C   UNL     1      -6.507   8.699  64.396  1.00  0.00    -0.067 A  
HETATM   36  C   UNL     1      -8.766   9.276  63.740  1.00  0.00    -0.190 A  
ENDBRANCH  30  31
ENDBRANCH  29  30
ENDBRANCH  15  29
ENDBRANCH  12  15
ENDBRANCH  11  12
ENDBRANCH   8  11
BRANCH   9  37
HETATM   37  C   UNL     1      -8.798   7.656  69.865  1.00  0.00    -0.143 C  
HETATM   38  C   UNL     1      -9.504   4.970  68.390  1.00  0.00    -0.178 C  
HETATM   39  O   UNL     1      -7.680   7.147  69.829  1.00  0.00    -0.103 OA 
HETATM   40  C   UNL     1     -10.923   6.467  66.995  1.00  0.00    -0.466 C  
HETATM   41  C   UNL     1      -9.639   6.397  67.839  1.00  0.00    -0.121 C  
HETATM   42  N   UNL     1      -9.778   7.376  68.926  1.00  0.00    -0.149 N  
HETATM   43  C   UNL     1      -8.442   6.720  66.933  1.00  0.00    -0.115 C  
HETATM   44  H   UNL     1     -10.658   7.886  68.994  1.00  0.00     0.000 HD 
ENDBRANCH   9  37
TORSDOF 9
ENDMDL
MODEL       87
REMARK 921   NORMALIZED FREE ENERGY PREDICTED BY IDOCK:   -5.74 KCAL/MOL
REMARK 922        TOTAL FREE ENERGY PREDICTED BY IDOCK:  -11.59 KCAL/MOL
REMARK 923 INTER-LIGAND FREE ENERGY PREDICTED BY IDOCK:   -9.33 KCAL/MOL
REMARK 924 INTRA-LIGAND FREE ENERGY PREDICTED BY IDOCK:   -2.27 KCAL/MOL
REMARK 927      BINDING AFFINITY PREDICTED BY RF-SCORE:    0.00 PKD
ROOT
HETATM    1  C   UNL     1      -6.937   4.046  69.935  1.00  0.00    -0.042 C  
HETATM    2  C   UNL     1      -6.734   2.567  69.589  1.00  0.00    -0.033 C  
HETATM    3  C   UNL     1      -7.926   1.993  68.832  1.00  0.00    -0.059 C  
HETATM    4  C   UNL     1      -9.207   2.146  69.640  1.00  0.00    -0.178 C  
HETATM    5  C   UNL     1      -9.468   3.586  70.080  1.00  0.00    -0.252 C  
HETATM    6  C   UNL     1      -8.244   4.286  70.693  1.00  0.00    -0.076 C  
HETATM    7  C   UNL     1      -8.443   5.802  70.869  1.00  0.00    -0.126 C  
HETATM    8  N   UNL     1      -8.620   6.538  69.613  1.00  0.00    -0.131 NA 
HETATM    9  C   UNL     1      -7.709   6.139  68.524  1.00  0.00    -0.100 C  
HETATM   10  C   UNL     1      -6.758   4.940  68.702  1.00  0.00    -0.050 C  
ENDROOT
BRANCH   8  11
HETATM   11  C   UNL     1      -8.620   8.003  69.855  1.00  0.00    -0.135 C  
BRANCH  11  12
HETATM   12  C   UNL     1      -9.898   8.841  69.516  1.00  0.00    -0.180 C  
HETATM   13  H   UNL     1     -11.524   9.493  70.463  1.00  0.00     0.000 HD 
HETATM   14  O   UNL     1     -10.749   8.985  70.669  1.00  0.00    -0.212 OA 
BRANCH  12  15
HETATM   15  C   UNL     1      -9.601  10.221  68.870  1.00  0.00    -0.190 C  
BRANCH  15  16
HETATM   16  N   UNL     1     -10.323  11.332  69.503  1.00  0.00    -0.445 N  
HETATM   17  C   UNL     1     -11.573  11.746  69.105  1.00  0.00    -0.310 C  
HETATM   18  O   UNL     1     -12.207  11.247  68.183  1.00  0.00    -0.622 OA 
HETATM   19  H   UNL     1      -9.874  11.821  70.278  1.00  0.00     0.000 HD 
BRANCH  17  20
HETATM   20  C   UNL     1     -12.146  12.908  69.825  1.00  0.00    -0.312 A  
HETATM   21  C   UNL     1     -11.928  14.185  69.278  1.00  0.00    -0.382 A  
HETATM   22  H   UNL     1     -14.139  14.687  73.373  1.00  0.00     0.000 HD 
HETATM   23  C   UNL     1     -12.828  12.749  71.052  1.00  0.00    -0.262 A  
HETATM   24  C   UNL     1     -13.243  13.916  71.707  1.00  0.00    -0.376 A  
HETATM   25  C   UNL     1     -12.398  15.317  69.930  1.00  0.00    -0.323 A  
HETATM   26  C   UNL     1     -13.127  11.404  71.665  1.00  0.00    -0.498 C  
HETATM   27  O   UNL     1     -13.858  13.896  72.929  1.00  0.00    -0.662 OA 
HETATM   28  C   UNL     1     -13.051  15.180  71.150  1.00  0.00    -0.515 A  
ENDBRANCH  17  20
ENDBRANCH  15  16
BRANCH  15  29
HETATM   29  C   UNL     1      -8.079  10.510  68.703  1.00  0.00    -0.127 C  
BRANCH  29  30
HETATM   30  S   UNL     1      -7.649  11.869  67.554  1.00  0.00    -0.150 SA 
BRANCH  30  31
HETATM   31  C   UNL     1      -8.886  11.773  66.280  1.00  0.00    -0.142 A  
HETATM   32  C   UNL     1      -9.929  10.389  64.575  1.00  0.00    -0.401 A  
HETATM   33  C   UNL     1      -8.917  10.602  65.511  1.00  0.00    -0.209 A  
HETATM   34  C   UNL     1     -10.897  12.521  65.154  1.00  0.00    -0.323 A  
HETATM   35  C   UNL     1     -10.925  11.348  64.402  1.00  0.00    -0.371 A  
HETATM   36  C   UNL     1      -9.881  12.734  66.091  1.00  0.00    -0.269 A  
ENDBRANCH  30  31
ENDBRANCH  29  30
ENDBRANCH  15  29
ENDBRANCH  12  15
ENDBRANCH  11  12
ENDBRANCH   8  11
BRANCH   9  37
HETATM   37  C   UNL     1      -8.539   5.921  67.220  1.00  0.00    -0.106 C  
HETATM   38  C   UNL     1      -8.512   4.919  64.239  1.00  0.00    -0.137 C  
HETATM   39  O   UNL     1      -9.266   6.774  66.715  1.00  0.00    -0.140 OA 
HETATM   40  C   UNL     1      -8.720   2.682  65.312  1.00  0.00    -0.115 C  
HETATM   41  C   UNL     1      -9.058   4.175  65.465  1.00  0.00    -0.138 C  
HETATM   42  N   UNL     1      -8.416   4.642  66.702  1.00  0.00    -0.106 N  
HETATM   43  C   UNL     1     -10.585   4.325  65.527  1.00  0.00    -0.126 C  
HETATM   44  H   UNL     1      -7.838   3.977  67.215  1.00  0.00     0.000 HD 
ENDBRANCH   9  37
TORSDOF 9
ENDMDL
MODEL       88
REMARK 921   NORMALIZED FREE ENERGY PREDICTED BY IDOCK:   -5.72 KCAL/MOL
REMARK 922        TOTAL FREE ENERGY PREDICTED BY IDOCK:  -11.57 KCAL/MOL
REMARK 923 INTER-LIGAND FREE ENERGY PREDICTED BY IDOCK:  -10.60 KCAL/MOL
REMARK 924 INTRA-LIGAND FREE ENERGY PREDICTED BY IDOCK:   -0.97 KCAL/MOL
REMARK 927      BINDING AFFINITY PREDICTED BY RF-SCORE:    0.00 PKD
ROOT
HETATM    1  C   UNL     1      -9.042   5.263  68.537  1.00  0.00    -0.127 C  
HETATM    2  C   UNL     1      -8.298   3.926  68.615  1.00  0.00    -0.091 C  
HETATM    3  C   UNL     1      -8.014   3.353  67.231  1.00  0.00    -0.078 C  
HETATM    4  C   UNL     1      -9.305   3.162  66.446  1.00  0.00    -0.114 C  
HETATM    5  C   UNL     1     -10.146   4.436  66.361  1.00  0.00    -0.235 C  
HETATM    6  C   UNL     1     -10.321   5.164  67.703  1.00  0.00    -0.173 C  
HETATM    7  C   UNL     1     -10.923   6.571  67.551  1.00  0.00    -0.359 C  
HETATM    8  N   UNL     1     -10.083   7.511  66.801  1.00  0.00    -0.249 NA 
HETATM    9  C   UNL     1      -8.648   7.466  67.138  1.00  0.00    -0.118 C  
HETATM   10  C   UNL     1      -8.106   6.400  68.109  1.00  0.00    -0.113 C  
ENDROOT
BRANCH   8  11
HETATM   11  C   UNL     1     -10.645   8.884  66.858  1.00  0.00    -0.184 C  
BRANCH  11  12
HETATM   12  C   UNL     1     -10.782   9.604  68.241  1.00  0.00    -0.217 C  
HETATM   13  H   UNL     1     -10.039   9.415  70.079  1.00  0.00     0.000 HD 
HETATM   14  O   UNL     1      -9.956   8.978  69.240  1.00  0.00    -0.178 OA 
BRANCH  12  15
HETATM   15  C   UNL     1     -10.527  11.135  68.189  1.00  0.00    -0.189 C  
BRANCH  15  16
HETATM   16  N   UNL     1     -11.001  11.848  69.382  1.00  0.00    -0.434 N  
HETATM   17  C   UNL     1     -11.751  13.000  69.326  1.00  0.00    -0.320 C  
HETATM   18  O   UNL     1     -12.090  13.556  68.289  1.00  0.00    -0.354 OA 
HETATM   19  H   UNL     1     -10.762  11.469  70.299  1.00  0.00     0.000 HD 
BRANCH  17  20
HETATM   20  C   UNL     1     -12.115  13.616  70.624  1.00  0.00    -0.398 A  
HETATM   21  C   UNL     1     -13.058  12.942  71.422  1.00  0.00    -0.331 A  
HETATM   22  H   UNL     1     -12.011  17.014  73.482  1.00  0.00     0.000 HD 
HETATM   23  C   UNL     1     -11.588  14.865  71.018  1.00  0.00    -0.344 A  
HETATM   24  C   UNL     1     -12.071  15.413  72.216  1.00  0.00    -0.411 A  
HETATM   25  C   UNL     1     -13.476  13.491  72.627  1.00  0.00    -0.572 A  
HETATM   26  C   UNL     1     -10.545  15.612  70.225  1.00  0.00    -0.329 C  
HETATM   27  O   UNL     1     -11.684  16.643  72.671  1.00  0.00    -0.486 OA 
HETATM   28  C   UNL     1     -12.984  14.732  73.019  1.00  0.00    -0.609 A  
ENDBRANCH  17  20
ENDBRANCH  15  16
BRANCH  15  29
HETATM   29  C   UNL     1      -9.062  11.504  67.811  1.00  0.00    -0.165 C  
BRANCH  29  30
HETATM   30  S   UNL     1      -8.706  11.606  66.018  1.00  0.00     0.022 SA 
BRANCH  30  31
HETATM   31  C   UNL     1     -10.166  12.343  65.322  1.00  0.00    -0.282 A  
HETATM   32  C   UNL     1     -11.351  14.409  64.831  1.00  0.00    -0.380 A  
HETATM   33  C   UNL     1     -10.302  13.732  65.453  1.00  0.00    -0.347 A  
HETATM   34  C   UNL     1     -12.158  12.318  63.942  1.00  0.00    -0.598 A  
HETATM   35  C   UNL     1     -12.277  13.701  64.069  1.00  0.00    -0.443 A  
HETATM   36  C   UNL     1     -11.106  11.640  64.566  1.00  0.00    -0.365 A  
ENDBRANCH  30  31
ENDBRANCH  29  30
ENDBRANCH  15  29
ENDBRANCH  12  15
ENDBRANCH  11  12
ENDBRANCH   8  11
BRANCH   9  37
HETATM   37  C   UNL     1      -7.818   7.399  65.817  1.00  0.00    -0.108 C  
HETATM   38  C   UNL     1      -7.880   6.927  62.709  1.00  0.00    -0.114 C  
HETATM   39  O   UNL     1      -6.776   6.760  65.691  1.00  0.00    -0.049 OA 
HETATM   40  C   UNL     1      -8.634   9.300  62.674  1.00  0.00    -0.224 C  
HETATM   41  C   UNL     1      -7.788   8.272  63.444  1.00  0.00    -0.152 C  
HETATM   42  N   UNL     1      -8.346   8.177  64.800  1.00  0.00    -0.292 N  
HETATM   43  C   UNL     1      -6.331   8.756  63.462  1.00  0.00    -0.088 C  
HETATM   44  H   UNL     1      -9.182   8.722  65.007  1.00  0.00     0.000 HD 
ENDBRANCH   9  37
TORSDOF 9
ENDMDL
MODEL       89
REMARK 921   NORMALIZED FREE ENERGY PREDICTED BY IDOCK:   -5.71 KCAL/MOL
REMARK 922        TOTAL FREE ENERGY PREDICTED BY IDOCK:  -11.55 KCAL/MOL
REMARK 923 INTER-LIGAND FREE ENERGY PREDICTED BY IDOCK:  -10.32 KCAL/MOL
REMARK 924 INTRA-LIGAND FREE ENERGY PREDICTED BY IDOCK:   -1.23 KCAL/MOL
REMARK 927      BINDING AFFINITY PREDICTED BY RF-SCORE:    0.00 PKD
ROOT
HETATM    1  C   UNL     1      -8.559  10.166  63.873  1.00  0.00    -0.197 C  
HETATM    2  C   UNL     1      -8.959   9.559  62.525  1.00  0.00    -0.268 C  
HETATM    3  C   UNL     1      -8.443   8.133  62.369  1.00  0.00    -0.099 C  
HETATM    4  C   UNL     1      -6.927   8.085  62.510  1.00  0.00    -0.086 C  
HETATM    5  C   UNL     1      -6.427   8.721  63.806  1.00  0.00    -0.087 C  
HETATM    6  C   UNL     1      -7.050  10.092  64.114  1.00  0.00    -0.126 C  
HETATM    7  C   UNL     1      -6.752  10.582  65.542  1.00  0.00    -0.092 C  
HETATM    8  N   UNL     1      -7.322   9.742  66.601  1.00  0.00    -0.093 NA 
HETATM    9  C   UNL     1      -8.705   9.291  66.359  1.00  0.00    -0.132 C  
HETATM   10  C   UNL     1      -9.402   9.591  65.018  1.00  0.00    -0.294 C  
ENDROOT
BRANCH   8  11
HETATM   11  C   UNL     1      -7.149  10.378  67.931  1.00  0.00    -0.083 C  
BRANCH  11  12
HETATM   12  C   UNL     1      -7.515  11.888  68.117  1.00  0.00    -0.100 C  
HETATM   13  H   UNL     1      -7.114  13.621  67.220  1.00  0.00     0.000 HD 
HETATM   14  O   UNL     1      -6.892  12.705  67.107  1.00  0.00    -0.132 OA 
BRANCH  12  15
HETATM   15  C   UNL     1      -9.040  12.169  68.195  1.00  0.00    -0.196 C  
BRANCH  15  16
HETATM   16  N   UNL     1      -9.732  11.365  69.210  1.00  0.00    -0.404 N  
HETATM   17  C   UNL     1     -11.011  10.884  69.050  1.00  0.00    -0.235 C  
HETATM   18  O   UNL     1     -11.707  11.082  68.061  1.00  0.00    -0.532 OA 
HETATM   19  H   UNL     1      -9.240  11.153  70.078  1.00  0.00     0.000 HD 
BRANCH  17  20
HETATM   20  C   UNL     1     -11.578  10.122  70.187  1.00  0.00    -0.350 A  
HETATM   21  C   UNL     1     -12.942  10.305  70.477  1.00  0.00    -0.251 A  
HETATM   22  H   UNL     1     -11.091   7.515  73.750  1.00  0.00     0.000 HD 
HETATM   23  C   UNL     1     -10.767   9.293  70.993  1.00  0.00    -0.387 A  
HETATM   24  C   UNL     1     -11.374   8.694  72.106  1.00  0.00    -0.364 A  
HETATM   25  C   UNL     1     -13.522   9.656  71.559  1.00  0.00    -0.430 A  
HETATM   26  C   UNL     1      -9.311   9.027  70.705  1.00  0.00    -0.305 C  
HETATM   27  O   UNL     1     -10.680   7.921  72.996  1.00  0.00    -0.365 OA 
HETATM   28  C   UNL     1     -12.732   8.854  72.377  1.00  0.00    -0.436 A  
ENDBRANCH  17  20
ENDBRANCH  15  16
BRANCH  15  29
HETATM   29  C   UNL     1      -9.383  13.686  68.292  1.00  0.00    -0.204 C  
BRANCH  29  30
HETATM   30  S   UNL     1      -9.321  14.617  66.717  1.00  0.00    -0.269 SA 
BRANCH  30  31
HETATM   31  C   UNL     1     -10.534  13.822  65.689  1.00  0.00    -0.305 A  
HETATM   32  C   UNL     1     -10.927  12.380  63.771  1.00  0.00    -0.501 A  
HETATM   33  C   UNL     1     -10.061  13.135  64.563  1.00  0.00    -0.244 A  
HETATM   34  C   UNL     1     -12.760  12.991  65.213  1.00  0.00    -0.432 A  
HETATM   35  C   UNL     1     -12.277  12.303  64.101  1.00  0.00    -0.539 A  
HETATM   36  C   UNL     1     -11.891  13.749  66.005  1.00  0.00    -0.415 A  
ENDBRANCH  30  31
ENDBRANCH  29  30
ENDBRANCH  15  29
ENDBRANCH  12  15
ENDBRANCH  11  12
ENDBRANCH   8  11
BRANCH   9  37
HETATM   37  C   UNL     1      -8.795   7.755  66.628  1.00  0.00    -0.148 C  
HETATM   38  C   UNL     1      -8.746   5.471  68.789  1.00  0.00    -0.102 C  
HETATM   39  O   UNL     1      -8.152   6.909  66.011  1.00  0.00    -0.107 OA 
HETATM   40  C   UNL     1     -11.120   6.148  69.112  1.00  0.00    -0.448 C  
HETATM   41  C   UNL     1      -9.977   6.061  68.087  1.00  0.00    -0.147 C  
HETATM   42  N   UNL     1      -9.715   7.426  67.609  1.00  0.00    -0.140 N  
HETATM   43  C   UNL     1     -10.417   5.135  66.944  1.00  0.00    -0.280 C  
HETATM   44  H   UNL     1     -10.249   8.185  68.031  1.00  0.00     0.000 HD 
ENDBRANCH   9  37
TORSDOF 9
ENDMDL
MODEL       90
REMARK 921   NORMALIZED FREE ENERGY PREDICTED BY IDOCK:   -5.70 KCAL/MOL
REMARK 922        TOTAL FREE ENERGY PREDICTED BY IDOCK:  -11.54 KCAL/MOL
REMARK 923 INTER-LIGAND FREE ENERGY PREDICTED BY IDOCK:   -8.59 KCAL/MOL
REMARK 924 INTRA-LIGAND FREE ENERGY PREDICTED BY IDOCK:   -2.95 KCAL/MOL
REMARK 927      BINDING AFFINITY PREDICTED BY RF-SCORE:    0.00 PKD
ROOT
HETATM    1  C   UNL     1     -10.900  12.132  64.970  1.00  0.00    -0.344 C  
HETATM    2  C   UNL     1     -11.632  12.678  63.741  1.00  0.00    -0.550 C  
HETATM    3  C   UNL     1     -12.200  14.070  63.991  1.00  0.00    -0.395 C  
HETATM    4  C   UNL     1     -13.153  14.063  65.178  1.00  0.00    -0.107 C  
HETATM    5  C   UNL     1     -12.525  13.482  66.444  1.00  0.00    -0.349 C  
HETATM    6  C   UNL     1     -11.778  12.157  66.223  1.00  0.00    -0.389 C  
HETATM    7  C   UNL     1     -10.926  11.736  67.433  1.00  0.00    -0.262 C  
HETATM    8  N   UNL     1      -9.829  12.657  67.750  1.00  0.00    -0.206 NA 
HETATM    9  C   UNL     1      -9.075  13.151  66.583  1.00  0.00    -0.173 C  
HETATM   10  C   UNL     1      -9.533  12.804  65.153  1.00  0.00     0.267 C  
ENDROOT
BRANCH   8  11
HETATM   11  C   UNL     1      -8.951  12.090  68.804  1.00  0.00     0.085 C  
BRANCH  11  12
HETATM   12  C   UNL     1      -7.542  11.531  68.415  1.00  0.00    -0.125 C  
HETATM   13  H   UNL     1      -5.659  11.721  69.039  1.00  0.00     0.000 HD 
HETATM   14  O   UNL     1      -6.514  12.060  69.275  1.00  0.00    -0.095 OA 
BRANCH  12  15
HETATM   15  C   UNL     1      -7.467   9.982  68.351  1.00  0.00    -0.082 C  
BRANCH  15  16
HETATM   16  N   UNL     1      -8.604   9.313  68.996  1.00  0.00    -0.131 N  
HETATM   17  C   UNL     1      -8.656   9.042  70.344  1.00  0.00    -0.193 C  
HETATM   18  O   UNL     1      -7.766   9.314  71.140  1.00  0.00    -0.282 OA 
HETATM   19  H   UNL     1      -9.396   9.036  68.415  1.00  0.00     0.000 HD 
BRANCH  17  20
HETATM   20  C   UNL     1      -9.860   8.326  70.828  1.00  0.00    -0.205 A  
HETATM   21  C   UNL     1     -11.033   9.080  71.018  1.00  0.00    -0.352 A  
HETATM   22  H   UNL     1     -11.830   4.704  72.480  1.00  0.00     0.000 HD 
HETATM   23  C   UNL     1      -9.818   6.953  71.152  1.00  0.00    -0.184 A  
HETATM   24  C   UNL     1     -10.979   6.389  71.699  1.00  0.00    -0.257 A  
HETATM   25  C   UNL     1     -12.181   8.477  71.515  1.00  0.00    -0.355 A  
HETATM   26  C   UNL     1      -8.603   6.086  70.931  1.00  0.00    -0.131 C  
HETATM   27  O   UNL     1     -11.043   5.086  72.110  1.00  0.00    -0.129 OA 
HETATM   28  C   UNL     1     -12.149   7.130  71.861  1.00  0.00    -0.357 A  
ENDBRANCH  17  20
ENDBRANCH  15  16
BRANCH  15  29
HETATM   29  C   UNL     1      -7.182   9.437  66.919  1.00  0.00    -0.087 C  
BRANCH  29  30
HETATM   30  S   UNL     1      -8.653   9.183  65.859  1.00  0.00    -0.160 SA 
BRANCH  30  31
HETATM   31  C   UNL     1      -9.386   7.686  66.477  1.00  0.00    -0.189 A  
HETATM   32  C   UNL     1      -9.027   5.357  67.077  1.00  0.00    -0.112 A  
HETATM   33  C   UNL     1      -8.576   6.542  66.495  1.00  0.00    -0.123 A  
HETATM   34  C   UNL     1     -11.113   6.435  67.627  1.00  0.00    -0.388 A  
HETATM   35  C   UNL     1     -10.296   5.306  67.650  1.00  0.00    -0.208 A  
HETATM   36  C   UNL     1     -10.660   7.622  67.042  1.00  0.00    -0.406 A  
ENDBRANCH  30  31
ENDBRANCH  29  30
ENDBRANCH  15  29
ENDBRANCH  12  15
ENDBRANCH  11  12
ENDBRANCH   8  11
BRANCH   9  37
HETATM   37  C   UNL     1      -8.927  14.701  66.691  1.00  0.00    -0.238 C  
HETATM   38  C   UNL     1      -7.908  17.116  68.429  1.00  0.00    -0.244 C  
HETATM   39  O   UNL     1      -9.839  15.497  66.482  1.00  0.00    -0.242 OA 
HETATM   40  C   UNL     1      -5.706  16.496  67.447  1.00  0.00    -0.188 C  
HETATM   41  C   UNL     1      -7.224  16.502  67.200  1.00  0.00    -0.188 C  
HETATM   42  N   UNL     1      -7.639  15.105  67.002  1.00  0.00    -0.263 N  
HETATM   43  C   UNL     1      -7.514  17.360  65.960  1.00  0.00    -0.255 C  
HETATM   44  H   UNL     1      -6.927  14.382  67.102  1.00  0.00     0.000 HD 
ENDBRANCH   9  37
TORSDOF 9
ENDMDL
MODEL       91
REMARK 921   NORMALIZED FREE ENERGY PREDICTED BY IDOCK:   -5.69 KCAL/MOL
REMARK 922        TOTAL FREE ENERGY PREDICTED BY IDOCK:  -11.52 KCAL/MOL
REMARK 923 INTER-LIGAND FREE ENERGY PREDICTED BY IDOCK:  -10.20 KCAL/MOL
REMARK 924 INTRA-LIGAND FREE ENERGY PREDICTED BY IDOCK:   -1.33 KCAL/MOL
REMARK 927      BINDING AFFINITY PREDICTED BY RF-SCORE:    0.00 PKD
ROOT
HETATM    1  C   UNL     1     -10.575  11.731  65.826  1.00  0.00    -0.312 C  
HETATM    2  C   UNL     1     -10.307  11.391  64.356  1.00  0.00    -0.375 C  
HETATM    3  C   UNL     1     -10.635  12.559  63.435  1.00  0.00    -0.294 C  
HETATM    4  C   UNL     1     -12.089  12.984  63.592  1.00  0.00    -0.604 C  
HETATM    5  C   UNL     1     -12.467  13.293  65.040  1.00  0.00    -0.498 C  
HETATM    6  C   UNL     1     -12.003  12.232  66.050  1.00  0.00    -0.342 C  
HETATM    7  C   UNL     1     -12.143  12.690  67.513  1.00  0.00    -0.104 C  
HETATM    8  N   UNL     1     -11.304  13.839  67.869  1.00  0.00    -0.283 NA 
HETATM    9  C   UNL     1      -9.925  13.787  67.348  1.00  0.00    -0.237 C  
HETATM   10  C   UNL     1      -9.493  12.659  66.392  1.00  0.00    -0.231 C  
ENDROOT
BRANCH   8  11
HETATM   11  C   UNL     1     -11.357  14.100  69.330  1.00  0.00    -0.272 C  
BRANCH  11  12
HETATM   12  C   UNL     1     -11.930  13.003  70.289  1.00  0.00    -0.285 C  
HETATM   13  H   UNL     1     -13.615  12.662  71.295  1.00  0.00     0.000 HD 
HETATM   14  O   UNL     1     -13.267  13.327  70.713  1.00  0.00    -0.008 OA 
BRANCH  12  15
HETATM   15  C   UNL     1     -11.863  11.561  69.718  1.00  0.00    -0.357 C  
BRANCH  15  16
HETATM   16  N   UNL     1     -10.540  10.938  69.855  1.00  0.00    -0.451 N  
HETATM   17  C   UNL     1     -10.134   9.856  69.109  1.00  0.00    -0.200 C  
HETATM   18  O   UNL     1     -10.826   9.294  68.268  1.00  0.00    -0.179 OA 
HETATM   19  H   UNL     1      -9.891  11.326  70.538  1.00  0.00     0.000 HD 
BRANCH  17  20
HETATM   20  C   UNL     1      -8.782   9.323  69.398  1.00  0.00    -0.148 A  
HETATM   21  C   UNL     1      -8.463   9.051  70.741  1.00  0.00    -0.238 A  
HETATM   22  H   UNL     1      -4.641   8.327  68.135  1.00  0.00     0.000 HD 
HETATM   23  C   UNL     1      -7.823   9.157  68.375  1.00  0.00    -0.102 A  
HETATM   24  C   UNL     1      -6.540   8.744  68.762  1.00  0.00    -0.054 A  
HETATM   25  C   UNL     1      -7.196   8.596  71.083  1.00  0.00    -0.085 A  
HETATM   26  C   UNL     1      -8.120   9.391  66.915  1.00  0.00    -0.109 C  
HETATM   27  O   UNL     1      -5.511   8.606  67.872  1.00  0.00    -0.034 OA 
HETATM   28  C   UNL     1      -6.233   8.449  70.090  1.00  0.00    -0.031 A  
ENDBRANCH  17  20
ENDBRANCH  15  16
BRANCH  15  29
HETATM   29  C   UNL     1     -13.016  10.643  70.224  1.00  0.00    -0.068 C  
BRANCH  29  30
HETATM   30  S   UNL     1     -12.913  10.133  71.980  1.00  0.00    -0.351 SA 
BRANCH  30  31
HETATM   31  C   UNL     1     -12.171   8.519  71.924  1.00  0.00    -0.352 A  
HETATM   32  C   UNL     1     -11.874   6.473  70.646  1.00  0.00    -0.398 A  
HETATM   33  C   UNL     1     -12.503   7.703  70.835  1.00  0.00    -0.121 A  
HETATM   34  C   UNL     1     -10.571   6.846  72.640  1.00  0.00    -0.262 A  
HETATM   35  C   UNL     1     -10.901   6.047  71.547  1.00  0.00    -0.322 A  
HETATM   36  C   UNL     1     -11.203   8.079  72.829  1.00  0.00    -0.448 A  
ENDBRANCH  30  31
ENDBRANCH  29  30
ENDBRANCH  15  29
ENDBRANCH  12  15
ENDBRANCH  11  12
ENDBRANCH   8  11
BRANCH   9  37
HETATM   37  C   UNL     1      -9.581  15.157  66.682  1.00  0.00    -0.253 C  
HETATM   38  C   UNL     1     -10.131  18.253  66.632  1.00  0.00    -0.386 C  
HETATM   39  O   UNL     1      -9.555  15.345  65.468  1.00  0.00    -0.313 OA 
HETATM   40  C   UNL     1      -8.553  18.253  68.558  1.00  0.00    -0.323 C  
HETATM   41  C   UNL     1      -8.925  17.532  67.251  1.00  0.00    -0.235 C  
HETATM   42  N   UNL     1      -9.255  16.143  67.599  1.00  0.00    -0.204 N  
HETATM   43  C   UNL     1      -7.726  17.608  66.295  1.00  0.00    -0.324 C  
HETATM   44  H   UNL     1      -9.245  15.887  68.585  1.00  0.00     0.000 HD 
ENDBRANCH   9  37
TORSDOF 9
ENDMDL
MODEL       92
REMARK 921   NORMALIZED FREE ENERGY PREDICTED BY IDOCK:   -5.69 KCAL/MOL
REMARK 922        TOTAL FREE ENERGY PREDICTED BY IDOCK:  -11.52 KCAL/MOL
REMARK 923 INTER-LIGAND FREE ENERGY PREDICTED BY IDOCK:   -8.86 KCAL/MOL
REMARK 924 INTRA-LIGAND FREE ENERGY PREDICTED BY IDOCK:   -2.66 KCAL/MOL
REMARK 927      BINDING AFFINITY PREDICTED BY RF-SCORE:    0.00 PKD
ROOT
HETATM    1  C   UNL     1     -12.088  13.891  68.825  1.00  0.00    -0.344 C  
HETATM    2  C   UNL     1     -12.753  14.927  69.737  1.00  0.00    -0.062 C  
HETATM    3  C   UNL     1     -11.875  16.156  69.933  1.00  0.00    -0.128 C  
HETATM    4  C   UNL     1     -10.522  15.771  70.517  1.00  0.00    -0.071 C  
HETATM    5  C   UNL     1      -9.803  14.697  69.701  1.00  0.00     0.165 C  
HETATM    6  C   UNL     1     -10.691  13.504  69.315  1.00  0.00    -0.039 C  
HETATM    7  C   UNL     1     -10.039  12.581  68.271  1.00  0.00    -0.228 C  
HETATM    8  N   UNL     1      -9.796  13.215  66.971  1.00  0.00    -0.238 NA 
HETATM    9  C   UNL     1     -10.900  14.056  66.474  1.00  0.00    -0.300 C  
HETATM   10  C   UNL     1     -12.135  14.326  67.355  1.00  0.00    -0.371 C  
ENDROOT
BRANCH   8  11
HETATM   11  C   UNL     1      -9.340  12.216  65.971  1.00  0.00    -0.170 C  
BRANCH  11  12
HETATM   12  C   UNL     1     -10.113  10.863  65.826  1.00  0.00    -0.252 C  
HETATM   13  H   UNL     1     -10.917   9.777  64.362  1.00  0.00     0.000 HD 
HETATM   14  O   UNL     1     -10.448  10.598  64.450  1.00  0.00    -0.350 OA 
BRANCH  12  15
HETATM   15  C   UNL     1      -9.393   9.646  66.465  1.00  0.00    -0.165 C  
BRANCH  15  16
HETATM   16  N   UNL     1     -10.163   9.009  67.542  1.00  0.00    -0.225 N  
HETATM   17  C   UNL     1      -9.694   8.872  68.828  1.00  0.00    -0.164 C  
HETATM   18  O   UNL     1      -8.592   9.251  69.208  1.00  0.00    -0.130 OA 
HETATM   19  H   UNL     1     -11.092   8.649  67.324  1.00  0.00     0.000 HD 
BRANCH  17  20
HETATM   20  C   UNL     1     -10.582   8.170  69.784  1.00  0.00    -0.231 A  
HETATM   21  C   UNL     1     -10.602   6.764  69.742  1.00  0.00    -0.263 A  
HETATM   22  H   UNL     1     -13.808   8.199  72.837  1.00  0.00     0.000 HD 
HETATM   23  C   UNL     1     -11.428   8.884  70.661  1.00  0.00    -0.280 A  
HETATM   24  C   UNL     1     -12.304   8.131  71.456  1.00  0.00    -0.306 A  
HETATM   25  C   UNL     1     -11.447   6.049  70.580  1.00  0.00    -0.227 A  
HETATM   26  C   UNL     1     -11.419  10.387  70.780  1.00  0.00    -0.422 C  
HETATM   27  O   UNL     1     -13.214   8.709  72.299  1.00  0.00    -0.365 OA 
HETATM   28  C   UNL     1     -12.304   6.738  71.433  1.00  0.00    -0.403 A  
ENDBRANCH  17  20
ENDBRANCH  15  16
BRANCH  15  29
HETATM   29  C   UNL     1      -8.863   8.622  65.418  1.00  0.00    -0.155 C  
BRANCH  29  30
HETATM   30  S   UNL     1      -7.477   7.562  65.972  1.00  0.00    -0.085 SA 
BRANCH  30  31
HETATM   31  C   UNL     1      -8.269   6.176  66.752  1.00  0.00    -0.109 A  
HETATM   32  C   UNL     1     -10.045   4.520  66.613  1.00  0.00    -0.238 A  
HETATM   33  C   UNL     1      -9.429   5.680  66.141  1.00  0.00    -0.157 A  
HETATM   34  C   UNL     1      -8.357   4.334  68.324  1.00  0.00    -0.098 A  
HETATM   35  C   UNL     1      -9.503   3.843  67.702  1.00  0.00    -0.233 A  
HETATM   36  C   UNL     1      -7.741   5.497  67.851  1.00  0.00    -0.092 A  
ENDBRANCH  30  31
ENDBRANCH  29  30
ENDBRANCH  15  29
ENDBRANCH  12  15
ENDBRANCH  11  12
ENDBRANCH   8  11
BRANCH   9  37
HETATM   37  C   UNL     1     -10.323  15.428  66.001  1.00  0.00    -0.324 C  
HETATM   38  C   UNL     1     -10.409  18.555  66.326  1.00  0.00    -0.459 C  
HETATM   39  O   UNL     1     -10.202  15.755  64.822  1.00  0.00    -0.403 OA 
HETATM   40  C   UNL     1      -8.958  18.082  68.293  1.00  0.00    -0.288 C  
HETATM   41  C   UNL     1      -9.358  17.590  66.892  1.00  0.00    -0.269 C  
HETATM   42  N   UNL     1      -9.907  16.235  67.047  1.00  0.00    -0.239 N  
HETATM   43  C   UNL     1      -8.110  17.597  65.998  1.00  0.00    -0.148 C  
HETATM   44  H   UNL     1      -9.989  15.863  67.993  1.00  0.00     0.000 HD 
ENDBRANCH   9  37
TORSDOF 9
ENDMDL
MODEL       93
REMARK 921   NORMALIZED FREE ENERGY PREDICTED BY IDOCK:   -5.65 KCAL/MOL
REMARK 922        TOTAL FREE ENERGY PREDICTED BY IDOCK:  -11.45 KCAL/MOL
REMARK 923 INTER-LIGAND FREE ENERGY PREDICTED BY IDOCK:   -8.62 KCAL/MOL
REMARK 924 INTRA-LIGAND FREE ENERGY PREDICTED BY IDOCK:   -2.84 KCAL/MOL
REMARK 927      BINDING AFFINITY PREDICTED BY RF-SCORE:    0.00 PKD
ROOT
HETATM    1  C   UNL     1     -10.413  16.501  68.425  1.00  0.00    -0.307 C  
HETATM    2  C   UNL     1      -9.562  17.593  67.768  1.00  0.00    -0.267 C  
HETATM    3  C   UNL     1      -8.683  17.036  66.656  1.00  0.00    -0.282 C  
HETATM    4  C   UNL     1      -7.768  15.939  67.184  1.00  0.00    -0.247 C  
HETATM    5  C   UNL     1      -8.525  14.826  67.907  1.00  0.00    -0.156 C  
HETATM    6  C   UNL     1      -9.563  15.329  68.922  1.00  0.00    -0.220 C  
HETATM    7  C   UNL     1     -10.499  14.218  69.428  1.00  0.00    -0.030 C  
HETATM    8  N   UNL     1     -11.349  13.625  68.390  1.00  0.00    -0.275 NA 
HETATM    9  C   UNL     1     -11.956  14.591  67.456  1.00  0.00    -0.325 C  
HETATM   10  C   UNL     1     -11.582  16.084  67.524  1.00  0.00     0.162 C  
ENDROOT
BRANCH   8  11
HETATM   11  C   UNL     1     -12.345  12.699  68.988  1.00  0.00     0.211 C  
BRANCH  11  12
HETATM   12  C   UNL     1     -12.146  12.196  70.456  1.00  0.00    -0.293 C  
HETATM   13  H   UNL     1     -13.150  12.241  72.177  1.00  0.00     0.000 HD 
HETATM   14  O   UNL     1     -13.271  12.546  71.285  1.00  0.00    -0.211 OA 
BRANCH  12  15
HETATM   15  C   UNL     1     -11.822  10.683  70.572  1.00  0.00    -0.357 C  
BRANCH  15  16
HETATM   16  N   UNL     1     -10.414  10.363  70.303  1.00  0.00    -0.442 N  
HETATM   17  C   UNL     1      -9.986   9.749  69.148  1.00  0.00    -0.189 C  
HETATM   18  O   UNL     1     -10.724   9.395  68.237  1.00  0.00    -0.220 OA 
HETATM   19  H   UNL     1      -9.718  10.609  71.007  1.00  0.00     0.000 HD 
BRANCH  17  20
HETATM   20  C   UNL     1      -8.535   9.463  69.051  1.00  0.00    -0.129 A  
HETATM   21  C   UNL     1      -8.063   8.280  69.648  1.00  0.00    -0.116 A  
HETATM   22  H   UNL     1      -4.391  10.683  68.018  1.00  0.00     0.000 HD 
HETATM   23  C   UNL     1      -7.646  10.374  68.440  1.00  0.00    -0.093 A  
HETATM   24  C   UNL     1      -6.279  10.062  68.488  1.00  0.00    -0.045 A  
HETATM   25  C   UNL     1      -6.708   7.978  69.632  1.00  0.00    -0.038 A  
HETATM   26  C   UNL     1      -8.098  11.635  67.747  1.00  0.00    -0.139 C  
HETATM   27  O   UNL     1      -5.316  10.894  67.986  1.00  0.00    -0.040 OA 
HETATM   28  C   UNL     1      -5.816   8.876  69.055  1.00  0.00    -0.040 A  
ENDBRANCH  17  20
ENDBRANCH  15  16
BRANCH  15  29
HETATM   29  C   UNL     1     -12.342  10.039  71.892  1.00  0.00    -0.261 C  
BRANCH  29  30
HETATM   30  S   UNL     1     -13.151   8.406  71.715  1.00  0.00    -0.357 SA 
BRANCH  30  31
HETATM   31  C   UNL     1     -11.807   7.282  71.416  1.00  0.00    -0.305 A  
HETATM   32  C   UNL     1     -10.059   5.912  72.404  1.00  0.00    -0.203 A  
HETATM   33  C   UNL     1     -11.051   6.885  72.527  1.00  0.00    -0.302 A  
HETATM   34  C   UNL     1     -10.554   5.719  70.053  1.00  0.00    -0.380 A  
HETATM   35  C   UNL     1      -9.815   5.323  71.166  1.00  0.00    -0.250 A  
HETATM   36  C   UNL     1     -11.547   6.696  70.176  1.00  0.00    -0.446 A  
ENDBRANCH  30  31
ENDBRANCH  29  30
ENDBRANCH  15  29
ENDBRANCH  12  15
ENDBRANCH  11  12
ENDBRANCH   8  11
BRANCH   9  37
HETATM   37  C   UNL     1     -11.734  14.093  65.993  1.00  0.00    -0.382 C  
HETATM   38  C   UNL     1      -9.760  12.715  63.970  1.00  0.00     0.137 C  
HETATM   39  O   UNL     1     -11.969  14.768  64.993  1.00  0.00    -0.366 OA 
HETATM   40  C   UNL     1     -10.585  10.633  65.059  1.00  0.00    -0.187 C  
HETATM   41  C   UNL     1     -10.962  12.075  64.678  1.00  0.00    -0.317 C  
HETATM   42  N   UNL     1     -11.286  12.784  65.924  1.00  0.00    -0.310 N  
HETATM   43  C   UNL     1     -12.164  12.029  63.723  1.00  0.00    -0.600 C  
HETATM   44  H   UNL     1     -11.172  12.276  66.801  1.00  0.00     0.000 HD 
ENDBRANCH   9  37
TORSDOF 9
ENDMDL
MODEL       94
REMARK 921   NORMALIZED FREE ENERGY PREDICTED BY IDOCK:   -5.64 KCAL/MOL
REMARK 922        TOTAL FREE ENERGY PREDICTED BY IDOCK:  -11.45 KCAL/MOL
REMARK 923 INTER-LIGAND FREE ENERGY PREDICTED BY IDOCK:   -9.77 KCAL/MOL
REMARK 924 INTRA-LIGAND FREE ENERGY PREDICTED BY IDOCK:   -1.67 KCAL/MOL
REMARK 927      BINDING AFFINITY PREDICTED BY RF-SCORE:    0.00 PKD
ROOT
HETATM    1  C   UNL     1      -9.507   5.633  68.707  1.00  0.00    -0.155 C  
HETATM    2  C   UNL     1      -8.999   4.224  69.028  1.00  0.00    -0.157 C  
HETATM    3  C   UNL     1      -8.515   3.497  67.779  1.00  0.00    -0.107 C  
HETATM    4  C   UNL     1      -9.624   3.404  66.739  1.00  0.00    -0.096 C  
HETATM    5  C   UNL     1     -10.233   4.762  66.393  1.00  0.00    -0.308 C  
HETATM    6  C   UNL     1     -10.581   5.625  67.617  1.00  0.00    -0.279 C  
HETATM    7  C   UNL     1     -10.925   7.079  67.251  1.00  0.00    -0.302 C  
HETATM    8  N   UNL     1      -9.818   7.831  66.651  1.00  0.00    -0.231 NA 
HETATM    9  C   UNL     1      -8.509   7.632  67.301  1.00  0.00    -0.121 C  
HETATM   10  C   UNL     1      -8.346   6.597  68.431  1.00  0.00    -0.122 C  
ENDROOT
BRANCH   8  11
HETATM   11  C   UNL     1     -10.173   9.265  66.500  1.00  0.00    -0.246 C  
BRANCH  11  12
HETATM   12  C   UNL     1      -9.082  10.359  66.746  1.00  0.00    -0.143 C  
HETATM   13  H   UNL     1      -8.062  11.690  65.669  1.00  0.00     0.000 HD 
HETATM   14  O   UNL     1      -8.725  11.026  65.520  1.00  0.00    -0.187 OA 
BRANCH  12  15
HETATM   15  C   UNL     1      -9.449  11.388  67.849  1.00  0.00    -0.174 C  
BRANCH  15  16
HETATM   16  N   UNL     1      -9.791  12.715  67.322  1.00  0.00    -0.203 N  
HETATM   17  C   UNL     1      -8.877  13.735  67.193  1.00  0.00    -0.231 C  
HETATM   18  O   UNL     1      -7.697  13.653  67.510  1.00  0.00    -0.159 OA 
HETATM   19  H   UNL     1     -10.755  12.889  67.039  1.00  0.00     0.000 HD 
BRANCH  17  20
HETATM   20  C   UNL     1      -9.395  15.025  66.680  1.00  0.00    -0.290 A  
HETATM   21  C   UNL     1      -9.120  16.182  67.431  1.00  0.00    -0.203 A  
HETATM   22  H   UNL     1     -11.913  17.362  63.864  1.00  0.00     0.000 HD 
HETATM   23  C   UNL     1     -10.193  15.087  65.516  1.00  0.00    -0.406 A  
HETATM   24  C   UNL     1     -10.720  16.338  65.168  1.00  0.00    -0.331 A  
HETATM   25  C   UNL     1      -9.618  17.415  67.029  1.00  0.00    -0.273 A  
HETATM   26  C   UNL     1     -10.485  13.888  64.648  1.00  0.00    -0.419 C  
HETATM   27  O   UNL     1     -11.555  16.514  64.099  1.00  0.00    -1.052 OA 
HETATM   28  C   UNL     1     -10.424  17.489  65.898  1.00  0.00    -0.251 A  
ENDBRANCH  17  20
ENDBRANCH  15  16
BRANCH  15  29
HETATM   29  C   UNL     1     -10.504  10.853  68.864  1.00  0.00    -0.203 C  
BRANCH  29  30
HETATM   30  S   UNL     1      -9.875   9.678  70.119  1.00  0.00    -0.265 SA 
BRANCH  30  31
HETATM   31  C   UNL     1     -11.342   8.968  70.828  1.00  0.00    -0.277 A  
HETATM   32  C   UNL     1     -13.597   9.378  71.641  1.00  0.00    -0.437 A  
HETATM   33  C   UNL     1     -12.365   9.855  71.193  1.00  0.00    -0.466 A  
HETATM   34  C   UNL     1     -12.805   7.116  71.377  1.00  0.00    -0.431 A  
HETATM   35  C   UNL     1     -13.819   8.006  71.727  1.00  0.00    -0.452 A  
HETATM   36  C   UNL     1     -11.569   7.595  70.929  1.00  0.00    -0.299 A  
ENDBRANCH  30  31
ENDBRANCH  29  30
ENDBRANCH  15  29
ENDBRANCH  12  15
ENDBRANCH  11  12
ENDBRANCH   8  11
BRANCH   9  37
HETATM   37  C   UNL     1      -7.436   7.339  66.205  1.00  0.00    -0.083 C  
HETATM   38  C   UNL     1      -6.187   5.194  64.275  1.00  0.00    -0.022 C  
HETATM   39  O   UNL     1      -6.251   7.650  66.301  1.00  0.00    -0.043 OA 
HETATM   40  C   UNL     1      -8.160   5.761  62.866  1.00  0.00    -0.110 C  
HETATM   41  C   UNL     1      -7.173   6.312  63.909  1.00  0.00    -0.062 C  
HETATM   42  N   UNL     1      -7.960   6.731  65.076  1.00  0.00    -0.121 N  
HETATM   43  C   UNL     1      -6.413   7.492  63.285  1.00  0.00    -0.054 C  
HETATM   44  H   UNL     1      -8.966   6.561  65.055  1.00  0.00     0.000 HD 
ENDBRANCH   9  37
TORSDOF 9
ENDMDL
MODEL       95
REMARK 921   NORMALIZED FREE ENERGY PREDICTED BY IDOCK:   -5.64 KCAL/MOL
REMARK 922        TOTAL FREE ENERGY PREDICTED BY IDOCK:  -11.44 KCAL/MOL
REMARK 923 INTER-LIGAND FREE ENERGY PREDICTED BY IDOCK:   -9.04 KCAL/MOL
REMARK 924 INTRA-LIGAND FREE ENERGY PREDICTED BY IDOCK:   -2.40 KCAL/MOL
REMARK 927      BINDING AFFINITY PREDICTED BY RF-SCORE:    0.00 PKD
ROOT
HETATM    1  C   UNL     1      -8.273   7.213  68.416  1.00  0.00    -0.125 C  
HETATM    2  C   UNL     1      -8.905   5.957  67.808  1.00  0.00    -0.109 C  
HETATM    3  C   UNL     1      -9.846   6.296  66.658  1.00  0.00    -0.201 C  
HETATM    4  C   UNL     1     -10.950   7.239  67.118  1.00  0.00    -0.285 C  
HETATM    5  C   UNL     1     -10.414   8.503  67.790  1.00  0.00    -0.287 C  
HETATM    6  C   UNL     1      -9.324   8.240  68.842  1.00  0.00    -0.147 C  
HETATM    7  C   UNL     1      -8.607   9.522  69.299  1.00  0.00    -0.149 C  
HETATM    8  N   UNL     1      -7.853  10.204  68.242  1.00  0.00    -0.091 NA 
HETATM    9  C   UNL     1      -7.068   9.314  67.366  1.00  0.00    -0.079 C  
HETATM   10  C   UNL     1      -7.176   7.784  67.508  1.00  0.00    -0.091 C  
ENDROOT
BRANCH   8  11
HETATM   11  C   UNL     1      -7.047  11.318  68.801  1.00  0.00    -0.096 C  
BRANCH  11  12
HETATM   12  C   UNL     1      -7.204  12.757  68.207  1.00  0.00    -0.114 C  
HETATM   13  H   UNL     1      -6.473  13.807  66.679  1.00  0.00     0.000 HD 
HETATM   14  O   UNL     1      -6.378  12.933  67.040  1.00  0.00    -0.212 OA 
BRANCH  12  15
HETATM   15  C   UNL     1      -8.672  13.169  67.915  1.00  0.00    -0.192 C  
BRANCH  15  16
HETATM   16  N   UNL     1      -9.614  12.758  68.963  1.00  0.00    -0.319 N  
HETATM   17  C   UNL     1     -10.974  12.680  68.768  1.00  0.00    -0.249 C  
HETATM   18  O   UNL     1     -11.540  12.952  67.716  1.00  0.00    -0.300 OA 
HETATM   19  H   UNL     1      -9.242  12.520  69.882  1.00  0.00     0.000 HD 
BRANCH  17  20
HETATM   20  C   UNL     1     -11.789  12.285  69.942  1.00  0.00    -0.383 A  
HETATM   21  C   UNL     1     -12.029  10.913  70.136  1.00  0.00    -0.435 A  
HETATM   22  H   UNL     1     -14.424  13.309  73.367  1.00  0.00     0.000 HD 
HETATM   23  C   UNL     1     -12.359  13.252  70.798  1.00  0.00    -0.425 A  
HETATM   24  C   UNL     1     -13.197  12.785  71.821  1.00  0.00    -0.374 A  
HETATM   25  C   UNL     1     -12.825  10.483  71.190  1.00  0.00    -0.513 A  
HETATM   26  C   UNL     1     -12.102  14.732  70.665  1.00  0.00    -0.374 C  
HETATM   27  O   UNL     1     -13.856  13.626  72.675  1.00  0.00    -0.715 OA 
HETATM   28  C   UNL     1     -13.413  11.423  72.029  1.00  0.00    -0.289 A  
ENDBRANCH  17  20
ENDBRANCH  15  16
BRANCH  15  29
HETATM   29  C   UNL     1      -8.825  14.669  67.522  1.00  0.00    -0.185 C  
BRANCH  29  30
HETATM   30  S   UNL     1      -8.245  15.880  68.766  1.00  0.00    -0.211 SA 
BRANCH  30  31
HETATM   31  C   UNL     1      -7.318  17.067  67.823  1.00  0.00    -0.160 A  
HETATM   32  C   UNL     1      -5.379  18.534  67.763  1.00  0.00    -0.168 A  
HETATM   33  C   UNL     1      -6.235  17.684  68.464  1.00  0.00    -0.182 A  
HETATM   34  C   UNL     1      -6.677  18.173  65.764  1.00  0.00    -0.308 A  
HETATM   35  C   UNL     1      -5.597  18.773  66.409  1.00  0.00    -0.174 A  
HETATM   36  C   UNL     1      -7.535  17.322  66.468  1.00  0.00    -0.315 A  
ENDBRANCH  30  31
ENDBRANCH  29  30
ENDBRANCH  15  29
ENDBRANCH  12  15
ENDBRANCH  11  12
ENDBRANCH   8  11
BRANCH   9  37
HETATM   37  C   UNL     1      -7.344   9.692  65.877  1.00  0.00    -0.099 C  
HETATM   38  C   UNL     1      -6.088  10.413  63.085  1.00  0.00    -0.131 C  
HETATM   39  O   UNL     1      -8.132  10.566  65.522  1.00  0.00    -0.157 OA 
HETATM   40  C   UNL     1      -5.831   7.942  62.908  1.00  0.00    -0.064 C  
HETATM   41  C   UNL     1      -6.687   9.067  63.516  1.00  0.00    -0.089 C  
HETATM   42  N   UNL     1      -6.644   8.906  64.976  1.00  0.00    -0.068 N  
HETATM   43  C   UNL     1      -8.118   8.938  62.973  1.00  0.00    -0.172 C  
HETATM   44  H   UNL     1      -6.055   8.164  65.353  1.00  0.00     0.000 HD 
ENDBRANCH   9  37
TORSDOF 9
ENDMDL
MODEL       96
REMARK 921   NORMALIZED FREE ENERGY PREDICTED BY IDOCK:   -5.63 KCAL/MOL
REMARK 922        TOTAL FREE ENERGY PREDICTED BY IDOCK:  -11.42 KCAL/MOL
REMARK 923 INTER-LIGAND FREE ENERGY PREDICTED BY IDOCK:   -8.82 KCAL/MOL
REMARK 924 INTRA-LIGAND FREE ENERGY PREDICTED BY IDOCK:   -2.60 KCAL/MOL
REMARK 927      BINDING AFFINITY PREDICTED BY RF-SCORE:    0.00 PKD
ROOT
HETATM    1  C   UNL     1      -6.038  16.768  69.093  1.00  0.00    -0.180 C  
HETATM    2  C   UNL     1      -6.339  18.270  69.111  1.00  0.00    -0.252 C  
HETATM    3  C   UNL     1      -7.351  18.659  68.040  1.00  0.00    -0.265 C  
HETATM    4  C   UNL     1      -6.855  18.265  66.655  1.00  0.00    -0.230 C  
HETATM    5  C   UNL     1      -6.476  16.788  66.554  1.00  0.00    -0.093 C  
HETATM    6  C   UNL     1      -5.597  16.285  67.710  1.00  0.00    -0.157 C  
HETATM    7  C   UNL     1      -5.461  14.753  67.741  1.00  0.00    -0.035 C  
HETATM    8  N   UNL     1      -6.719  14.039  67.981  1.00  0.00    -0.126 NA 
HETATM    9  C   UNL     1      -7.574  14.622  69.032  1.00  0.00    -0.136 C  
HETATM   10  C   UNL     1      -7.192  15.958  69.697  1.00  0.00    -0.104 C  
ENDROOT
BRANCH   8  11
HETATM   11  C   UNL     1      -6.474  12.587  68.180  1.00  0.00    -0.076 C  
BRANCH  11  12
HETATM   12  C   UNL     1      -6.868  11.578  67.051  1.00  0.00    -0.147 C  
HETATM   13  H   UNL     1      -6.169  11.011  65.273  1.00  0.00     0.000 HD 
HETATM   14  O   UNL     1      -5.930  11.624  65.958  1.00  0.00    -0.085 OA 
BRANCH  12  15
HETATM   15  C   UNL     1      -7.073  10.120  67.543  1.00  0.00    -0.087 C  
BRANCH  15  16
HETATM   16  N   UNL     1      -8.292   9.938  68.342  1.00  0.00    -0.106 N  
HETATM   17  C   UNL     1      -8.280   9.697  69.696  1.00  0.00    -0.144 C  
HETATM   18  O   UNL     1      -7.263   9.596  70.373  1.00  0.00    -0.113 OA 
HETATM   19  H   UNL     1      -9.194   9.994  67.868  1.00  0.00     0.000 HD 
BRANCH  17  20
HETATM   20  C   UNL     1      -9.598   9.498  70.345  1.00  0.00    -0.326 A  
HETATM   21  C   UNL     1     -10.670  10.290  69.895  1.00  0.00    -0.344 A  
HETATM   22  H   UNL     1     -12.135   7.740  73.538  1.00  0.00     0.000 HD 
HETATM   23  C   UNL     1      -9.759   8.597  71.420  1.00  0.00    -0.314 A  
HETATM   24  C   UNL     1     -11.019   8.555  72.034  1.00  0.00    -0.340 A  
HETATM   25  C   UNL     1     -11.918  10.185  70.494  1.00  0.00    -0.400 A  
HETATM   26  C   UNL     1      -8.658   7.694  71.916  1.00  0.00    -0.131 C  
HETATM   27  O   UNL     1     -11.282   7.768  73.122  1.00  0.00    -0.402 OA 
HETATM   28  C   UNL     1     -12.088   9.319  71.569  1.00  0.00    -0.435 A  
ENDBRANCH  17  20
ENDBRANCH  15  16
BRANCH  15  29
HETATM   29  C   UNL     1      -6.933   9.060  66.410  1.00  0.00    -0.080 C  
BRANCH  29  30
HETATM   30  S   UNL     1      -6.803   7.319  66.962  1.00  0.00    -0.079 SA 
BRANCH  30  31
HETATM   31  C   UNL     1      -8.475   6.856  67.348  1.00  0.00    -0.121 A  
HETATM   32  C   UNL     1      -9.972   5.867  68.990  1.00  0.00    -0.211 A  
HETATM   33  C   UNL     1      -8.682   6.161  68.548  1.00  0.00    -0.111 A  
HETATM   34  C   UNL     1     -10.876   6.952  67.036  1.00  0.00    -0.436 A  
HETATM   35  C   UNL     1     -11.071   6.270  68.235  1.00  0.00    -0.364 A  
HETATM   36  C   UNL     1      -9.582   7.245  66.592  1.00  0.00    -0.236 A  
ENDBRANCH  30  31
ENDBRANCH  29  30
ENDBRANCH  15  29
ENDBRANCH  12  15
ENDBRANCH  11  12
ENDBRANCH   8  11
BRANCH   9  37
HETATM   37  C   UNL     1      -9.035  14.739  68.492  1.00  0.00    -0.182 C  
HETATM   38  C   UNL     1     -11.795  13.289  68.079  1.00  0.00    -0.392 C  
HETATM   39  O   UNL     1      -9.326  15.176  67.381  1.00  0.00    -0.192 OA 
HETATM   40  C   UNL     1     -12.122  13.895  70.472  1.00  0.00    -0.426 C  
HETATM   41  C   UNL     1     -11.438  14.318  69.161  1.00  0.00    -0.291 C  
HETATM   42  N   UNL     1      -9.990  14.344  69.415  1.00  0.00    -0.423 N  
HETATM   43  C   UNL     1     -11.968  15.701  68.758  1.00  0.00    -0.247 C  
HETATM   44  H   UNL     1      -9.666  14.049  70.335  1.00  0.00     0.000 HD 
ENDBRANCH   9  37
TORSDOF 9
ENDMDL
MODEL       97
REMARK 921   NORMALIZED FREE ENERGY PREDICTED BY IDOCK:   -5.61 KCAL/MOL
REMARK 922        TOTAL FREE ENERGY PREDICTED BY IDOCK:  -11.40 KCAL/MOL
REMARK 923 INTER-LIGAND FREE ENERGY PREDICTED BY IDOCK:   -9.13 KCAL/MOL
REMARK 924 INTRA-LIGAND FREE ENERGY PREDICTED BY IDOCK:   -2.27 KCAL/MOL
REMARK 927      BINDING AFFINITY PREDICTED BY RF-SCORE:    0.00 PKD
ROOT
HETATM    1  C   UNL     1     -11.605   5.929  72.364  1.00  0.00    -0.341 C  
HETATM    2  C   UNL     1     -11.337   4.721  73.268  1.00  0.00    -0.408 C  
HETATM    3  C   UNL     1      -9.913   4.202  73.112  1.00  0.00    -0.192 C  
HETATM    4  C   UNL     1      -9.629   3.818  71.666  1.00  0.00    -0.227 C  
HETATM    5  C   UNL     1      -9.921   4.947  70.680  1.00  0.00    -0.305 C  
HETATM    6  C   UNL     1     -11.277   5.637  70.899  1.00  0.00    -0.106 C  
HETATM    7  C   UNL     1     -11.431   6.936  70.089  1.00  0.00    -0.303 C  
HETATM    8  N   UNL     1     -10.486   7.994  70.460  1.00  0.00    -0.210 NA 
HETATM    9  C   UNL     1     -10.286   8.170  71.910  1.00  0.00    -0.235 C  
HETATM   10  C   UNL     1     -10.938   7.197  72.912  1.00  0.00    -0.359 C  
ENDROOT
BRANCH   8  11
HETATM   11  C   UNL     1     -10.817   9.266  69.767  1.00  0.00    -0.224 C  
BRANCH  11  12
HETATM   12  C   UNL     1     -10.215   9.553  68.352  1.00  0.00    -0.194 C  
HETATM   13  H   UNL     1     -10.815   9.475  66.454  1.00  0.00     0.000 HD 
HETATM   14  O   UNL     1     -11.180   9.302  67.313  1.00  0.00     0.096 OA 
BRANCH  12  15
HETATM   15  C   UNL     1      -9.592  10.966  68.200  1.00  0.00    -0.164 C  
BRANCH  15  16
HETATM   16  N   UNL     1     -10.229  11.982  69.047  1.00  0.00    -0.420 N  
HETATM   17  C   UNL     1     -11.483  12.493  68.801  1.00  0.00    -0.310 C  
HETATM   18  O   UNL     1     -12.189  12.169  67.854  1.00  0.00    -0.438 OA 
HETATM   19  H   UNL     1      -9.716  12.326  69.859  1.00  0.00     0.000 HD 
BRANCH  17  20
HETATM   20  C   UNL     1     -11.964  13.540  69.732  1.00  0.00    -0.405 A  
HETATM   21  C   UNL     1     -11.678  14.879  69.410  1.00  0.00    -0.349 A  
HETATM   22  H   UNL     1     -13.761  14.778  73.601  1.00  0.00     0.000 HD 
HETATM   23  C   UNL     1     -12.627  13.207  70.934  1.00  0.00    -0.377 A  
HETATM   24  C   UNL     1     -12.953  14.263  71.797  1.00  0.00    -0.354 A  
HETATM   25  C   UNL     1     -12.060  15.904  70.265  1.00  0.00    -0.294 A  
HETATM   26  C   UNL     1     -12.998  11.795  71.311  1.00  0.00    -0.353 C  
HETATM   27  O   UNL     1     -13.540  14.063  73.016  1.00  0.00    -0.644 OA 
HETATM   28  C   UNL     1     -12.693  15.591  71.464  1.00  0.00    -0.501 A  
ENDBRANCH  17  20
ENDBRANCH  15  16
BRANCH  15  29
HETATM   29  C   UNL     1      -8.038  10.971  68.320  1.00  0.00    -0.128 C  
BRANCH  29  30
HETATM   30  S   UNL     1      -7.123  10.445  66.824  1.00  0.00    -0.111 SA 
BRANCH  30  31
HETATM   31  C   UNL     1      -6.673   8.758  67.157  1.00  0.00    -0.066 A  
HETATM   32  C   UNL     1      -5.225   6.897  66.564  1.00  0.00    -0.018 A  
HETATM   33  C   UNL     1      -5.727   8.172  66.304  1.00  0.00    -0.040 A  
HETATM   34  C   UNL     1      -6.612   6.764  68.532  1.00  0.00    -0.058 A  
HETATM   35  C   UNL     1      -5.664   6.195  67.684  1.00  0.00    -0.012 A  
HETATM   36  C   UNL     1      -7.116   8.041  68.270  1.00  0.00    -0.088 A  
ENDBRANCH  30  31
ENDBRANCH  29  30
ENDBRANCH  15  29
ENDBRANCH  12  15
ENDBRANCH  11  12
ENDBRANCH   8  11
BRANCH   9  37
HETATM   37  C   UNL     1      -8.755   8.233  72.210  1.00  0.00    -0.200 C  
HETATM   38  C   UNL     1      -6.523   8.271  74.425  1.00  0.00    -0.149 C  
HETATM   39  O   UNL     1      -7.988   9.051  71.707  1.00  0.00    -0.343 OA 
HETATM   40  C   UNL     1      -6.902   5.810  74.415  1.00  0.00    -0.080 C  
HETATM   41  C   UNL     1      -6.945   7.082  73.551  1.00  0.00    -0.073 C  
HETATM   42  N   UNL     1      -8.326   7.237  73.072  1.00  0.00    -0.108 N  
HETATM   43  C   UNL     1      -5.957   6.915  72.387  1.00  0.00    -0.041 C  
HETATM   44  H   UNL     1      -9.018   6.563  73.398  1.00  0.00     0.000 HD 
ENDBRANCH   9  37
TORSDOF 9
ENDMDL
MODEL       98
REMARK 921   NORMALIZED FREE ENERGY PREDICTED BY IDOCK:   -5.61 KCAL/MOL
REMARK 922        TOTAL FREE ENERGY PREDICTED BY IDOCK:  -11.39 KCAL/MOL
REMARK 923 INTER-LIGAND FREE ENERGY PREDICTED BY IDOCK:   -9.60 KCAL/MOL
REMARK 924 INTRA-LIGAND FREE ENERGY PREDICTED BY IDOCK:   -1.79 KCAL/MOL
REMARK 927      BINDING AFFINITY PREDICTED BY RF-SCORE:    0.00 PKD
ROOT
HETATM    1  C   UNL     1      -8.342   3.944  68.104  1.00  0.00    -0.101 C  
HETATM    2  C   UNL     1      -8.006   2.450  68.055  1.00  0.00    -0.063 C  
HETATM    3  C   UNL     1      -7.342   1.975  69.342  1.00  0.00    -0.043 C  
HETATM    4  C   UNL     1      -6.070   2.766  69.621  1.00  0.00    -0.024 C  
HETATM    5  C   UNL     1      -6.297   4.277  69.635  1.00  0.00    -0.028 C  
HETATM    6  C   UNL     1      -7.120   4.799  68.447  1.00  0.00    -0.057 C  
HETATM    7  C   UNL     1      -7.572   6.259  68.623  1.00  0.00    -0.093 C  
HETATM    8  N   UNL     1      -8.486   6.478  69.749  1.00  0.00    -0.130 NA 
HETATM    9  C   UNL     1      -9.546   5.463  69.895  1.00  0.00    -0.168 C  
HETATM   10  C   UNL     1      -9.562   4.214  68.993  1.00  0.00    -0.232 C  
ENDROOT
BRANCH   8  11
HETATM   11  C   UNL     1      -9.017   7.865  69.737  1.00  0.00    -0.146 C  
BRANCH  11  12
HETATM   12  C   UNL     1      -9.319   8.564  68.370  1.00  0.00    -0.134 C  
HETATM   13  H   UNL     1     -10.631   8.383  66.883  1.00  0.00     0.000 HD 
HETATM   14  O   UNL     1     -10.448   7.959  67.712  1.00  0.00    -0.220 OA 
BRANCH  12  15
HETATM   15  C   UNL     1      -9.492  10.104  68.467  1.00  0.00    -0.158 C  
BRANCH  15  16
HETATM   16  N   UNL     1     -10.202  10.686  67.321  1.00  0.00    -0.198 N  
HETATM   17  C   UNL     1      -9.694  11.713  66.559  1.00  0.00    -0.206 C  
HETATM   18  O   UNL     1      -8.613  12.256  66.760  1.00  0.00    -0.194 OA 
HETATM   19  H   UNL     1     -11.118  10.310  67.077  1.00  0.00     0.000 HD 
BRANCH  17  20
HETATM   20  C   UNL     1     -10.555  12.212  65.462  1.00  0.00    -0.314 A  
HETATM   21  C   UNL     1     -10.677  11.408  64.313  1.00  0.00    -0.420 A  
HETATM   22  H   UNL     1     -12.969  15.421  63.563  1.00  0.00     0.000 HD 
HETATM   23  C   UNL     1     -11.180  13.476  65.534  1.00  0.00    -0.304 A  
HETATM   24  C   UNL     1     -11.892  13.903  64.404  1.00  0.00    -0.429 A  
HETATM   25  C   UNL     1     -11.431  11.841  63.231  1.00  0.00    -0.332 A  
HETATM   26  C   UNL     1     -11.121  14.361  66.754  1.00  0.00    -0.323 C  
HETATM   27  O   UNL     1     -12.488  15.132  64.329  1.00  0.00    -0.612 OA 
HETATM   28  C   UNL     1     -12.034  13.094  63.277  1.00  0.00    -0.445 A  
ENDBRANCH  17  20
ENDBRANCH  15  16
BRANCH  15  29
HETATM   29  C   UNL     1     -10.070  10.575  69.834  1.00  0.00     0.001 C  
BRANCH  29  30
HETATM   30  S   UNL     1     -11.890  10.472  70.007  1.00  0.00    -0.308 SA 
BRANCH  30  31
HETATM   31  C   UNL     1     -12.346  12.013  70.765  1.00  0.00    -0.308 A  
HETATM   32  C   UNL     1     -12.334  14.438  70.583  1.00  0.00    -0.422 A  
HETATM   33  C   UNL     1     -11.919  13.186  70.128  1.00  0.00    -0.381 A  
HETATM   34  C   UNL     1     -13.608  13.368  72.328  1.00  0.00    -0.703 A  
HETATM   35  C   UNL     1     -13.186  14.527  71.681  1.00  0.00    -0.424 A  
HETATM   36  C   UNL     1     -13.190  12.113  71.872  1.00  0.00    -0.474 A  
ENDBRANCH  30  31
ENDBRANCH  29  30
ENDBRANCH  15  29
ENDBRANCH  12  15
ENDBRANCH  11  12
ENDBRANCH   8  11
BRANCH   9  37
HETATM   37  C   UNL     1      -9.601   4.996  71.384  1.00  0.00    -0.164 C  
HETATM   38  C   UNL     1     -11.261   3.499  73.596  1.00  0.00    -0.278 C  
HETATM   39  O   UNL     1      -9.359   5.725  72.344  1.00  0.00    -0.144 OA 
HETATM   40  C   UNL     1     -10.315   1.474  72.500  1.00  0.00    -0.221 C  
HETATM   41  C   UNL     1     -10.059   2.958  72.810  1.00  0.00    -0.152 C  
HETATM   42  N   UNL     1      -9.907   3.652  71.524  1.00  0.00    -0.175 N  
HETATM   43  C   UNL     1      -8.788   3.064  73.666  1.00  0.00    -0.079 C  
HETATM   44  H   UNL     1     -10.036   3.106  70.673  1.00  0.00     0.000 HD 
ENDBRANCH   9  37
TORSDOF 9
ENDMDL
MODEL       99
REMARK 921   NORMALIZED FREE ENERGY PREDICTED BY IDOCK:   -5.58 KCAL/MOL
REMARK 922        TOTAL FREE ENERGY PREDICTED BY IDOCK:  -11.35 KCAL/MOL
REMARK 923 INTER-LIGAND FREE ENERGY PREDICTED BY IDOCK:   -8.88 KCAL/MOL
REMARK 924 INTRA-LIGAND FREE ENERGY PREDICTED BY IDOCK:   -2.47 KCAL/MOL
REMARK 927      BINDING AFFINITY PREDICTED BY RF-SCORE:    0.00 PKD
ROOT
HETATM    1  C   UNL     1     -12.566  13.821  65.755  1.00  0.00    -0.525 C  
HETATM    2  C   UNL     1     -12.458  15.014  64.800  1.00  0.00    -0.078 C  
HETATM    3  C   UNL     1     -11.009  15.343  64.464  1.00  0.00    -0.223 C  
HETATM    4  C   UNL     1     -10.212  15.640  65.727  1.00  0.00    -0.391 C  
HETATM    5  C   UNL     1     -10.303  14.525  66.767  1.00  0.00    -0.269 C  
HETATM    6  C   UNL     1     -11.732  14.020  67.023  1.00  0.00    -0.425 C  
HETATM    7  C   UNL     1     -11.775  12.725  67.852  1.00  0.00    -0.357 C  
HETATM    8  N   UNL     1     -11.154  11.568  67.198  1.00  0.00    -0.282 NA 
HETATM    9  C   UNL     1     -11.475  11.417  65.767  1.00  0.00     0.107 C  
HETATM   10  C   UNL     1     -12.291  12.497  65.031  1.00  0.00    -0.522 C  
ENDROOT
BRANCH   8  11
HETATM   11  C   UNL     1     -11.399  10.327  67.976  1.00  0.00    -0.146 C  
BRANCH  11  12
HETATM   12  C   UNL     1     -11.294  10.362  69.538  1.00  0.00    -0.265 C  
HETATM   13  H   UNL     1     -12.488  10.752  71.085  1.00  0.00     0.000 HD 
HETATM   14  O   UNL     1     -12.551  10.730  70.137  1.00  0.00    -0.327 OA 
BRANCH  12  15
HETATM   15  C   UNL     1     -10.740   9.057  70.168  1.00  0.00    -0.233 C  
BRANCH  15  16
HETATM   16  N   UNL     1     -10.389   8.031  69.178  1.00  0.00    -0.218 N  
HETATM   17  C   UNL     1     -10.853   6.737  69.232  1.00  0.00    -0.264 C  
HETATM   18  O   UNL     1     -11.590   6.301  70.109  1.00  0.00    -0.413 OA 
HETATM   19  H   UNL     1      -9.769   8.292  68.410  1.00  0.00     0.000 HD 
BRANCH  17  20
HETATM   20  C   UNL     1     -10.371   5.817  68.175  1.00  0.00    -0.264 A  
HETATM   21  C   UNL     1     -10.908   5.970  66.884  1.00  0.00    -0.396 A  
HETATM   22  H   UNL     1      -8.102   2.222  66.886  1.00  0.00     0.000 HD 
HETATM   23  C   UNL     1      -9.457   4.780  68.465  1.00  0.00    -0.200 A  
HETATM   24  C   UNL     1      -9.140   3.898  67.421  1.00  0.00    -0.156 A  
HETATM   25  C   UNL     1     -10.532   5.109  65.862  1.00  0.00    -0.172 A  
HETATM   26  C   UNL     1      -8.818   4.593  69.818  1.00  0.00    -0.128 C  
HETATM   27  O   UNL     1      -8.317   2.820  67.593  1.00  0.00    -0.078 OA 
HETATM   28  C   UNL     1      -9.651   4.068  66.135  1.00  0.00    -0.205 A  
ENDBRANCH  17  20
ENDBRANCH  15  16
BRANCH  15  29
HETATM   29  C   UNL     1      -9.604   9.306  71.204  1.00  0.00    -0.234 C  
BRANCH  29  30
HETATM   30  S   UNL     1      -7.918   8.844  70.662  1.00  0.00    -0.145 SA 
BRANCH  30  31
HETATM   31  C   UNL     1      -7.279  10.321  69.908  1.00  0.00    -0.159 A  
HETATM   32  C   UNL     1      -7.587  12.006  68.182  1.00  0.00    -0.120 A  
HETATM   33  C   UNL     1      -7.941  10.789  68.765  1.00  0.00    -0.136 A  
HETATM   34  C   UNL     1      -5.893  12.309  69.871  1.00  0.00    -0.140 A  
HETATM   35  C   UNL     1      -6.565  12.770  68.740  1.00  0.00    -0.090 A  
HETATM   36  C   UNL     1      -6.248  11.088  70.454  1.00  0.00    -0.106 A  
ENDBRANCH  30  31
ENDBRANCH  29  30
ENDBRANCH  15  29
ENDBRANCH  12  15
ENDBRANCH  11  12
ENDBRANCH   8  11
BRANCH   9  37
HETATM   37  C   UNL     1     -10.154  11.170  64.972  1.00  0.00    -0.283 C  
HETATM   38  C   UNL     1      -7.168  10.190  65.101  1.00  0.00    -0.141 C  
HETATM   39  O   UNL     1      -9.641  11.991  64.216  1.00  0.00    -0.119 OA 
HETATM   40  C   UNL     1      -8.224   7.938  64.978  1.00  0.00    -0.134 C  
HETATM   41  C   UNL     1      -8.380   9.413  64.568  1.00  0.00    -0.164 C  
HETATM   42  N   UNL     1      -9.631   9.901  65.164  1.00  0.00    -0.284 N  
HETATM   43  C   UNL     1      -8.414   9.491  63.035  1.00  0.00    -0.198 C  
HETATM   44  H   UNL     1     -10.151   9.261  65.763  1.00  0.00     0.000 HD 
ENDBRANCH   9  37
TORSDOF 9
ENDMDL
MODEL      100
REMARK 921   NORMALIZED FREE ENERGY PREDICTED BY IDOCK:   -5.56 KCAL/MOL
REMARK 922        TOTAL FREE ENERGY PREDICTED BY IDOCK:  -11.33 KCAL/MOL
REMARK 923 INTER-LIGAND FREE ENERGY PREDICTED BY IDOCK:   -9.65 KCAL/MOL
REMARK 924 INTRA-LIGAND FREE ENERGY PREDICTED BY IDOCK:   -1.68 KCAL/MOL
REMARK 927      BINDING AFFINITY PREDICTED BY RF-SCORE:    0.00 PKD
ROOT
HETATM    1  C   UNL     1      -9.120   7.176  68.530  1.00  0.00    -0.132 C  
HETATM    2  C   UNL     1      -8.667   5.714  68.603  1.00  0.00    -0.106 C  
HETATM    3  C   UNL     1      -8.694   5.043  67.235  1.00  0.00    -0.103 C  
HETATM    4  C   UNL     1     -10.089   5.104  66.627  1.00  0.00    -0.267 C  
HETATM    5  C   UNL     1     -10.651   6.524  66.563  1.00  0.00    -0.125 C  
HETATM    6  C   UNL     1     -10.491   7.322  67.867  1.00  0.00    -0.267 C  
HETATM    7  C   UNL     1     -10.802   8.819  67.699  1.00  0.00    -0.022 C  
HETATM    8  N   UNL     1      -9.893   9.528  66.793  1.00  0.00    -0.200 NA 
HETATM    9  C   UNL     1      -8.466   9.190  66.955  1.00  0.00    -0.123 C  
HETATM   10  C   UNL     1      -8.033   8.069  67.919  1.00  0.00    -0.128 C  
ENDROOT
BRANCH   8  11
HETATM   11  C   UNL     1     -10.144  10.992  66.830  1.00  0.00    -0.220 C  
BRANCH  11  12
HETATM   12  C   UNL     1      -9.185  11.919  67.649  1.00  0.00    -0.183 C  
HETATM   13  H   UNL     1      -7.475  12.896  67.353  1.00  0.00     0.000 HD 
HETATM   14  O   UNL     1      -8.057  12.333  66.856  1.00  0.00    -0.163 OA 
BRANCH  12  15
HETATM   15  C   UNL     1      -9.885  13.142  68.300  1.00  0.00    -0.227 C  
BRANCH  15  16
HETATM   16  N   UNL     1      -9.513  14.424  67.688  1.00  0.00    -0.210 N  
HETATM   17  C   UNL     1      -8.783  15.390  68.342  1.00  0.00    -0.171 C  
HETATM   18  O   UNL     1      -8.381  15.292  69.495  1.00  0.00    -0.244 OA 
HETATM   19  H   UNL     1      -9.810  14.607  66.729  1.00  0.00     0.000 HD 
BRANCH  17  20
HETATM   20  C   UNL     1      -8.526  16.643  67.594  1.00  0.00    -0.200 A  
HETATM   21  C   UNL     1      -7.362  16.703  66.806  1.00  0.00    -0.283 A  
HETATM   22  H   UNL     1      -9.447  20.894  66.694  1.00  0.00     0.000 HD 
HETATM   23  C   UNL     1      -9.379  17.761  67.718  1.00  0.00    -0.257 A  
HETATM   24  C   UNL     1      -8.996  18.934  67.052  1.00  0.00    -0.294 A  
HETATM   25  C   UNL     1      -7.040  17.866  66.119  1.00  0.00    -0.341 A  
HETATM   26  C   UNL     1     -10.661  17.741  68.514  1.00  0.00    -0.260 C  
HETATM   27  O   UNL     1      -9.707  20.099  67.145  1.00  0.00    -0.383 OA 
HETATM   28  C   UNL     1      -7.858  18.984  66.249  1.00  0.00    -0.303 A  
ENDBRANCH  17  20
ENDBRANCH  15  16
BRANCH  15  29
HETATM   29  C   UNL     1     -11.427  12.968  68.440  1.00  0.00    -0.310 C  
BRANCH  29  30
HETATM   30  S   UNL     1     -12.012  12.335  70.055  1.00  0.00    -0.238 SA 
BRANCH  30  31
HETATM   31  C   UNL     1     -12.274  13.798  71.030  1.00  0.00    -0.319 A  
HETATM   32  C   UNL     1     -13.359  14.760  72.982  1.00  0.00    -0.543 A  
HETATM   33  C   UNL     1     -13.185  13.701  72.091  1.00  0.00    -0.541 A  
HETATM   34  C   UNL     1     -11.719  16.040  71.763  1.00  0.00    -0.593 A  
HETATM   35  C   UNL     1     -12.619  15.929  72.821  1.00  0.00    -0.567 A  
HETATM   36  C   UNL     1     -11.546  14.978  70.870  1.00  0.00    -0.364 A  
ENDBRANCH  30  31
ENDBRANCH  29  30
ENDBRANCH  15  29
ENDBRANCH  12  15
ENDBRANCH  11  12
ENDBRANCH   8  11
BRANCH   9  37
HETATM   37  C   UNL     1      -7.850   8.897  65.550  1.00  0.00    -0.100 C  
HETATM   38  C   UNL     1      -8.401   8.544  62.474  1.00  0.00    -0.182 C  
HETATM   39  O   UNL     1      -7.083   7.967  65.315  1.00  0.00    -0.058 OA 
HETATM   40  C   UNL     1      -8.371  11.033  62.496  1.00  0.00    -0.229 C  
HETATM   41  C   UNL     1      -7.811   9.773  63.178  1.00  0.00    -0.139 C  
HETATM   42  N   UNL     1      -8.216   9.826  64.589  1.00  0.00    -0.140 N  
HETATM   43  C   UNL     1      -6.283   9.775  63.026  1.00  0.00    -0.111 C  
HETATM   44  H   UNL     1      -8.810  10.601  64.883  1.00  0.00     0.000 HD 
ENDBRANCH   9  37
TORSDOF 9
ENDMDL
MODEL      101
REMARK 921   NORMALIZED FREE ENERGY PREDICTED BY IDOCK:   -5.56 KCAL/MOL
REMARK 922        TOTAL FREE ENERGY PREDICTED BY IDOCK:  -11.33 KCAL/MOL
REMARK 923 INTER-LIGAND FREE ENERGY PREDICTED BY IDOCK:   -9.26 KCAL/MOL
REMARK 924 INTRA-LIGAND FREE ENERGY PREDICTED BY IDOCK:   -2.06 KCAL/MOL
REMARK 927      BINDING AFFINITY PREDICTED BY RF-SCORE:    0.00 PKD
ROOT
HETATM    1  C   UNL     1      -9.544  18.286  68.919  1.00  0.00    -0.268 C  
HETATM    2  C   UNL     1     -10.374  19.497  68.483  1.00  0.00    -0.436 C  
HETATM    3  C   UNL     1     -10.905  19.340  67.064  1.00  0.00    -0.515 C  
HETATM    4  C   UNL     1      -9.764  19.134  66.076  1.00  0.00    -0.254 C  
HETATM    5  C   UNL     1      -8.844  17.976  66.459  1.00  0.00    -0.276 C  
HETATM    6  C   UNL     1      -8.414  17.977  67.935  1.00  0.00    -0.253 C  
HETATM    7  C   UNL     1      -7.728  16.668  68.364  1.00  0.00    -0.200 C  
HETATM    8  N   UNL     1      -8.591  15.483  68.297  1.00  0.00    -0.158 NA 
HETATM    9  C   UNL     1      -9.959  15.681  68.810  1.00  0.00    -0.213 C  
HETATM   10  C   UNL     1     -10.437  17.081  69.242  1.00  0.00    -0.293 C  
ENDROOT
BRANCH   8  11
HETATM   11  C   UNL     1      -7.917  14.304  68.898  1.00  0.00    -0.080 C  
BRANCH  11  12
HETATM   12  C   UNL     1      -7.283  13.220  67.964  1.00  0.00    -0.121 C  
HETATM   13  H   UNL     1      -5.871  13.129  66.561  1.00  0.00     0.000 HD 
HETATM   14  O   UNL     1      -6.256  13.787  67.127  1.00  0.00    -0.215 OA 
BRANCH  12  15
HETATM   15  C   UNL     1      -6.759  11.964  68.711  1.00  0.00    -0.088 C  
BRANCH  15  16
HETATM   16  N   UNL     1      -7.817  11.194  69.375  1.00  0.00    -0.366 N  
HETATM   17  C   UNL     1      -9.087  11.057  68.864  1.00  0.00    -0.123 C  
HETATM   18  O   UNL     1      -9.471  11.566  67.818  1.00  0.00    -0.161 OA 
HETATM   19  H   UNL     1      -7.600  10.737  70.261  1.00  0.00     0.000 HD 
BRANCH  17  20
HETATM   20  C   UNL     1     -10.048  10.278  69.679  1.00  0.00    -0.257 A  
HETATM   21  C   UNL     1      -9.706   8.951  69.998  1.00  0.00    -0.187 A  
HETATM   22  H   UNL     1     -14.031   9.787  71.584  1.00  0.00     0.000 HD 
HETATM   23  C   UNL     1     -11.293  10.821  70.067  1.00  0.00    -0.397 A  
HETATM   24  C   UNL     1     -12.176   9.972  70.749  1.00  0.00    -0.315 A  
HETATM   25  C   UNL     1     -10.585   8.154  70.719  1.00  0.00    -0.234 A  
HETATM   26  C   UNL     1     -11.696  12.248  69.790  1.00  0.00    -0.368 C  
HETATM   27  O   UNL     1     -13.432  10.362  71.122  1.00  0.00    -0.287 OA 
HETATM   28  C   UNL     1     -11.824   8.666  71.089  1.00  0.00    -0.331 A  
ENDBRANCH  17  20
ENDBRANCH  15  16
BRANCH  15  29
HETATM   29  C   UNL     1      -5.823  11.074  67.840  1.00  0.00    -0.046 C  
BRANCH  29  30
HETATM   30  S   UNL     1      -6.584  10.352  66.339  1.00  0.00    -0.107 SA 
BRANCH  30  31
HETATM   31  C   UNL     1      -7.351   8.855  66.914  1.00  0.00    -0.083 A  
HETATM   32  C   UNL     1      -9.212   7.310  66.661  1.00  0.00    -0.193 A  
HETATM   33  C   UNL     1      -8.596   8.526  66.361  1.00  0.00    -0.136 A  
HETATM   34  C   UNL     1      -7.351   6.731  68.080  1.00  0.00    -0.097 A  
HETATM   35  C   UNL     1      -8.584   6.409  67.517  1.00  0.00    -0.115 A  
HETATM   36  C   UNL     1      -6.735   7.950  67.780  1.00  0.00    -0.068 A  
ENDBRANCH  30  31
ENDBRANCH  29  30
ENDBRANCH  15  29
ENDBRANCH  12  15
ENDBRANCH  11  12
ENDBRANCH   8  11
BRANCH   9  37
HETATM   37  C   UNL     1     -10.978  15.110  67.775  1.00  0.00    -0.306 C  
HETATM   38  C   UNL     1     -11.809  14.929  64.747  1.00  0.00    -0.385 C  
HETATM   39  O   UNL     1     -12.199  15.183  67.897  1.00  0.00    -0.050 OA 
HETATM   40  C   UNL     1     -10.037  13.181  64.683  1.00  0.00    -0.248 C  
HETATM   41  C   UNL     1     -11.088  13.860  65.578  1.00  0.00    -0.304 C  
HETATM   42  N   UNL     1     -10.371  14.460  66.712  1.00  0.00    -0.270 N  
HETATM   43  C   UNL     1     -12.094  12.796  66.042  1.00  0.00    -0.458 C  
HETATM   44  H   UNL     1      -9.354  14.394  66.718  1.00  0.00     0.000 HD 
ENDBRANCH   9  37
TORSDOF 9
ENDMDL
MODEL      102
REMARK 921   NORMALIZED FREE ENERGY PREDICTED BY IDOCK:   -5.55 KCAL/MOL
REMARK 922        TOTAL FREE ENERGY PREDICTED BY IDOCK:  -11.30 KCAL/MOL
REMARK 923 INTER-LIGAND FREE ENERGY PREDICTED BY IDOCK:  -10.03 KCAL/MOL
REMARK 924 INTRA-LIGAND FREE ENERGY PREDICTED BY IDOCK:   -1.27 KCAL/MOL
REMARK 927      BINDING AFFINITY PREDICTED BY RF-SCORE:    0.00 PKD
ROOT
HETATM    1  C   UNL     1      -8.030   8.997  65.440  1.00  0.00    -0.111 C  
HETATM    2  C   UNL     1      -8.046   7.471  65.308  1.00  0.00    -0.130 C  
HETATM    3  C   UNL     1      -8.263   6.787  66.652  1.00  0.00    -0.115 C  
HETATM    4  C   UNL     1      -7.184   7.191  67.648  1.00  0.00    -0.091 C  
HETATM    5  C   UNL     1      -7.055   8.705  67.807  1.00  0.00    -0.079 C  
HETATM    6  C   UNL     1      -7.012   9.475  66.478  1.00  0.00    -0.085 C  
HETATM    7  C   UNL     1      -7.164  10.996  66.657  1.00  0.00    -0.143 C  
HETATM    8  N   UNL     1      -8.457  11.413  67.210  1.00  0.00    -0.143 NA 
HETATM    9  C   UNL     1      -9.629  10.719  66.644  1.00  0.00    -0.178 C  
HETATM   10  C   UNL     1      -9.443   9.556  65.650  1.00  0.00    -0.326 C  
ENDROOT
BRANCH   8  11
HETATM   11  C   UNL     1      -8.594  12.891  67.178  1.00  0.00    -0.198 C  
BRANCH  11  12
HETATM   12  C   UNL     1      -8.077  13.740  68.388  1.00  0.00    -0.148 C  
HETATM   13  H   UNL     1      -6.520  14.909  68.808  1.00  0.00     0.000 HD 
HETATM   14  O   UNL     1      -6.834  14.394  68.074  1.00  0.00    -0.110 OA 
BRANCH  12  15
HETATM   15  C   UNL     1      -9.113  14.754  68.942  1.00  0.00    -0.168 C  
BRANCH  15  16
HETATM   16  N   UNL     1      -8.793  16.152  68.625  1.00  0.00    -0.207 N  
HETATM   17  C   UNL     1      -8.919  16.689  67.364  1.00  0.00    -0.196 C  
HETATM   18  O   UNL     1      -9.296  16.064  66.379  1.00  0.00    -0.248 OA 
HETATM   19  H   UNL     1      -8.459  16.754  69.377  1.00  0.00     0.000 HD 
BRANCH  17  20
HETATM   20  C   UNL     1      -8.515  18.106  67.206  1.00  0.00    -0.243 A  
HETATM   21  C   UNL     1      -9.474  19.092  67.501  1.00  0.00    -0.365 A  
HETATM   22  H   UNL     1      -5.643  21.202  65.829  1.00  0.00     0.000 HD 
HETATM   23  C   UNL     1      -7.239  18.456  66.714  1.00  0.00    -0.231 A  
HETATM   24  C   UNL     1      -6.988  19.819  66.503  1.00  0.00    -0.220 A  
HETATM   25  C   UNL     1      -9.173  20.437  67.327  1.00  0.00    -0.525 A  
HETATM   26  C   UNL     1      -6.158  17.446  66.421  1.00  0.00    -0.256 C  
HETATM   27  O   UNL     1      -5.813  20.278  65.973  1.00  0.00    -0.170 OA 
HETATM   28  C   UNL     1      -7.929  20.797  66.821  1.00  0.00    -0.100 A  
ENDBRANCH  17  20
ENDBRANCH  15  16
BRANCH  15  29
HETATM   29  C   UNL     1     -10.587  14.382  68.597  1.00  0.00    -0.252 C  
BRANCH  29  30
HETATM   30  S   UNL     1     -11.828  15.696  68.889  1.00  0.00    -0.278 SA 
BRANCH  30  31
HETATM   31  C   UNL     1     -12.325  15.461  70.579  1.00  0.00    -0.408 A  
HETATM   32  C   UNL     1     -11.659  15.558  72.916  1.00  0.00    -0.430 A  
HETATM   33  C   UNL     1     -11.334  15.603  71.560  1.00  0.00    -0.454 A  
HETATM   34  C   UNL     1     -13.975  15.219  72.338  1.00  0.00    -0.642 A  
HETATM   35  C   UNL     1     -12.983  15.373  73.305  1.00  0.00    -0.648 A  
HETATM   36  C   UNL     1     -13.648  15.262  70.979  1.00  0.00    -0.486 A  
ENDBRANCH  30  31
ENDBRANCH  29  30
ENDBRANCH  15  29
ENDBRANCH  12  15
ENDBRANCH  11  12
ENDBRANCH   8  11
BRANCH   9  37
HETATM   37  C   UNL     1     -10.544  10.231  67.810  1.00  0.00    -0.250 C  
HETATM   38  C   UNL     1     -11.096   7.979  69.935  1.00  0.00    -0.108 C  
HETATM   39  O   UNL     1     -11.772  10.201  67.757  1.00  0.00    -0.127 OA 
HETATM   40  C   UNL     1      -9.307   9.162  71.200  1.00  0.00    -0.313 C  
HETATM   41  C   UNL     1     -10.441   9.346  70.177  1.00  0.00    -0.240 C  
HETATM   42  N   UNL     1      -9.837   9.873  68.946  1.00  0.00    -0.168 N  
HETATM   43  C   UNL     1     -11.474  10.320  70.764  1.00  0.00    -0.438 C  
HETATM   44  H   UNL     1      -8.823   9.983  68.926  1.00  0.00     0.000 HD 
ENDBRANCH   9  37
TORSDOF 9
ENDMDL
MODEL      103
REMARK 921   NORMALIZED FREE ENERGY PREDICTED BY IDOCK:   -5.54 KCAL/MOL
REMARK 922        TOTAL FREE ENERGY PREDICTED BY IDOCK:  -11.29 KCAL/MOL
REMARK 923 INTER-LIGAND FREE ENERGY PREDICTED BY IDOCK:   -8.92 KCAL/MOL
REMARK 924 INTRA-LIGAND FREE ENERGY PREDICTED BY IDOCK:   -2.36 KCAL/MOL
REMARK 927      BINDING AFFINITY PREDICTED BY RF-SCORE:    0.00 PKD
ROOT
HETATM    1  C   UNL     1      -9.594   8.085  72.398  1.00  0.00    -0.297 C  
HETATM    2  C   UNL     1      -9.459   7.570  73.834  1.00  0.00    -0.286 C  
HETATM    3  C   UNL     1      -9.647   6.060  73.916  1.00  0.00    -0.165 C  
HETATM    4  C   UNL     1     -11.005   5.649  73.362  1.00  0.00    -0.293 C  
HETATM    5  C   UNL     1     -11.254   6.166  71.946  1.00  0.00    -0.336 C  
HETATM    6  C   UNL     1     -10.912   7.652  71.751  1.00  0.00    -0.276 C  
HETATM    7  C   UNL     1     -10.901   8.079  70.273  1.00  0.00    -0.241 C  
HETATM    8  N   UNL     1      -9.874   7.419  69.460  1.00  0.00    -0.164 NA 
HETATM    9  C   UNL     1      -8.550   7.311  70.100  1.00  0.00    -0.140 C  
HETATM   10  C   UNL     1      -8.351   7.749  71.564  1.00  0.00    -0.119 C  
ENDROOT
BRANCH   8  11
HETATM   11  C   UNL     1      -9.810   8.017  68.102  1.00  0.00    -0.170 C  
BRANCH  11  12
HETATM   12  C   UNL     1     -10.171   9.527  67.906  1.00  0.00    -0.205 C  
HETATM   13  H   UNL     1      -9.502  11.294  68.537  1.00  0.00     0.000 HD 
HETATM   14  O   UNL     1      -9.283  10.378  68.655  1.00  0.00    -0.148 OA 
BRANCH  12  15
HETATM   15  C   UNL     1     -10.249   9.975  66.422  1.00  0.00    -0.221 C  
BRANCH  15  16
HETATM   16  N   UNL     1     -10.044  11.417  66.235  1.00  0.00    -0.217 N  
HETATM   17  C   UNL     1     -10.977  12.365  66.585  1.00  0.00    -0.268 C  
HETATM   18  O   UNL     1     -12.072  12.113  67.074  1.00  0.00    -0.591 OA 
HETATM   19  H   UNL     1      -9.165  11.731  65.824  1.00  0.00     0.000 HD 
BRANCH  17  20
HETATM   20  C   UNL     1     -10.629  13.776  66.293  1.00  0.00    -0.289 A  
HETATM   21  C   UNL     1      -9.763  14.431  67.187  1.00  0.00    -0.248 A  
HETATM   22  H   UNL     1     -11.208  17.527  63.987  1.00  0.00     0.000 HD 
HETATM   23  C   UNL     1     -11.196  14.461  65.196  1.00  0.00    -0.359 A  
HETATM   24  C   UNL     1     -10.884  15.821  65.062  1.00  0.00    -0.443 A  
HETATM   25  C   UNL     1      -9.436  15.767  66.994  1.00  0.00    -0.235 A  
HETATM   26  C   UNL     1     -12.096  13.799  64.182  1.00  0.00    -0.478 C  
HETATM   27  O   UNL     1     -11.420  16.606  64.077  1.00  0.00    -1.192 OA 
HETATM   28  C   UNL     1     -10.004  16.462  65.932  1.00  0.00    -0.358 A  
ENDBRANCH  17  20
ENDBRANCH  15  16
BRANCH  15  29
HETATM   29  C   UNL     1      -9.367   9.114  65.470  1.00  0.00    -0.221 C  
BRANCH  29  30
HETATM   30  S   UNL     1      -7.825   9.905  64.881  1.00  0.00    -0.141 SA 
BRANCH  30  31
HETATM   31  C   UNL     1      -6.780   9.952  66.318  1.00  0.00    -0.090 A  
HETATM   32  C   UNL     1      -5.698  11.350  67.987  1.00  0.00    -0.042 A  
HETATM   33  C   UNL     1      -6.411  11.217  66.796  1.00  0.00    -0.127 A  
HETATM   34  C   UNL     1      -5.699   8.953  68.243  1.00  0.00    -0.038 A  
HETATM   35  C   UNL     1      -5.347  10.216  68.715  1.00  0.00    -0.038 A  
HETATM   36  C   UNL     1      -6.413   8.820  67.049  1.00  0.00    -0.061 A  
ENDBRANCH  30  31
ENDBRANCH  29  30
ENDBRANCH  15  29
ENDBRANCH  12  15
ENDBRANCH  11  12
ENDBRANCH   8  11
BRANCH   9  37
HETATM   37  C   UNL     1      -8.028   5.848  69.948  1.00  0.00    -0.104 C  
HETATM   38  C   UNL     1      -7.777   3.343  68.063  1.00  0.00    -0.064 C  
HETATM   39  O   UNL     1      -8.226   4.957  70.771  1.00  0.00    -0.090 OA 
HETATM   40  C   UNL     1      -5.864   4.628  67.121  1.00  0.00    -0.022 C  
HETATM   41  C   UNL     1      -6.686   4.370  68.396  1.00  0.00    -0.047 C  
HETATM   42  N   UNL     1      -7.270   5.654  68.805  1.00  0.00    -0.079 N  
HETATM   43  C   UNL     1      -5.750   3.803  69.473  1.00  0.00    -0.018 C  
HETATM   44  H   UNL     1      -7.105   6.462  68.205  1.00  0.00     0.000 HD 
ENDBRANCH   9  37
TORSDOF 9
ENDMDL
MODEL      104
REMARK 921   NORMALIZED FREE ENERGY PREDICTED BY IDOCK:   -5.53 KCAL/MOL
REMARK 922        TOTAL FREE ENERGY PREDICTED BY IDOCK:  -11.27 KCAL/MOL
REMARK 923 INTER-LIGAND FREE ENERGY PREDICTED BY IDOCK:   -9.40 KCAL/MOL
REMARK 924 INTRA-LIGAND FREE ENERGY PREDICTED BY IDOCK:   -1.87 KCAL/MOL
REMARK 927      BINDING AFFINITY PREDICTED BY RF-SCORE:    0.00 PKD
ROOT
HETATM    1  C   UNL     1      -8.951   7.382  68.416  1.00  0.00    -0.134 C  
HETATM    2  C   UNL     1      -8.517   5.930  68.644  1.00  0.00    -0.111 C  
HETATM    3  C   UNL     1      -8.393   5.163  67.334  1.00  0.00    -0.106 C  
HETATM    4  C   UNL     1      -9.709   5.177  66.568  1.00  0.00    -0.184 C  
HETATM    5  C   UNL     1     -10.252   6.587  66.339  1.00  0.00    -0.039 C  
HETATM    6  C   UNL     1     -10.236   7.477  67.593  1.00  0.00    -0.275 C  
HETATM    7  C   UNL     1     -10.518   8.958  67.284  1.00  0.00    -0.277 C  
HETATM    8  N   UNL     1      -9.507   9.602  66.439  1.00  0.00    -0.175 NA 
HETATM    9  C   UNL     1      -8.110   9.280  66.785  1.00  0.00    -0.112 C  
HETATM   10  C   UNL     1      -7.796   8.232  67.871  1.00  0.00    -0.114 C  
ENDROOT
BRANCH   8  11
HETATM   11  C   UNL     1      -9.752  11.064  66.342  1.00  0.00    -0.201 C  
BRANCH  11  12
HETATM   12  C   UNL     1      -9.041  12.033  67.344  1.00  0.00    -0.178 C  
HETATM   13  H   UNL     1      -7.511  13.310  67.322  1.00  0.00     0.000 HD 
HETATM   14  O   UNL     1      -7.943  12.721  66.714  1.00  0.00    -0.014 OA 
BRANCH  12  15
HETATM   15  C   UNL     1      -9.995  13.036  68.045  1.00  0.00    -0.233 C  
BRANCH  15  16
HETATM   16  N   UNL     1      -9.864  14.413  67.552  1.00  0.00    -0.218 N  
HETATM   17  C   UNL     1      -9.475  15.467  68.346  1.00  0.00    -0.196 C  
HETATM   18  O   UNL     1      -9.212  15.375  69.539  1.00  0.00    -0.261 OA 
HETATM   19  H   UNL     1     -10.072  14.597  66.570  1.00  0.00     0.000 HD 
BRANCH  17  20
HETATM   20  C   UNL     1      -9.430  16.800  67.700  1.00  0.00    -0.234 A  
HETATM   21  C   UNL     1     -10.591  17.592  67.761  1.00  0.00    -0.380 A  
HETATM   22  H   UNL     1      -7.427  19.802  65.111  1.00  0.00     0.000 HD 
HETATM   23  C   UNL     1      -8.289  17.235  66.991  1.00  0.00    -0.231 A  
HETATM   24  C   UNL     1      -8.380  18.468  66.329  1.00  0.00    -0.213 A  
HETATM   25  C   UNL     1     -10.628  18.831  67.135  1.00  0.00    -0.491 A  
HETATM   26  C   UNL     1      -7.004  16.449  66.928  1.00  0.00    -0.247 C  
HETATM   27  O   UNL     1      -7.365  18.967  65.560  1.00  0.00    -0.477 OA 
HETATM   28  C   UNL     1      -9.521  19.264  66.413  1.00  0.00    -0.411 A  
ENDBRANCH  17  20
ENDBRANCH  15  16
BRANCH  15  29
HETATM   29  C   UNL     1     -11.475  12.552  68.090  1.00  0.00    -0.319 C  
BRANCH  29  30
HETATM   30  S   UNL     1     -11.985  11.693  69.624  1.00  0.00    -0.309 SA 
BRANCH  30  31
HETATM   31  C   UNL     1     -12.544  12.999  70.692  1.00  0.00    -0.193 A  
HETATM   32  C   UNL     1     -13.067  15.366  70.890  1.00  0.00    -0.528 A  
HETATM   33  C   UNL     1     -12.531  14.299  70.168  1.00  0.00    -0.393 A  
HETATM   34  C   UNL     1     -13.634  13.854  72.680  1.00  0.00    -0.626 A  
HETATM   35  C   UNL     1     -13.626  15.141  72.145  1.00  0.00    -0.558 A  
HETATM   36  C   UNL     1     -13.095  12.785  71.957  1.00  0.00    -0.474 A  
ENDBRANCH  30  31
ENDBRANCH  29  30
ENDBRANCH  15  29
ENDBRANCH  12  15
ENDBRANCH  11  12
ENDBRANCH   8  11
BRANCH   9  37
HETATM   37  C   UNL     1      -7.340   8.888  65.485  1.00  0.00    -0.085 C  
HETATM   38  C   UNL     1      -5.419   6.816  64.105  1.00  0.00    -0.027 C  
HETATM   39  O   UNL     1      -6.639   9.664  64.839  1.00  0.00    -0.083 OA 
HETATM   40  C   UNL     1      -7.525   5.519  63.819  1.00  0.00    -0.059 C  
HETATM   41  C   UNL     1      -6.939   6.937  63.927  1.00  0.00    -0.056 C  
HETATM   42  N   UNL     1      -7.563   7.578  65.092  1.00  0.00    -0.089 N  
HETATM   43  C   UNL     1      -7.251   7.693  62.627  1.00  0.00    -0.085 C  
HETATM   44  H   UNL     1      -8.206   7.019  65.652  1.00  0.00     0.000 HD 
ENDBRANCH   9  37
TORSDOF 9
ENDMDL
MODEL      105
REMARK 921   NORMALIZED FREE ENERGY PREDICTED BY IDOCK:   -5.52 KCAL/MOL
REMARK 922        TOTAL FREE ENERGY PREDICTED BY IDOCK:  -11.27 KCAL/MOL
REMARK 923 INTER-LIGAND FREE ENERGY PREDICTED BY IDOCK:   -9.35 KCAL/MOL
REMARK 924 INTRA-LIGAND FREE ENERGY PREDICTED BY IDOCK:   -1.92 KCAL/MOL
REMARK 927      BINDING AFFINITY PREDICTED BY RF-SCORE:    0.00 PKD
ROOT
HETATM    1  C   UNL     1     -10.746  18.003  66.828  1.00  0.00    -0.185 C  
HETATM    2  C   UNL     1     -11.018  19.503  66.982  1.00  0.00    -0.443 C  
HETATM    3  C   UNL     1      -9.955  20.188  67.831  1.00  0.00    -0.537 C  
HETATM    4  C   UNL     1      -9.867  19.551  69.212  1.00  0.00    -0.347 C  
HETATM    5  C   UNL     1      -9.650  18.039  69.160  1.00  0.00    -0.061 C  
HETATM    6  C   UNL     1     -10.578  17.305  68.180  1.00  0.00    -0.386 C  
HETATM    7  C   UNL     1     -10.162  15.845  67.934  1.00  0.00    -0.251 C  
HETATM    8  N   UNL     1      -8.853  15.689  67.290  1.00  0.00    -0.189 NA 
HETATM    9  C   UNL     1      -8.594  16.619  66.176  1.00  0.00    -0.289 C  
HETATM   10  C   UNL     1      -9.598  17.740  65.845  1.00  0.00     0.019 C  
ENDROOT
BRANCH   8  11
HETATM   11  C   UNL     1      -8.610  14.270  66.924  1.00  0.00    -0.146 C  
BRANCH  11  12
HETATM   12  C   UNL     1      -7.981  13.299  67.977  1.00  0.00    -0.152 C  
HETATM   13  H   UNL     1      -7.157  13.423  69.787  1.00  0.00     0.000 HD 
HETATM   14  O   UNL     1      -7.539  14.012  69.147  1.00  0.00    -0.080 OA 
BRANCH  12  15
HETATM   15  C   UNL     1      -8.894  12.105  68.367  1.00  0.00    -0.143 C  
BRANCH  15  16
HETATM   16  N   UNL     1      -8.398  11.341  69.519  1.00  0.00    -0.246 N  
HETATM   17  C   UNL     1      -8.087  10.002  69.460  1.00  0.00    -0.161 C  
HETATM   18  O   UNL     1      -8.200   9.308  68.456  1.00  0.00    -0.111 OA 
HETATM   19  H   UNL     1      -8.279  11.827  70.407  1.00  0.00     0.000 HD 
BRANCH  17  20
HETATM   20  C   UNL     1      -7.637   9.372  70.723  1.00  0.00    -0.138 A  
HETATM   21  C   UNL     1      -6.253   9.335  70.975  1.00  0.00    -0.072 A  
HETATM   22  H   UNL     1      -8.442   6.991  74.385  1.00  0.00     0.000 HD 
HETATM   23  C   UNL     1      -8.554   8.770  71.612  1.00  0.00    -0.228 A  
HETATM   24  C   UNL     1      -8.022   8.110  72.729  1.00  0.00    -0.155 A  
HETATM   25  C   UNL     1      -5.764   8.716  72.118  1.00  0.00    -0.057 A  
HETATM   26  C   UNL     1     -10.049   8.815  71.416  1.00  0.00    -0.354 C  
HETATM   27  O   UNL     1      -8.803   7.438  73.628  1.00  0.00    -0.160 OA 
HETATM   28  C   UNL     1      -6.653   8.098  72.992  1.00  0.00    -0.100 A  
ENDBRANCH  17  20
ENDBRANCH  15  16
BRANCH  15  29
HETATM   29  C   UNL     1     -10.395  12.497  68.506  1.00  0.00    -0.222 C  
BRANCH  29  30
HETATM   30  S   UNL     1     -11.580  11.444  67.589  1.00  0.00    -0.175 SA 
BRANCH  30  31
HETATM   31  C   UNL     1     -10.982  11.467  65.915  1.00  0.00    -0.243 A  
HETATM   32  C   UNL     1      -9.742  10.279  64.194  1.00  0.00    -0.357 A  
HETATM   33  C   UNL     1     -10.155  10.407  65.520  1.00  0.00    -0.352 A  
HETATM   34  C   UNL     1     -10.971  12.276  63.631  1.00  0.00    -0.532 A  
HETATM   35  C   UNL     1     -10.157  11.212  63.247  1.00  0.00    -0.426 A  
HETATM   36  C   UNL     1     -11.383  12.404  64.962  1.00  0.00    -0.363 A  
ENDBRANCH  30  31
ENDBRANCH  29  30
ENDBRANCH  15  29
ENDBRANCH  12  15
ENDBRANCH  11  12
ENDBRANCH   8  11
BRANCH   9  37
HETATM   37  C   UNL     1      -7.183  17.260  66.365  1.00  0.00    -0.292 C  
HETATM   38  C   UNL     1      -5.133  19.418  65.350  1.00  0.00    -0.175 C  
HETATM   39  O   UNL     1      -6.143  16.615  66.475  1.00  0.00    -0.303 OA 
HETATM   40  C   UNL     1      -6.537  20.950  66.721  1.00  0.00    -0.367 C  
HETATM   41  C   UNL     1      -6.035  19.503  66.589  1.00  0.00    -0.168 C  
HETATM   42  N   UNL     1      -7.218  18.642  66.447  1.00  0.00    -0.229 N  
HETATM   43  C   UNL     1      -5.226  19.151  67.846  1.00  0.00    -0.171 C  
HETATM   44  H   UNL     1      -8.130  19.096  66.404  1.00  0.00     0.000 HD 
ENDBRANCH   9  37
TORSDOF 9
ENDMDL
MODEL      106
REMARK 921   NORMALIZED FREE ENERGY PREDICTED BY IDOCK:   -5.49 KCAL/MOL
REMARK 922        TOTAL FREE ENERGY PREDICTED BY IDOCK:  -11.22 KCAL/MOL
REMARK 923 INTER-LIGAND FREE ENERGY PREDICTED BY IDOCK:   -9.90 KCAL/MOL
REMARK 924 INTRA-LIGAND FREE ENERGY PREDICTED BY IDOCK:   -1.32 KCAL/MOL
REMARK 927      BINDING AFFINITY PREDICTED BY RF-SCORE:    0.00 PKD
ROOT
HETATM    1  C   UNL     1      -7.342  17.287  68.694  1.00  0.00    -0.238 C  
HETATM    2  C   UNL     1      -7.501  18.780  68.392  1.00  0.00    -0.325 C  
HETATM    3  C   UNL     1      -8.089  19.020  67.007  1.00  0.00    -0.279 C  
HETATM    4  C   UNL     1      -7.223  18.381  65.930  1.00  0.00    -0.267 C  
HETATM    5  C   UNL     1      -6.963  16.895  66.176  1.00  0.00    -0.001 C  
HETATM    6  C   UNL     1      -6.536  16.562  67.614  1.00  0.00    -0.170 C  
HETATM    7  C   UNL     1      -6.551  15.053  67.914  1.00  0.00    -0.158 C  
HETATM    8  N   UNL     1      -7.880  14.436  67.838  1.00  0.00    -0.135 NA 
HETATM    9  C   UNL     1      -8.965  15.218  68.459  1.00  0.00    -0.187 C  
HETATM   10  C   UNL     1      -8.694  16.632  69.006  1.00  0.00    -0.193 C  
ENDROOT
BRANCH   8  11
HETATM   11  C   UNL     1      -7.837  13.031  68.317  1.00  0.00    -0.143 C  
BRANCH  11  12
HETATM   12  C   UNL     1      -8.492  11.902  67.454  1.00  0.00    -0.166 C  
HETATM   13  H   UNL     1      -7.942  10.175  66.627  1.00  0.00     0.000 HD 
HETATM   14  O   UNL     1      -7.545  10.860  67.151  1.00  0.00    -0.100 OA 
BRANCH  12  15
HETATM   15  C   UNL     1      -9.792  11.309  68.061  1.00  0.00    -0.178 C  
BRANCH  15  16
HETATM   16  N   UNL     1      -9.626   9.948  68.587  1.00  0.00    -0.152 N  
HETATM   17  C   UNL     1     -10.283   8.854  68.073  1.00  0.00    -0.213 C  
HETATM   18  O   UNL     1     -11.077   8.897  67.140  1.00  0.00     0.033 OA 
HETATM   19  H   UNL     1      -8.992   9.808  69.373  1.00  0.00     0.000 HD 
BRANCH  17  20
HETATM   20  C   UNL     1     -10.033   7.557  68.745  1.00  0.00    -0.175 A  
HETATM   21  C   UNL     1      -9.339   6.571  68.020  1.00  0.00    -0.108 A  
HETATM   22  H   UNL     1     -10.680   4.733  72.111  1.00  0.00     0.000 HD 
HETATM   23  C   UNL     1     -10.529   7.293  70.040  1.00  0.00    -0.234 A  
HETATM   24  C   UNL     1     -10.329   6.003  70.550  1.00  0.00    -0.221 A  
HETATM   25  C   UNL     1      -9.115   5.319  68.576  1.00  0.00    -0.127 A  
HETATM   26  C   UNL     1     -11.242   8.324  70.880  1.00  0.00    -0.292 C  
HETATM   27  O   UNL     1     -10.816   5.607  71.766  1.00  0.00    -0.244 OA 
HETATM   28  C   UNL     1      -9.617   5.035  69.842  1.00  0.00    -0.246 A  
ENDBRANCH  17  20
ENDBRANCH  15  16
BRANCH  15  29
HETATM   29  C   UNL     1     -10.491  12.265  69.074  1.00  0.00    -0.015 C  
BRANCH  29  30
HETATM   30  S   UNL     1     -12.088  11.676  69.750  1.00  0.00    -0.261 SA 
BRANCH  30  31
HETATM   31  C   UNL     1     -12.735  13.079  70.629  1.00  0.00    -0.100 A  
HETATM   32  C   UNL     1     -13.806  13.872  72.663  1.00  0.00    -0.515 A  
HETATM   33  C   UNL     1     -13.378  12.824  71.848  1.00  0.00    -0.510 A  
HETATM   34  C   UNL     1     -12.961  15.454  71.052  1.00  0.00    -0.556 A  
HETATM   35  C   UNL     1     -13.590  15.189  72.267  1.00  0.00    -0.566 A  
HETATM   36  C   UNL     1     -12.534  14.403  70.234  1.00  0.00    -0.413 A  
ENDBRANCH  30  31
ENDBRANCH  29  30
ENDBRANCH  15  29
ENDBRANCH  12  15
ENDBRANCH  11  12
ENDBRANCH   8  11
BRANCH   9  37
HETATM   37  C   UNL     1     -10.168  15.295  67.467  1.00  0.00    -0.239 C  
HETATM   38  C   UNL     1     -11.072  15.597  64.470  1.00  0.00    -0.303 C  
HETATM   39  O   UNL     1     -11.146  16.023  67.625  1.00  0.00    -0.317 OA 
HETATM   40  C   UNL     1     -10.546  13.164  64.388  1.00  0.00    -0.441 C  
HETATM   41  C   UNL     1     -11.022  14.307  65.301  1.00  0.00    -0.343 C  
HETATM   42  N   UNL     1     -10.053  14.419  66.400  1.00  0.00    -0.276 N  
HETATM   43  C   UNL     1     -12.428  13.965  65.816  1.00  0.00    -0.530 C  
HETATM   44  H   UNL     1      -9.237  13.808  66.376  1.00  0.00     0.000 HD 
ENDBRANCH   9  37
TORSDOF 9
ENDMDL
MODEL      107
REMARK 921   NORMALIZED FREE ENERGY PREDICTED BY IDOCK:   -5.49 KCAL/MOL
REMARK 922        TOTAL FREE ENERGY PREDICTED BY IDOCK:  -11.21 KCAL/MOL
REMARK 923 INTER-LIGAND FREE ENERGY PREDICTED BY IDOCK:   -9.61 KCAL/MOL
REMARK 924 INTRA-LIGAND FREE ENERGY PREDICTED BY IDOCK:   -1.60 KCAL/MOL
REMARK 927      BINDING AFFINITY PREDICTED BY RF-SCORE:    0.00 PKD
ROOT
HETATM    1  C   UNL     1     -10.750  18.060  67.126  1.00  0.00    -0.276 C  
HETATM    2  C   UNL     1     -11.024  19.496  66.668  1.00  0.00    -0.370 C  
HETATM    3  C   UNL     1      -9.848  20.419  66.961  1.00  0.00    -0.594 C  
HETATM    4  C   UNL     1      -9.516  20.423  68.447  1.00  0.00    -0.006 C  
HETATM    5  C   UNL     1      -9.278  19.022  69.010  1.00  0.00    -0.262 C  
HETATM    6  C   UNL     1     -10.343  17.992  68.600  1.00  0.00    -0.328 C  
HETATM    7  C   UNL     1      -9.943  16.545  68.936  1.00  0.00    -0.262 C  
HETATM    8  N   UNL     1      -8.758  16.063  68.219  1.00  0.00    -0.173 NA 
HETATM    9  C   UNL     1      -8.710  16.419  66.789  1.00  0.00    -0.226 C  
HETATM   10  C   UNL     1      -9.779  17.346  66.178  1.00  0.00    -0.235 C  
ENDROOT
BRANCH   8  11
HETATM   11  C   UNL     1      -8.550  14.612  68.457  1.00  0.00    -0.170 C  
BRANCH  11  12
HETATM   12  C   UNL     1      -8.288  13.661  67.243  1.00  0.00    -0.171 C  
HETATM   13  H   UNL     1      -6.726  12.788  66.366  1.00  0.00     0.000 HD 
HETATM   14  O   UNL     1      -6.885  13.366  67.103  1.00  0.00    -0.129 OA 
BRANCH  12  15
HETATM   15  C   UNL     1      -9.129  12.356  67.263  1.00  0.00    -0.187 C  
BRANCH  15  16
HETATM   16  N   UNL     1      -8.969  11.575  68.496  1.00  0.00    -0.220 N  
HETATM   17  C   UNL     1      -8.553  10.264  68.512  1.00  0.00    -0.126 C  
HETATM   18  O   UNL     1      -8.286   9.610  67.510  1.00  0.00    -0.117 OA 
HETATM   19  H   UNL     1      -9.178  12.028  69.386  1.00  0.00     0.000 HD 
BRANCH  17  20
HETATM   20  C   UNL     1      -8.482   9.609  69.839  1.00  0.00    -0.211 A  
HETATM   21  C   UNL     1      -9.662   9.035  70.346  1.00  0.00    -0.245 A  
HETATM   22  H   UNL     1      -6.323   8.688  73.610  1.00  0.00     0.000 HD 
HETATM   23  C   UNL     1      -7.291   9.617  70.599  1.00  0.00    -0.112 A  
HETATM   24  C   UNL     1      -7.351   9.061  71.885  1.00  0.00     0.155 A  
HETATM   25  C   UNL     1      -9.671   8.448  71.604  1.00  0.00    -0.287 A  
HETATM   26  C   UNL     1      -5.988  10.179  70.090  1.00  0.00    -0.066 C  
HETATM   27  O   UNL     1      -6.283   9.064  72.739  1.00  0.00    -0.257 OA 
HETATM   28  C   UNL     1      -8.514   8.468  72.375  1.00  0.00    -0.196 A  
ENDBRANCH  17  20
ENDBRANCH  15  16
BRANCH  15  29
HETATM   29  C   UNL     1     -10.623  12.580  66.882  1.00  0.00    -0.236 C  
BRANCH  29  30
HETATM   30  S   UNL     1     -11.493  13.895  67.814  1.00  0.00    -0.343 SA 
BRANCH  30  31
HETATM   31  C   UNL     1     -11.950  13.117  69.346  1.00  0.00    -0.291 A  
HETATM   32  C   UNL     1     -12.812  13.435  71.597  1.00  0.00    -0.414 A  
HETATM   33  C   UNL     1     -12.321  13.961  70.401  1.00  0.00    -0.433 A  
HETATM   34  C   UNL     1     -12.562  11.208  70.707  1.00  0.00    -0.445 A  
HETATM   35  C   UNL     1     -12.939  12.057  71.747  1.00  0.00    -0.445 A  
HETATM   36  C   UNL     1     -12.069  11.736  69.510  1.00  0.00    -0.314 A  
ENDBRANCH  30  31
ENDBRANCH  29  30
ENDBRANCH  15  29
ENDBRANCH  12  15
ENDBRANCH  11  12
ENDBRANCH   8  11
BRANCH   9  37
HETATM   37  C   UNL     1      -7.301  17.004  66.456  1.00  0.00    -0.285 C  
HETATM   38  C   UNL     1      -5.520  18.491  64.333  1.00  0.00    -0.120 C  
HETATM   39  O   UNL     1      -6.246  16.394  66.617  1.00  0.00    -0.303 OA 
HETATM   40  C   UNL     1      -6.671  20.507  65.233  1.00  0.00    -0.266 C  
HETATM   41  C   UNL     1      -6.175  19.094  65.583  1.00  0.00    -0.224 C  
HETATM   42  N   UNL     1      -7.347  18.312  66.001  1.00  0.00    -0.262 N  
HETATM   43  C   UNL     1      -5.137  19.207  66.710  1.00  0.00    -0.154 C  
HETATM   44  H   UNL     1      -8.259  18.764  65.953  1.00  0.00     0.000 HD 
ENDBRANCH   9  37
TORSDOF 9
ENDMDL
MODEL      108
REMARK 921   NORMALIZED FREE ENERGY PREDICTED BY IDOCK:   -5.48 KCAL/MOL
REMARK 922        TOTAL FREE ENERGY PREDICTED BY IDOCK:  -11.20 KCAL/MOL
REMARK 923 INTER-LIGAND FREE ENERGY PREDICTED BY IDOCK:   -9.29 KCAL/MOL
REMARK 924 INTRA-LIGAND FREE ENERGY PREDICTED BY IDOCK:   -1.92 KCAL/MOL
REMARK 927      BINDING AFFINITY PREDICTED BY RF-SCORE:    0.00 PKD
ROOT
HETATM    1  C   UNL     1      -6.984   8.494  64.550  1.00  0.00    -0.073 C  
HETATM    2  C   UNL     1      -6.282   7.167  64.243  1.00  0.00    -0.037 C  
HETATM    3  C   UNL     1      -6.142   6.298  65.487  1.00  0.00    -0.030 C  
HETATM    4  C   UNL     1      -5.373   7.030  66.579  1.00  0.00    -0.022 C  
HETATM    5  C   UNL     1      -5.971   8.395  66.917  1.00  0.00    -0.053 C  
HETATM    6  C   UNL     1      -6.304   9.257  65.689  1.00  0.00    -0.067 C  
HETATM    7  C   UNL     1      -7.152  10.493  66.032  1.00  0.00    -0.137 C  
HETATM    8  N   UNL     1      -8.485  10.185  66.559  1.00  0.00    -0.126 NA 
HETATM    9  C   UNL     1      -9.197   9.102  65.855  1.00  0.00    -0.227 C  
HETATM   10  C   UNL     1      -8.493   8.296  64.747  1.00  0.00    -0.089 C  
ENDROOT
BRANCH   8  11
HETATM   11  C   UNL     1      -9.301  11.419  66.690  1.00  0.00    -0.185 C  
BRANCH  11  12
HETATM   12  C   UNL     1     -10.122  11.666  67.999  1.00  0.00    -0.189 C  
HETATM   13  H   UNL     1     -10.116  11.021  69.884  1.00  0.00     0.000 HD 
HETATM   14  O   UNL     1      -9.618  10.871  69.089  1.00  0.00    -0.186 OA 
BRANCH  12  15
HETATM   15  C   UNL     1     -10.233  13.159  68.408  1.00  0.00    -0.247 C  
BRANCH  15  16
HETATM   16  N   UNL     1      -9.225  14.017  67.772  1.00  0.00    -0.188 N  
HETATM   17  C   UNL     1      -8.449  14.916  68.469  1.00  0.00    -0.163 C  
HETATM   18  O   UNL     1      -8.523  15.104  69.678  1.00  0.00    -0.204 OA 
HETATM   19  H   UNL     1      -9.093  13.944  66.764  1.00  0.00     0.000 HD 
BRANCH  17  20
HETATM   20  C   UNL     1      -7.506  15.733  67.670  1.00  0.00    -0.180 A  
HETATM   21  C   UNL     1      -6.130  15.505  67.854  1.00  0.00    -0.163 A  
HETATM   22  H   UNL     1      -6.654  19.123  64.930  1.00  0.00     0.000 HD 
HETATM   23  C   UNL     1      -7.966  16.750  66.805  1.00  0.00    -0.275 A  
HETATM   24  C   UNL     1      -6.993  17.537  66.171  1.00  0.00    -0.288 A  
HETATM   25  C   UNL     1      -5.195  16.271  67.171  1.00  0.00    -0.024 A  
HETATM   26  C   UNL     1      -9.426  17.012  66.536  1.00  0.00    -0.295 C  
HETATM   27  O   UNL     1      -7.313  18.590  65.359  1.00  0.00    -0.516 OA 
HETATM   28  C   UNL     1      -5.630  17.292  66.333  1.00  0.00    -0.208 A  
ENDBRANCH  17  20
ENDBRANCH  15  16
BRANCH  15  29
HETATM   29  C   UNL     1     -11.677  13.729  68.275  1.00  0.00    -0.359 C  
BRANCH  29  30
HETATM   30  S   UNL     1     -11.947  15.389  69.000  1.00  0.00    -0.237 SA 
BRANCH  30  31
HETATM   31  C   UNL     1     -12.306  15.066  70.711  1.00  0.00    -0.343 A  
HETATM   32  C   UNL     1     -12.193  15.899  72.993  1.00  0.00    -0.609 A  
HETATM   33  C   UNL     1     -11.851  16.007  71.645  1.00  0.00    -0.582 A  
HETATM   34  C   UNL     1     -13.447  13.899  72.502  1.00  0.00    -0.676 A  
HETATM   35  C   UNL     1     -12.998  14.846  73.420  1.00  0.00    -0.597 A  
HETATM   36  C   UNL     1     -13.102  14.007  71.151  1.00  0.00    -0.373 A  
ENDBRANCH  30  31
ENDBRANCH  29  30
ENDBRANCH  15  29
ENDBRANCH  12  15
ENDBRANCH  11  12
ENDBRANCH   8  11
BRANCH   9  37
HETATM   37  C   UNL     1      -9.767   8.099  66.908  1.00  0.00    -0.226 C  
HETATM   38  C   UNL     1      -9.120   5.778  68.929  1.00  0.00    -0.121 C  
HETATM   39  O   UNL     1     -10.752   7.389  66.720  1.00  0.00    -0.319 OA 
HETATM   40  C   UNL     1      -8.428   7.666  70.398  1.00  0.00    -0.136 C  
HETATM   41  C   UNL     1      -9.377   7.255  69.260  1.00  0.00    -0.154 C  
HETATM   42  N   UNL     1      -9.078   8.119  68.110  1.00  0.00    -0.135 N  
HETATM   43  C   UNL     1     -10.824   7.434  69.743  1.00  0.00    -0.246 C  
HETATM   44  H   UNL     1      -8.308   8.781  68.203  1.00  0.00     0.000 HD 
ENDBRANCH   9  37
TORSDOF 9
ENDMDL
MODEL      109
REMARK 921   NORMALIZED FREE ENERGY PREDICTED BY IDOCK:   -5.48 KCAL/MOL
REMARK 922        TOTAL FREE ENERGY PREDICTED BY IDOCK:  -11.19 KCAL/MOL
REMARK 923 INTER-LIGAND FREE ENERGY PREDICTED BY IDOCK:   -9.00 KCAL/MOL
REMARK 924 INTRA-LIGAND FREE ENERGY PREDICTED BY IDOCK:   -2.19 KCAL/MOL
REMARK 927      BINDING AFFINITY PREDICTED BY RF-SCORE:    0.00 PKD
ROOT
HETATM    1  C   UNL     1      -8.100   4.688  68.114  1.00  0.00    -0.088 C  
HETATM    2  C   UNL     1      -7.219   3.672  67.380  1.00  0.00    -0.059 C  
HETATM    3  C   UNL     1      -7.483   3.672  65.879  1.00  0.00    -0.077 C  
HETATM    4  C   UNL     1      -8.946   3.371  65.584  1.00  0.00    -0.142 C  
HETATM    5  C   UNL     1      -9.908   4.304  66.319  1.00  0.00    -0.234 C  
HETATM    6  C   UNL     1      -9.586   4.489  67.810  1.00  0.00    -0.208 C  
HETATM    7  C   UNL     1     -10.382   5.634  68.461  1.00  0.00    -0.199 C  
HETATM    8  N   UNL     1     -10.084   6.963  67.916  1.00  0.00    -0.154 NA 
HETATM    9  C   UNL     1      -8.652   7.234  67.687  1.00  0.00    -0.126 C  
HETATM   10  C   UNL     1      -7.604   6.123  67.890  1.00  0.00    -0.101 C  
ENDROOT
BRANCH   8  11
HETATM   11  C   UNL     1     -10.749   8.023  68.716  1.00  0.00    -0.045 C  
BRANCH  11  12
HETATM   12  C   UNL     1      -9.895   8.913  69.679  1.00  0.00    -0.180 C  
HETATM   13  H   UNL     1      -8.199   8.755  70.713  1.00  0.00     0.000 HD 
HETATM   14  O   UNL     1      -8.717   8.215  70.129  1.00  0.00    -0.127 OA 
BRANCH  12  15
HETATM   15  C   UNL     1      -9.527  10.305  69.101  1.00  0.00    -0.215 C  
BRANCH  15  16
HETATM   16  N   UNL     1     -10.290  11.408  69.699  1.00  0.00    -0.400 N  
HETATM   17  C   UNL     1     -11.508  11.832  69.220  1.00  0.00    -0.306 C  
HETATM   18  O   UNL     1     -12.075  11.350  68.246  1.00  0.00    -0.606 OA 
HETATM   19  H   UNL     1      -9.897  11.884  70.512  1.00  0.00     0.000 HD 
BRANCH  17  20
HETATM   20  C   UNL     1     -12.128  12.984  69.916  1.00  0.00    -0.347 A  
HETATM   21  C   UNL     1     -11.856  14.270  69.415  1.00  0.00    -0.372 A  
HETATM   22  H   UNL     1     -14.390  14.708  73.327  1.00  0.00     0.000 HD 
HETATM   23  C   UNL     1     -12.909  12.806  71.079  1.00  0.00    -0.262 A  
HETATM   24  C   UNL     1     -13.367  13.964  71.723  1.00  0.00    -0.381 A  
HETATM   25  C   UNL     1     -12.368  15.393  70.051  1.00  0.00    -0.368 A  
HETATM   26  C   UNL     1     -13.268  11.452  71.636  1.00  0.00    -0.413 C  
HETATM   27  O   UNL     1     -14.080  13.924  72.890  1.00  0.00    -0.573 OA 
HETATM   28  C   UNL     1     -13.120  15.237  71.211  1.00  0.00    -0.540 A  
ENDBRANCH  17  20
ENDBRANCH  15  16
BRANCH  15  29
HETATM   29  C   UNL     1      -7.993  10.579  69.078  1.00  0.00    -0.136 C  
BRANCH  29  30
HETATM   30  S   UNL     1      -7.324  11.224  67.501  1.00  0.00    -0.112 SA 
BRANCH  30  31
HETATM   31  C   UNL     1      -8.602  12.297  66.889  1.00  0.00    -0.182 A  
HETATM   32  C   UNL     1      -9.471  14.566  66.810  1.00  0.00    -0.284 A  
HETATM   33  C   UNL     1      -8.583  13.626  67.333  1.00  0.00    -0.212 A  
HETATM   34  C   UNL     1     -10.422  12.863  65.392  1.00  0.00    -0.308 A  
HETATM   35  C   UNL     1     -10.387  14.185  65.833  1.00  0.00    -0.326 A  
HETATM   36  C   UNL     1      -9.532  11.921  65.918  1.00  0.00    -0.227 A  
ENDBRANCH  30  31
ENDBRANCH  29  30
ENDBRANCH  15  29
ENDBRANCH  12  15
ENDBRANCH  11  12
ENDBRANCH   8  11
BRANCH   9  37
HETATM   37  C   UNL     1      -8.470   7.829  66.256  1.00  0.00    -0.141 C  
HETATM   38  C   UNL     1      -6.519   9.261  64.247  1.00  0.00    -0.086 C  
HETATM   39  O   UNL     1      -9.262   8.606  65.726  1.00  0.00    -0.212 OA 
HETATM   40  C   UNL     1      -5.660   6.948  63.912  1.00  0.00    -0.032 C  
HETATM   41  C   UNL     1      -6.907   7.776  64.268  1.00  0.00    -0.056 C  
HETATM   42  N   UNL     1      -7.340   7.357  65.608  1.00  0.00    -0.072 N  
HETATM   43  C   UNL     1      -7.989   7.507  63.212  1.00  0.00    -0.093 C  
HETATM   44  H   UNL     1      -6.767   6.670  66.097  1.00  0.00     0.000 HD 
ENDBRANCH   9  37
TORSDOF 9
ENDMDL
MODEL      110
REMARK 921   NORMALIZED FREE ENERGY PREDICTED BY IDOCK:   -5.45 KCAL/MOL
REMARK 922        TOTAL FREE ENERGY PREDICTED BY IDOCK:  -11.15 KCAL/MOL
REMARK 923 INTER-LIGAND FREE ENERGY PREDICTED BY IDOCK:   -9.40 KCAL/MOL
REMARK 924 INTRA-LIGAND FREE ENERGY PREDICTED BY IDOCK:   -1.75 KCAL/MOL
REMARK 927      BINDING AFFINITY PREDICTED BY RF-SCORE:    0.00 PKD
ROOT
HETATM    1  C   UNL     1      -5.599  17.495  68.693  1.00  0.00    -0.158 C  
HETATM    2  C   UNL     1      -5.126  18.931  68.444  1.00  0.00    -0.181 C  
HETATM    3  C   UNL     1      -5.829  19.560  67.247  1.00  0.00    -0.183 C  
HETATM    4  C   UNL     1      -5.603  18.734  65.988  1.00  0.00    -0.192 C  
HETATM    5  C   UNL     1      -5.996  17.267  66.158  1.00  0.00    -0.086 C  
HETATM    6  C   UNL     1      -5.464  16.619  67.446  1.00  0.00    -0.170 C  
HETATM    7  C   UNL     1      -6.094  15.246  67.736  1.00  0.00    -0.149 C  
HETATM    8  N   UNL     1      -7.539  15.285  67.987  1.00  0.00    -0.118 NA 
HETATM    9  C   UNL     1      -7.988  16.387  68.858  1.00  0.00    -0.236 C  
HETATM   10  C   UNL     1      -6.995  17.467  69.327  1.00  0.00    -0.172 C  
ENDROOT
BRANCH   8  11
HETATM   11  C   UNL     1      -8.033  13.958  68.437  1.00  0.00    -0.144 C  
BRANCH  11  12
HETATM   12  C   UNL     1      -8.291  12.833  67.380  1.00  0.00    -0.189 C  
HETATM   13  H   UNL     1      -7.331  11.244  66.658  1.00  0.00     0.000 HD 
HETATM   14  O   UNL     1      -7.175  11.926  67.299  1.00  0.00    -0.127 OA 
BRANCH  12  15
HETATM   15  C   UNL     1      -9.620  12.059  67.586  1.00  0.00    -0.188 C  
BRANCH  15  16
HETATM   16  N   UNL     1      -9.436  10.721  68.163  1.00  0.00    -0.153 N  
HETATM   17  C   UNL     1      -9.746   9.560  67.493  1.00  0.00    -0.155 C  
HETATM   18  O   UNL     1     -10.215   9.517  66.362  1.00  0.00    -0.264 OA 
HETATM   19  H   UNL     1      -9.059  10.650  69.108  1.00  0.00     0.000 HD 
BRANCH  17  20
HETATM   20  C   UNL     1      -9.536   8.294  68.233  1.00  0.00    -0.146 A  
HETATM   21  C   UNL     1     -10.549   7.880  69.117  1.00  0.00    -0.184 A  
HETATM   22  H   UNL     1      -6.950   4.910  69.496  1.00  0.00     0.000 HD 
HETATM   23  C   UNL     1      -8.335   7.561  68.109  1.00  0.00    -0.125 A  
HETATM   24  C   UNL     1      -8.189   6.431  68.927  1.00  0.00    -0.118 A  
HETATM   25  C   UNL     1     -10.391   6.728  69.875  1.00  0.00    -0.229 A  
HETATM   26  C   UNL     1      -7.234   7.932  67.148  1.00  0.00    -0.090 C  
HETATM   27  O   UNL     1      -7.049   5.675  68.942  1.00  0.00    -0.065 OA 
HETATM   28  C   UNL     1      -9.205   6.007  69.782  1.00  0.00    -0.153 A  
ENDBRANCH  17  20
ENDBRANCH  15  16
BRANCH  15  29
HETATM   29  C   UNL     1     -10.709  12.889  68.329  1.00  0.00    -0.244 C  
BRANCH  29  30
HETATM   30  S   UNL     1     -11.590  12.019  69.678  1.00  0.00    -0.276 SA 
BRANCH  30  31
HETATM   31  C   UNL     1     -12.289  13.326  70.659  1.00  0.00    -0.339 A  
HETATM   32  C   UNL     1     -12.712  15.713  70.841  1.00  0.00    -0.500 A  
HETATM   33  C   UNL     1     -12.095  14.637  70.204  1.00  0.00    -0.385 A  
HETATM   34  C   UNL     1     -13.725  14.188  72.411  1.00  0.00    -0.645 A  
HETATM   35  C   UNL     1     -13.534  15.487  71.943  1.00  0.00    -0.576 A  
HETATM   36  C   UNL     1     -13.105  13.110  71.772  1.00  0.00    -0.478 A  
ENDBRANCH  30  31
ENDBRANCH  29  30
ENDBRANCH  15  29
ENDBRANCH  12  15
ENDBRANCH  11  12
ENDBRANCH   8  11
BRANCH   9  37
HETATM   37  C   UNL     1      -9.210  17.095  68.192  1.00  0.00    -0.261 C  
HETATM   38  C   UNL     1     -10.782  19.793  67.811  1.00  0.00    -0.420 C  
HETATM   39  O   UNL     1     -10.361  16.664  68.229  1.00  0.00    -0.273 OA 
HETATM   40  C   UNL     1      -9.002  20.234  66.126  1.00  0.00    -0.199 C  
HETATM   41  C   UNL     1      -9.819  19.129  66.817  1.00  0.00    -0.342 C  
HETATM   42  N   UNL     1      -8.866  18.248  67.505  1.00  0.00    -0.252 N  
HETATM   43  C   UNL     1     -10.619  18.372  65.746  1.00  0.00    -0.236 C  
HETATM   44  H   UNL     1      -7.879  18.503  67.476  1.00  0.00     0.000 HD 
ENDBRANCH   9  37
TORSDOF 9
ENDMDL
MODEL      111
REMARK 921   NORMALIZED FREE ENERGY PREDICTED BY IDOCK:   -5.42 KCAL/MOL
REMARK 922        TOTAL FREE ENERGY PREDICTED BY IDOCK:  -11.11 KCAL/MOL
REMARK 923 INTER-LIGAND FREE ENERGY PREDICTED BY IDOCK:   -8.73 KCAL/MOL
REMARK 924 INTRA-LIGAND FREE ENERGY PREDICTED BY IDOCK:   -2.38 KCAL/MOL
REMARK 927      BINDING AFFINITY PREDICTED BY RF-SCORE:    0.00 PKD
ROOT
HETATM    1  C   UNL     1     -10.167  13.934  65.893  1.00  0.00    -0.326 C  
HETATM    2  C   UNL     1     -11.251  14.803  65.246  1.00  0.00    -0.366 C  
HETATM    3  C   UNL     1     -12.638  14.194  65.409  1.00  0.00    -0.485 C  
HETATM    4  C   UNL     1     -12.693  12.796  64.808  1.00  0.00    -0.469 C  
HETATM    5  C   UNL     1     -11.610  11.868  65.355  1.00  0.00    -0.284 C  
HETATM    6  C   UNL     1     -10.205  12.491  65.384  1.00  0.00    -0.303 C  
HETATM    7  C   UNL     1      -9.192  11.657  66.187  1.00  0.00    -0.219 C  
HETATM    8  N   UNL     1      -9.504  11.538  67.615  1.00  0.00    -0.165 NA 
HETATM    9  C   UNL     1      -9.952  12.786  68.260  1.00  0.00    -0.230 C  
HETATM   10  C   UNL     1     -10.190  14.057  67.422  1.00  0.00    -0.248 C  
ENDROOT
BRANCH   8  11
HETATM   11  C   UNL     1      -8.391  10.880  68.347  1.00  0.00    -0.136 C  
BRANCH  11  12
HETATM   12  C   UNL     1      -7.667   9.650  67.704  1.00  0.00    -0.095 C  
HETATM   13  H   UNL     1      -5.875   8.784  67.797  1.00  0.00     0.000 HD 
HETATM   14  O   UNL     1      -6.315   9.530  68.186  1.00  0.00    -0.056 OA 
BRANCH  12  15
HETATM   15  C   UNL     1      -8.432   8.309  67.859  1.00  0.00    -0.132 C  
BRANCH  15  16
HETATM   16  N   UNL     1      -8.945   8.080  69.216  1.00  0.00    -0.148 N  
HETATM   17  C   UNL     1      -8.416   7.145  70.076  1.00  0.00    -0.140 C  
HETATM   18  O   UNL     1      -7.479   6.404  69.803  1.00  0.00    -0.081 OA 
HETATM   19  H   UNL     1      -9.733   8.642  69.536  1.00  0.00     0.000 HD 
BRANCH  17  20
HETATM   20  C   UNL     1      -9.075   7.014  71.396  1.00  0.00    -0.147 A  
HETATM   21  C   UNL     1      -8.588   7.809  72.449  1.00  0.00    -0.176 A  
HETATM   22  H   UNL     1     -11.892   4.961  74.149  1.00  0.00     0.000 HD 
HETATM   23  C   UNL     1     -10.111   6.078  71.610  1.00  0.00    -0.227 A  
HETATM   24  C   UNL     1     -10.601   5.956  72.918  1.00  0.00    -0.235 A  
HETATM   25  C   UNL     1      -9.132   7.698  73.722  1.00  0.00    -0.332 A  
HETATM   26  C   UNL     1     -10.701   5.230  70.511  1.00  0.00    -0.208 C  
HETATM   27  O   UNL     1     -11.560   5.043  73.263  1.00  0.00    -0.322 OA 
HETATM   28  C   UNL     1     -10.137   6.764  73.955  1.00  0.00    -0.389 A  
ENDBRANCH  17  20
ENDBRANCH  15  16
BRANCH  15  29
HETATM   29  C   UNL     1      -9.515   8.086  66.761  1.00  0.00    -0.202 C  
BRANCH  29  30
HETATM   30  S   UNL     1     -10.626   6.654  67.019  1.00  0.00    -0.347 SA 
BRANCH  30  31
HETATM   31  C   UNL     1      -9.677   5.258  66.460  1.00  0.00    -0.167 A  
HETATM   32  C   UNL     1      -9.153   2.907  66.790  1.00  0.00    -0.171 A  
HETATM   33  C   UNL     1      -9.764   4.085  67.221  1.00  0.00    -0.199 A  
HETATM   34  C   UNL     1      -8.349   4.056  64.828  1.00  0.00    -0.102 A  
HETATM   35  C   UNL     1      -8.451   2.892  65.587  1.00  0.00    -0.103 A  
HETATM   36  C   UNL     1      -8.960   5.237  65.262  1.00  0.00    -0.130 A  
ENDBRANCH  30  31
ENDBRANCH  29  30
ENDBRANCH  15  29
ENDBRANCH  12  15
ENDBRANCH  11  12
ENDBRANCH   8  11
BRANCH   9  37
HETATM   37  C   UNL     1     -11.240  12.495  69.092  1.00  0.00    -0.239 C  
HETATM   38  C   UNL     1     -13.354  10.340  69.975  1.00  0.00     0.580 C  
HETATM   39  O   UNL     1     -12.258  13.183  69.050  1.00  0.00    -0.247 OA 
HETATM   40  C   UNL     1     -11.583   9.721  71.612  1.00  0.00    -0.345 C  
HETATM   41  C   UNL     1     -12.179  10.883  70.800  1.00  0.00    -0.383 C  
HETATM   42  N   UNL     1     -11.112  11.401  69.933  1.00  0.00    -0.474 N  
HETATM   43  C   UNL     1     -12.683  11.953  71.780  1.00  0.00    -0.287 C  
HETATM   44  H   UNL     1     -10.213  10.921  69.949  1.00  0.00     0.000 HD 
ENDBRANCH   9  37
TORSDOF 9
ENDMDL
MODEL      112
REMARK 921   NORMALIZED FREE ENERGY PREDICTED BY IDOCK:   -5.41 KCAL/MOL
REMARK 922        TOTAL FREE ENERGY PREDICTED BY IDOCK:  -11.09 KCAL/MOL
REMARK 923 INTER-LIGAND FREE ENERGY PREDICTED BY IDOCK:   -9.59 KCAL/MOL
REMARK 924 INTRA-LIGAND FREE ENERGY PREDICTED BY IDOCK:   -1.50 KCAL/MOL
REMARK 927      BINDING AFFINITY PREDICTED BY RF-SCORE:    0.00 PKD
ROOT
HETATM    1  C   UNL     1      -8.625   9.468  65.692  1.00  0.00    -0.154 C  
HETATM    2  C   UNL     1      -7.741   8.241  65.937  1.00  0.00    -0.087 C  
HETATM    3  C   UNL     1      -7.256   8.169  67.380  1.00  0.00    -0.088 C  
HETATM    4  C   UNL     1      -6.484   9.426  67.757  1.00  0.00    -0.059 C  
HETATM    5  C   UNL     1      -7.269  10.711  67.496  1.00  0.00    -0.090 C  
HETATM    6  C   UNL     1      -7.937  10.768  66.113  1.00  0.00    -0.157 C  
HETATM    7  C   UNL     1      -8.941  11.926  65.976  1.00  0.00    -0.066 C  
HETATM    8  N   UNL     1     -10.099  11.831  66.872  1.00  0.00    -0.205 NA 
HETATM    9  C   UNL     1     -10.692  10.486  66.981  1.00  0.00    -0.250 C  
HETATM   10  C   UNL     1     -10.023   9.279  66.295  1.00  0.00    -0.357 C  
ENDROOT
BRANCH   8  11
HETATM   11  C   UNL     1     -11.103  12.878  66.551  1.00  0.00    -0.286 C  
BRANCH  11  12
HETATM   12  C   UNL     1     -10.642  14.364  66.387  1.00  0.00    -0.297 C  
HETATM   13  H   UNL     1     -11.361  16.052  65.609  1.00  0.00     0.000 HD 
HETATM   14  O   UNL     1     -11.640  15.149  65.709  1.00  0.00    -0.246 OA 
BRANCH  12  15
HETATM   15  C   UNL     1     -10.206  15.046  67.712  1.00  0.00    -0.236 C  
BRANCH  15  16
HETATM   16  N   UNL     1      -9.074  15.967  67.553  1.00  0.00    -0.198 N  
HETATM   17  C   UNL     1      -9.171  17.181  66.914  1.00  0.00    -0.241 C  
HETATM   18  O   UNL     1     -10.197  17.615  66.404  1.00  0.00    -0.341 OA 
HETATM   19  H   UNL     1      -8.169  15.692  67.935  1.00  0.00     0.000 HD 
BRANCH  17  20
HETATM   20  C   UNL     1      -7.923  17.973  66.805  1.00  0.00    -0.261 A  
HETATM   21  C   UNL     1      -7.134  17.790  65.655  1.00  0.00    -0.039 A  
HETATM   22  H   UNL     1      -4.876  20.689  68.556  1.00  0.00     0.000 HD 
HETATM   23  C   UNL     1      -7.505  18.831  67.845  1.00  0.00    -0.262 A  
HETATM   24  C   UNL     1      -6.260  19.459  67.693  1.00  0.00    -0.203 A  
HETATM   25  C   UNL     1      -5.930  18.467  65.516  1.00  0.00    -0.272 A  
HETATM   26  C   UNL     1      -8.329  19.099  69.080  1.00  0.00    -0.244 C  
HETATM   27  O   UNL     1      -5.719  20.264  68.658  1.00  0.00    -0.236 OA 
HETATM   28  C   UNL     1      -5.492  19.298  66.542  1.00  0.00    -0.162 A  
ENDBRANCH  17  20
ENDBRANCH  15  16
BRANCH  15  29
HETATM   29  C   UNL     1     -11.392  15.681  68.498  1.00  0.00    -0.360 C  
BRANCH  29  30
HETATM   30  S   UNL     1     -10.972  16.397  70.130  1.00  0.00    -0.176 SA 
BRANCH  30  31
HETATM   31  C   UNL     1     -12.155  15.675  71.242  1.00  0.00    -0.411 A  
HETATM   32  C   UNL     1     -14.306  14.561  71.463  1.00  0.00    -0.501 A  
HETATM   33  C   UNL     1     -13.371  15.250  70.690  1.00  0.00    -0.320 A  
HETATM   34  C   UNL     1     -12.830  14.718  73.364  1.00  0.00    -0.597 A  
HETATM   35  C   UNL     1     -14.031  14.290  72.801  1.00  0.00    -0.222 A  
HETATM   36  C   UNL     1     -11.894  15.409  72.588  1.00  0.00    -0.567 A  
ENDBRANCH  30  31
ENDBRANCH  29  30
ENDBRANCH  15  29
ENDBRANCH  12  15
ENDBRANCH  11  12
ENDBRANCH   8  11
BRANCH   9  37
HETATM   37  C   UNL     1     -10.900  10.142  68.490  1.00  0.00    -0.237 C  
HETATM   38  C   UNL     1     -11.848   7.988  70.576  1.00  0.00    -0.017 C  
HETATM   39  O   UNL     1     -11.473  10.877  69.292  1.00  0.00    -0.252 OA 
HETATM   40  C   UNL     1      -9.571   7.058  70.188  1.00  0.00    -0.164 C  
HETATM   41  C   UNL     1     -10.403   8.351  70.206  1.00  0.00    -0.205 C  
HETATM   42  N   UNL     1     -10.329   8.935  68.859  1.00  0.00    -0.210 N  
HETATM   43  C   UNL     1      -9.816   9.294  71.266  1.00  0.00    -0.318 C  
HETATM   44  H   UNL     1      -9.821   8.414  68.145  1.00  0.00     0.000 HD 
ENDBRANCH   9  37
TORSDOF 9
ENDMDL
MODEL      113
REMARK 921   NORMALIZED FREE ENERGY PREDICTED BY IDOCK:   -5.41 KCAL/MOL
REMARK 922        TOTAL FREE ENERGY PREDICTED BY IDOCK:  -11.09 KCAL/MOL
REMARK 923 INTER-LIGAND FREE ENERGY PREDICTED BY IDOCK:   -9.37 KCAL/MOL
REMARK 924 INTRA-LIGAND FREE ENERGY PREDICTED BY IDOCK:   -1.73 KCAL/MOL
REMARK 927      BINDING AFFINITY PREDICTED BY RF-SCORE:    0.00 PKD
ROOT
HETATM    1  C   UNL     1     -10.488   8.500  72.531  1.00  0.00    -0.303 C  
HETATM    2  C   UNL     1     -10.333   7.462  73.647  1.00  0.00    -0.367 C  
HETATM    3  C   UNL     1     -10.466   6.038  73.121  1.00  0.00    -0.250 C  
HETATM    4  C   UNL     1     -11.810   5.836  72.432  1.00  0.00    -0.227 C  
HETATM    5  C   UNL     1     -12.079   6.864  71.334  1.00  0.00    -0.408 C  
HETATM    6  C   UNL     1     -11.790   8.316  71.749  1.00  0.00    -0.357 C  
HETATM    7  C   UNL     1     -11.796   9.295  70.562  1.00  0.00    -0.124 C  
HETATM    8  N   UNL     1     -10.747   9.046  69.568  1.00  0.00    -0.227 NA 
HETATM    9  C   UNL     1      -9.419   8.737  70.129  1.00  0.00    -0.169 C  
HETATM   10  C   UNL     1      -9.235   8.565  71.649  1.00  0.00    -0.304 C  
ENDROOT
BRANCH   8  11
HETATM   11  C   UNL     1     -10.705  10.135  68.559  1.00  0.00    -0.230 C  
BRANCH  11  12
HETATM   12  C   UNL     1      -9.756  11.359  68.784  1.00  0.00    -0.145 C  
HETATM   13  H   UNL     1      -7.869  11.852  68.377  1.00  0.00     0.000 HD 
HETATM   14  O   UNL     1      -8.446  11.110  68.240  1.00  0.00    -0.131 OA 
BRANCH  12  15
HETATM   15  C   UNL     1     -10.323  12.708  68.268  1.00  0.00    -0.241 C  
BRANCH  15  16
HETATM   16  N   UNL     1      -9.292  13.619  67.754  1.00  0.00    -0.209 N  
HETATM   17  C   UNL     1      -9.092  14.888  68.246  1.00  0.00    -0.179 C  
HETATM   18  O   UNL     1      -9.752  15.395  69.145  1.00  0.00    -0.220 OA 
HETATM   19  H   UNL     1      -8.694  13.294  66.995  1.00  0.00     0.000 HD 
BRANCH  17  20
HETATM   20  C   UNL     1      -8.034  15.692  67.590  1.00  0.00    -0.170 A  
HETATM   21  C   UNL     1      -6.700  15.432  67.951  1.00  0.00    -0.177 A  
HETATM   22  H   UNL     1      -6.756  19.090  65.030  1.00  0.00     0.000 HD 
HETATM   23  C   UNL     1      -8.353  16.728  66.684  1.00  0.00    -0.296 A  
HETATM   24  C   UNL     1      -7.289  17.499  66.195  1.00  0.00    -0.311 A  
HETATM   25  C   UNL     1      -5.666  16.183  67.407  1.00  0.00    -0.149 A  
HETATM   26  C   UNL     1      -9.760  17.025  66.228  1.00  0.00    -0.302 C  
HETATM   27  O   UNL     1      -7.476  18.567  65.361  1.00  0.00    -0.484 OA 
HETATM   28  C   UNL     1      -5.965  17.222  66.532  1.00  0.00    -0.244 A  
ENDBRANCH  17  20
ENDBRANCH  15  16
BRANCH  15  29
HETATM   29  C   UNL     1     -11.519  12.539  67.284  1.00  0.00    -0.353 C  
BRANCH  29  30
HETATM   30  S   UNL     1     -11.287  13.262  65.618  1.00  0.00    -0.310 SA 
BRANCH  30  31
HETATM   31  C   UNL     1     -10.593  11.938  64.658  1.00  0.00    -0.306 A  
HETATM   32  C   UNL     1     -10.006  11.142  62.436  1.00  0.00     0.235 A  
HETATM   33  C   UNL     1     -10.637  12.072  63.263  1.00  0.00    -0.399 A  
HETATM   34  C   UNL     1      -9.282   9.918  64.383  1.00  0.00    -0.317 A  
HETATM   35  C   UNL     1      -9.322  10.067  62.998  1.00  0.00    -0.297 A  
HETATM   36  C   UNL     1      -9.915  10.850  65.211  1.00  0.00    -0.330 A  
ENDBRANCH  30  31
ENDBRANCH  29  30
ENDBRANCH  15  29
ENDBRANCH  12  15
ENDBRANCH  11  12
ENDBRANCH   8  11
BRANCH   9  37
HETATM   37  C   UNL     1      -8.846   7.472  69.416  1.00  0.00    -0.136 C  
HETATM   38  C   UNL     1      -9.294   4.442  68.705  1.00  0.00    -0.206 C  
HETATM   39  O   UNL     1      -7.697   7.060  69.561  1.00  0.00    -0.102 OA 
HETATM   40  C   UNL     1     -10.725   5.394  66.904  1.00  0.00    -0.264 C  
HETATM   41  C   UNL     1      -9.489   5.652  67.781  1.00  0.00    -0.115 C  
HETATM   42  N   UNL     1      -9.751   6.875  68.554  1.00  0.00    -0.138 N  
HETATM   43  C   UNL     1      -8.266   5.811  66.866  1.00  0.00    -0.101 C  
HETATM   44  H   UNL     1     -10.664   7.315  68.448  1.00  0.00     0.000 HD 
ENDBRANCH   9  37
TORSDOF 9
ENDMDL
MODEL      114
REMARK 921   NORMALIZED FREE ENERGY PREDICTED BY IDOCK:   -5.39 KCAL/MOL
REMARK 922        TOTAL FREE ENERGY PREDICTED BY IDOCK:  -11.05 KCAL/MOL
REMARK 923 INTER-LIGAND FREE ENERGY PREDICTED BY IDOCK:   -9.25 KCAL/MOL
REMARK 924 INTRA-LIGAND FREE ENERGY PREDICTED BY IDOCK:   -1.80 KCAL/MOL
REMARK 927      BINDING AFFINITY PREDICTED BY RF-SCORE:    0.00 PKD
ROOT
HETATM    1  C   UNL     1     -10.131   8.209  72.523  1.00  0.00    -0.370 C  
HETATM    2  C   UNL     1      -9.968   7.242  73.700  1.00  0.00    -0.377 C  
HETATM    3  C   UNL     1     -10.235   5.799  73.289  1.00  0.00    -0.217 C  
HETATM    4  C   UNL     1     -11.634   5.648  72.708  1.00  0.00    -0.289 C  
HETATM    5  C   UNL     1     -11.910   6.615  71.557  1.00  0.00    -0.387 C  
HETATM    6  C   UNL     1     -11.494   8.067  71.844  1.00  0.00    -0.341 C  
HETATM    7  C   UNL     1     -11.518   8.959  70.591  1.00  0.00    -0.242 C  
HETATM    8  N   UNL     1     -10.562   8.567  69.550  1.00  0.00    -0.224 NA 
HETATM    9  C   UNL     1      -9.221   8.202  70.045  1.00  0.00    -0.155 C  
HETATM   10  C   UNL     1      -8.942   8.121  71.558  1.00  0.00    -0.201 C  
ENDROOT
BRANCH   8  11
HETATM   11  C   UNL     1     -10.518   9.578  68.464  1.00  0.00    -0.217 C  
BRANCH  11  12
HETATM   12  C   UNL     1     -10.222  11.074  68.814  1.00  0.00    -0.198 C  
HETATM   13  H   UNL     1      -8.644  12.290  68.866  1.00  0.00     0.000 HD 
HETATM   14  O   UNL     1      -8.824  11.382  68.653  1.00  0.00    -0.164 OA 
BRANCH  12  15
HETATM   15  C   UNL     1     -11.106  12.094  68.048  1.00  0.00    -0.244 C  
BRANCH  15  16
HETATM   16  N   UNL     1     -10.571  13.462  68.065  1.00  0.00    -0.237 N  
HETATM   17  C   UNL     1     -11.365  14.585  68.016  1.00  0.00    -0.306 C  
HETATM   18  O   UNL     1     -12.588  14.566  67.941  1.00  0.00     0.099 OA 
HETATM   19  H   UNL     1      -9.560  13.585  68.115  1.00  0.00     0.000 HD 
BRANCH  17  20
HETATM   20  C   UNL     1     -10.663  15.890  68.002  1.00  0.00    -0.301 A  
HETATM   21  C   UNL     1     -10.579  16.596  69.216  1.00  0.00    -0.343 A  
HETATM   22  H   UNL     1      -8.756  19.258  65.823  1.00  0.00     0.000 HD 
HETATM   23  C   UNL     1     -10.156  16.439  66.804  1.00  0.00    -0.287 A  
HETATM   24  C   UNL     1      -9.600  17.724  66.876  1.00  0.00    -0.288 A  
HETATM   25  C   UNL     1      -9.976  17.846  69.260  1.00  0.00    -0.107 A  
HETATM   26  C   UNL     1     -10.181  15.711  65.484  1.00  0.00    -0.414 C  
HETATM   27  O   UNL     1      -9.132  18.387  65.775  1.00  0.00    -0.432 OA 
HETATM   28  C   UNL     1      -9.492  18.412  68.084  1.00  0.00    -0.327 A  
ENDBRANCH  17  20
ENDBRANCH  15  16
BRANCH  15  29
HETATM   29  C   UNL     1     -11.497  11.619  66.617  1.00  0.00    -0.206 C  
BRANCH  29  30
HETATM   30  S   UNL     1     -10.474  12.284  65.251  1.00  0.00    -0.291 SA 
BRANCH  30  31
HETATM   31  C   UNL     1      -9.733  10.844  64.518  1.00  0.00    -0.282 A  
HETATM   32  C   UNL     1      -9.145   9.701  62.454  1.00  0.00    -0.290 A  
HETATM   33  C   UNL     1      -9.805  10.732  63.123  1.00  0.00    -0.378 A  
HETATM   34  C   UNL     1      -8.335   8.865  64.565  1.00  0.00    -0.178 A  
HETATM   35  C   UNL     1      -8.403   8.770  63.177  1.00  0.00    -0.167 A  
HETATM   36  C   UNL     1      -8.998   9.898  65.235  1.00  0.00    -0.228 A  
ENDBRANCH  30  31
ENDBRANCH  29  30
ENDBRANCH  15  29
ENDBRANCH  12  15
ENDBRANCH  11  12
ENDBRANCH   8  11
BRANCH   9  37
HETATM   37  C   UNL     1      -8.787   6.852  69.391  1.00  0.00    -0.136 C  
HETATM   38  C   UNL     1      -8.515   5.206  66.725  1.00  0.00    -0.106 C  
HETATM   39  O   UNL     1      -9.127   5.746  69.803  1.00  0.00    -0.133 OA 
HETATM   40  C   UNL     1      -6.433   6.548  66.470  1.00  0.00    -0.043 C  
HETATM   41  C   UNL     1      -7.396   5.922  67.494  1.00  0.00    -0.077 C  
HETATM   42  N   UNL     1      -7.931   7.018  68.314  1.00  0.00    -0.121 N  
HETATM   43  C   UNL     1      -6.615   4.908  68.341  1.00  0.00    -0.049 C  
HETATM   44  H   UNL     1      -7.652   7.969  68.074  1.00  0.00     0.000 HD 
ENDBRANCH   9  37
TORSDOF 9
ENDMDL
MODEL      115
REMARK 921   NORMALIZED FREE ENERGY PREDICTED BY IDOCK:   -5.38 KCAL/MOL
REMARK 922        TOTAL FREE ENERGY PREDICTED BY IDOCK:  -11.05 KCAL/MOL
REMARK 923 INTER-LIGAND FREE ENERGY PREDICTED BY IDOCK:   -9.05 KCAL/MOL
REMARK 924 INTRA-LIGAND FREE ENERGY PREDICTED BY IDOCK:   -2.00 KCAL/MOL
REMARK 927      BINDING AFFINITY PREDICTED BY RF-SCORE:    0.00 PKD
ROOT
HETATM    1  C   UNL     1      -8.887   3.957  66.198  1.00  0.00    -0.124 C  
HETATM    2  C   UNL     1      -8.594   2.539  65.698  1.00  0.00    -0.114 C  
HETATM    3  C   UNL     1      -7.619   1.806  66.611  1.00  0.00    -0.065 C  
HETATM    4  C   UNL     1      -6.309   2.572  66.735  1.00  0.00    -0.024 C  
HETATM    5  C   UNL     1      -6.505   4.022  67.178  1.00  0.00    -0.041 C  
HETATM    6  C   UNL     1      -7.608   4.769  66.411  1.00  0.00    -0.087 C  
HETATM    7  C   UNL     1      -7.979   6.118  67.051  1.00  0.00    -0.102 C  
HETATM    8  N   UNL     1      -8.559   6.011  68.394  1.00  0.00    -0.112 NA 
HETATM    9  C   UNL     1      -9.554   4.935  68.557  1.00  0.00    -0.152 C  
HETATM   10  C   UNL     1      -9.824   3.941  67.411  1.00  0.00    -0.078 C  
ENDROOT
BRANCH   8  11
HETATM   11  C   UNL     1      -9.056   7.330  68.862  1.00  0.00    -0.132 C  
BRANCH  11  12
HETATM   12  C   UNL     1      -9.355   8.456  67.817  1.00  0.00    -0.134 C  
HETATM   13  H   UNL     1     -10.798   8.918  66.524  1.00  0.00     0.000 HD 
HETATM   14  O   UNL     1     -10.617   8.235  67.158  1.00  0.00    -0.317 OA 
BRANCH  12  15
HETATM   15  C   UNL     1      -9.274   9.896  68.392  1.00  0.00    -0.130 C  
BRANCH  15  16
HETATM   16  N   UNL     1     -10.000  10.889  67.589  1.00  0.00    -0.170 N  
HETATM   17  C   UNL     1      -9.391  11.699  66.659  1.00  0.00    -0.194 C  
HETATM   18  O   UNL     1      -8.191  11.690  66.411  1.00  0.00    -0.146 OA 
HETATM   19  H   UNL     1     -11.006  10.982  67.728  1.00  0.00     0.000 HD 
BRANCH  17  20
HETATM   20  C   UNL     1     -10.261  12.675  65.961  1.00  0.00    -0.287 A  
HETATM   21  C   UNL     1     -10.524  13.894  66.612  1.00  0.00    -0.272 A  
HETATM   22  H   UNL     1     -13.040  13.748  62.666  1.00  0.00     0.000 HD 
HETATM   23  C   UNL     1     -10.861  12.369  64.720  1.00  0.00    -0.340 A  
HETATM   24  C   UNL     1     -11.749  13.315  64.189  1.00  0.00    -0.420 A  
HETATM   25  C   UNL     1     -11.370  14.831  66.032  1.00  0.00    -0.332 A  
HETATM   26  C   UNL     1     -10.584  11.098  63.957  1.00  0.00    -0.436 C  
HETATM   27  O   UNL     1     -12.438  13.107  63.026  1.00  0.00    -0.598 OA 
HETATM   28  C   UNL     1     -11.987  14.535  64.821  1.00  0.00    -0.449 A  
ENDBRANCH  17  20
ENDBRANCH  15  16
BRANCH  15  29
HETATM   29  C   UNL     1      -9.625   9.976  69.907  1.00  0.00    -0.192 C  
BRANCH  29  30
HETATM   30  S   UNL     1     -11.261  10.694  70.308  1.00  0.00    -0.232 SA 
BRANCH  30  31
HETATM   31  C   UNL     1     -12.213   9.313  70.897  1.00  0.00    -0.201 A  
HETATM   32  C   UNL     1     -14.368   8.549  71.726  1.00  0.00    -0.522 A  
HETATM   33  C   UNL     1     -13.507   9.585  71.361  1.00  0.00    -0.405 A  
HETATM   34  C   UNL     1     -12.652   6.947  71.176  1.00  0.00    -0.366 A  
HETATM   35  C   UNL     1     -13.941   7.227  71.626  1.00  0.00    -0.488 A  
HETATM   36  C   UNL     1     -11.790   7.986  70.812  1.00  0.00    -0.171 A  
ENDBRANCH  30  31
ENDBRANCH  29  30
ENDBRANCH  15  29
ENDBRANCH  12  15
ENDBRANCH  11  12
ENDBRANCH   8  11
BRANCH   9  37
HETATM   37  C   UNL     1      -9.219   4.123  69.847  1.00  0.00    -0.141 C  
HETATM   38  C   UNL     1      -8.545   4.248  72.916  1.00  0.00    -0.101 C  
HETATM   39  O   UNL     1      -8.370   3.236  69.902  1.00  0.00    -0.051 OA 
HETATM   40  C   UNL     1     -11.014   4.489  73.135  1.00  0.00    -0.346 C  
HETATM   41  C   UNL     1      -9.891   3.885  72.274  1.00  0.00    -0.162 C  
HETATM   42  N   UNL     1     -10.013   4.465  70.929  1.00  0.00    -0.194 N  
HETATM   43  C   UNL     1     -10.061   2.359  72.251  1.00  0.00    -0.225 C  
HETATM   44  H   UNL     1     -10.735   5.171  70.782  1.00  0.00     0.000 HD 
ENDBRANCH   9  37
TORSDOF 9
ENDMDL
MODEL      116
REMARK 921   NORMALIZED FREE ENERGY PREDICTED BY IDOCK:   -5.37 KCAL/MOL
REMARK 922        TOTAL FREE ENERGY PREDICTED BY IDOCK:  -11.04 KCAL/MOL
REMARK 923 INTER-LIGAND FREE ENERGY PREDICTED BY IDOCK:   -8.62 KCAL/MOL
REMARK 924 INTRA-LIGAND FREE ENERGY PREDICTED BY IDOCK:   -2.42 KCAL/MOL
REMARK 927      BINDING AFFINITY PREDICTED BY RF-SCORE:    0.00 PKD
ROOT
HETATM    1  C   UNL     1     -11.776  14.670  67.273  1.00  0.00    -0.406 C  
HETATM    2  C   UNL     1     -12.145  15.819  68.218  1.00  0.00     0.212 C  
HETATM    3  C   UNL     1     -11.328  15.779  69.504  1.00  0.00    -0.328 C  
HETATM    4  C   UNL     1     -11.520  14.453  70.229  1.00  0.00    -0.255 C  
HETATM    5  C   UNL     1     -11.227  13.242  69.345  1.00  0.00    -0.220 C  
HETATM    6  C   UNL     1     -11.881  13.305  67.956  1.00  0.00    -0.392 C  
HETATM    7  C   UNL     1     -11.354  12.228  66.992  1.00  0.00    -0.334 C  
HETATM    8  N   UNL     1      -9.930  12.353  66.665  1.00  0.00    -0.221 NA 
HETATM    9  C   UNL     1      -9.473  13.728  66.392  1.00  0.00    -0.243 C  
HETATM   10  C   UNL     1     -10.429  14.922  66.585  1.00  0.00    -0.292 C  
ENDROOT
BRANCH   8  11
HETATM   11  C   UNL     1      -9.546  11.397  65.596  1.00  0.00    -0.231 C  
BRANCH  11  12
HETATM   12  C   UNL     1      -8.664  10.154  65.952  1.00  0.00    -0.146 C  
HETATM   13  H   UNL     1      -6.733   9.753  66.236  1.00  0.00     0.000 HD 
HETATM   14  O   UNL     1      -7.269  10.507  66.020  1.00  0.00    -0.127 OA 
BRANCH  12  15
HETATM   15  C   UNL     1      -9.110   9.404  67.236  1.00  0.00    -0.133 C  
BRANCH  15  16
HETATM   16  N   UNL     1      -8.922   7.950  67.159  1.00  0.00    -0.127 N  
HETATM   17  C   UNL     1      -9.951   7.065  66.931  1.00  0.00    -0.217 C  
HETATM   18  O   UNL     1     -11.123   7.390  66.782  1.00  0.00    -0.149 OA 
HETATM   19  H   UNL     1      -7.980   7.576  67.281  1.00  0.00     0.000 HD 
BRANCH  17  20
HETATM   20  C   UNL     1      -9.596   5.626  66.922  1.00  0.00    -0.151 A  
HETATM   21  C   UNL     1      -9.183   5.066  65.700  1.00  0.00    -0.161 A  
HETATM   22  H   UNL     1      -9.444   1.646  68.887  1.00  0.00     0.000 HD 
HETATM   23  C   UNL     1      -9.730   4.829  68.080  1.00  0.00    -0.202 A  
HETATM   24  C   UNL     1      -9.468   3.458  67.945  1.00  0.00    -0.165 A  
HETATM   25  C   UNL     1      -8.883   3.712  65.615  1.00  0.00    -0.126 A  
HETATM   26  C   UNL     1     -10.127   5.383  69.425  1.00  0.00    -0.304 C  
HETATM   27  O   UNL     1      -9.622   2.574  68.978  1.00  0.00    -0.126 OA 
HETATM   28  C   UNL     1      -9.033   2.909  66.740  1.00  0.00    -0.174 A  
ENDBRANCH  17  20
ENDBRANCH  15  16
BRANCH  15  29
HETATM   29  C   UNL     1      -8.526  10.018  68.543  1.00  0.00    -0.115 C  
BRANCH  29  30
HETATM   30  S   UNL     1      -8.460   8.895  69.988  1.00  0.00    -0.153 SA 
BRANCH  30  31
HETATM   31  C   UNL     1     -10.101   8.958  70.668  1.00  0.00    -0.212 A  
HETATM   32  C   UNL     1     -11.592   8.187  72.427  1.00  0.00    -0.463 A  
HETATM   33  C   UNL     1     -10.372   8.114  71.754  1.00  0.00    -0.293 A  
HETATM   34  C   UNL     1     -12.298   9.944  70.935  1.00  0.00    -0.403 A  
HETATM   35  C   UNL     1     -12.553   9.109  72.021  1.00  0.00    -0.463 A  
HETATM   36  C   UNL     1     -11.076   9.870  70.259  1.00  0.00    -0.368 A  
ENDBRANCH  30  31
ENDBRANCH  29  30
ENDBRANCH  15  29
ENDBRANCH  12  15
ENDBRANCH  11  12
ENDBRANCH   8  11
BRANCH   9  37
HETATM   37  C   UNL     1      -8.170  14.003  67.207  1.00  0.00    -0.171 C  
HETATM   38  C   UNL     1      -5.736  15.940  67.672  1.00  0.00    -0.163 C  
HETATM   39  O   UNL     1      -7.284  13.171  67.392  1.00  0.00    -0.155 OA 
HETATM   40  C   UNL     1      -7.405  17.221  69.002  1.00  0.00    -0.209 C  
HETATM   41  C   UNL     1      -7.002  15.814  68.531  1.00  0.00    -0.117 C  
HETATM   42  N   UNL     1      -8.125  15.277  67.750  1.00  0.00    -0.138 N  
HETATM   43  C   UNL     1      -6.707  14.952  69.768  1.00  0.00    -0.179 C  
HETATM   44  H   UNL     1      -8.928  15.886  67.597  1.00  0.00     0.000 HD 
ENDBRANCH   9  37
TORSDOF 9
ENDMDL
MODEL      117
REMARK 921   NORMALIZED FREE ENERGY PREDICTED BY IDOCK:   -5.36 KCAL/MOL
REMARK 922        TOTAL FREE ENERGY PREDICTED BY IDOCK:  -11.01 KCAL/MOL
REMARK 923 INTER-LIGAND FREE ENERGY PREDICTED BY IDOCK:   -8.87 KCAL/MOL
REMARK 924 INTRA-LIGAND FREE ENERGY PREDICTED BY IDOCK:   -2.15 KCAL/MOL
REMARK 927      BINDING AFFINITY PREDICTED BY RF-SCORE:    0.00 PKD
ROOT
HETATM    1  C   UNL     1     -10.871  15.994  66.178  1.00  0.00    -0.179 C  
HETATM    2  C   UNL     1     -10.748  17.409  65.603  1.00  0.00    -0.113 C  
HETATM    3  C   UNL     1      -9.803  18.276  66.425  1.00  0.00    -0.358 C  
HETATM    4  C   UNL     1     -10.267  18.363  67.873  1.00  0.00    -0.404 C  
HETATM    5  C   UNL     1     -10.470  16.994  68.519  1.00  0.00    -0.373 C  
HETATM    6  C   UNL     1     -11.270  16.005  67.655  1.00  0.00    -0.183 C  
HETATM    7  C   UNL     1     -11.225  14.564  68.191  1.00  0.00    -0.284 C  
HETATM    8  N   UNL     1      -9.888  13.960  68.189  1.00  0.00    -0.233 NA 
HETATM    9  C   UNL     1      -9.094  14.211  66.972  1.00  0.00    -0.243 C  
HETATM   10  C   UNL     1      -9.622  15.157  65.876  1.00  0.00    -0.373 C  
ENDROOT
BRANCH   8  11
HETATM   11  C   UNL     1      -9.958  12.519  68.542  1.00  0.00    -0.165 C  
BRANCH  11  12
HETATM   12  C   UNL     1     -11.340  11.784  68.513  1.00  0.00    -0.273 C  
HETATM   13  H   UNL     1     -12.597  11.068  67.144  1.00  0.00     0.000 HD 
HETATM   14  O   UNL     1     -11.759  11.513  67.162  1.00  0.00    -0.567 OA 
BRANCH  12  15
HETATM   15  C   UNL     1     -11.395  10.498  69.380  1.00  0.00    -0.269 C  
BRANCH  15  16
HETATM   16  N   UNL     1     -10.143   9.731  69.370  1.00  0.00    -0.195 N  
HETATM   17  C   UNL     1      -9.953   8.603  68.604  1.00  0.00    -0.183 C  
HETATM   18  O   UNL     1     -10.801   8.116  67.866  1.00  0.00    -0.116 OA 
HETATM   19  H   UNL     1      -9.375  10.050  69.961  1.00  0.00     0.000 HD 
BRANCH  17  20
HETATM   20  C   UNL     1      -8.642   7.925  68.740  1.00  0.00    -0.128 A  
HETATM   21  C   UNL     1      -8.503   6.979  69.772  1.00  0.00    -0.137 A  
HETATM   22  H   UNL     1      -4.351   7.504  67.672  1.00  0.00     0.000 HD 
HETATM   23  C   UNL     1      -7.551   8.261  67.909  1.00  0.00    -0.102 A  
HETATM   24  C   UNL     1      -6.325   7.638  68.182  1.00  0.00    -0.049 A  
HETATM   25  C   UNL     1      -7.286   6.344  69.981  1.00  0.00    -0.086 A  
HETATM   26  C   UNL     1      -7.653   9.235  66.762  1.00  0.00    -0.090 C  
HETATM   27  O   UNL     1      -5.182   7.926  67.487  1.00  0.00    -0.029 OA 
HETATM   28  C   UNL     1      -6.195   6.681  69.186  1.00  0.00    -0.030 A  
ENDBRANCH  17  20
ENDBRANCH  15  16
BRANCH  15  29
HETATM   29  C   UNL     1     -11.937  10.746  70.819  1.00  0.00    -0.362 C  
BRANCH  29  30
HETATM   30  S   UNL     1     -12.898   9.372  71.555  1.00  0.00    -0.380 SA 
BRANCH  30  31
HETATM   31  C   UNL     1     -11.664   8.199  72.067  1.00  0.00    -0.332 A  
HETATM   32  C   UNL     1      -9.457   7.879  73.035  1.00  0.00    -0.336 A  
HETATM   33  C   UNL     1     -10.436   8.716  72.500  1.00  0.00    -0.221 A  
HETATM   34  C   UNL     1     -10.914   5.986  72.707  1.00  0.00    -0.299 A  
HETATM   35  C   UNL     1      -9.700   6.512  73.144  1.00  0.00    -0.171 A  
HETATM   36  C   UNL     1     -11.894   6.826  72.169  1.00  0.00    -0.326 A  
ENDBRANCH  30  31
ENDBRANCH  29  30
ENDBRANCH  15  29
ENDBRANCH  12  15
ENDBRANCH  11  12
ENDBRANCH   8  11
BRANCH   9  37
HETATM   37  C   UNL     1      -7.664  14.683  67.385  1.00  0.00    -0.201 C  
HETATM   38  C   UNL     1      -5.422  16.858  67.024  1.00  0.00    -0.190 C  
HETATM   39  O   UNL     1      -6.675  13.954  67.396  1.00  0.00    -0.233 OA 
HETATM   40  C   UNL     1      -6.827  18.131  68.638  1.00  0.00    -0.253 C  
HETATM   41  C   UNL     1      -6.404  16.720  68.196  1.00  0.00    -0.139 C  
HETATM   42  N   UNL     1      -7.623  16.007  67.789  1.00  0.00    -0.134 N  
HETATM   43  C   UNL     1      -5.709  16.027  69.377  1.00  0.00    -0.125 C  
HETATM   44  H   UNL     1      -8.501  16.525  67.805  1.00  0.00     0.000 HD 
ENDBRANCH   9  37
TORSDOF 9
ENDMDL
MODEL      118
REMARK 921   NORMALIZED FREE ENERGY PREDICTED BY IDOCK:   -5.34 KCAL/MOL
REMARK 922        TOTAL FREE ENERGY PREDICTED BY IDOCK:  -10.98 KCAL/MOL
REMARK 923 INTER-LIGAND FREE ENERGY PREDICTED BY IDOCK:   -9.48 KCAL/MOL
REMARK 924 INTRA-LIGAND FREE ENERGY PREDICTED BY IDOCK:   -1.50 KCAL/MOL
REMARK 927      BINDING AFFINITY PREDICTED BY RF-SCORE:    0.00 PKD
ROOT
HETATM    1  C   UNL     1      -9.116  16.226  68.731  1.00  0.00    -0.245 C  
HETATM    2  C   UNL     1      -9.936  17.520  68.748  1.00  0.00    -0.342 C  
HETATM    3  C   UNL     1     -10.654  17.754  67.425  1.00  0.00    -0.341 C  
HETATM    4  C   UNL     1      -9.663  17.806  66.270  1.00  0.00    -0.277 C  
HETATM    5  C   UNL     1      -8.759  16.575  66.203  1.00  0.00    -0.335 C  
HETATM    6  C   UNL     1      -8.141  16.177  67.553  1.00  0.00    -0.164 C  
HETATM    7  C   UNL     1      -7.470  14.793  67.523  1.00  0.00    -0.198 C  
HETATM    8  N   UNL     1      -8.390  13.680  67.268  1.00  0.00    -0.184 NA 
HETATM    9  C   UNL     1      -9.669  13.751  67.999  1.00  0.00    -0.232 C  
HETATM   10  C   UNL     1     -10.017  14.990  68.845  1.00  0.00    -0.236 C  
ENDROOT
BRANCH   8  11
HETATM   11  C   UNL     1      -7.702  12.375  67.437  1.00  0.00    -0.170 C  
BRANCH  11  12
HETATM   12  C   UNL     1      -8.346  11.080  66.839  1.00  0.00    -0.138 C  
HETATM   13  H   UNL     1      -8.374  10.122  65.092  1.00  0.00     0.000 HD 
HETATM   14  O   UNL     1      -7.984  10.908  65.456  1.00  0.00    -0.113 OA 
BRANCH  12  15
HETATM   15  C   UNL     1      -8.057   9.790  67.653  1.00  0.00    -0.113 C  
BRANCH  15  16
HETATM   16  N   UNL     1      -9.079   9.495  68.665  1.00  0.00    -0.131 N  
HETATM   17  C   UNL     1      -8.896   9.715  70.011  1.00  0.00    -0.232 C  
HETATM   18  O   UNL     1      -7.869  10.164  70.506  1.00  0.00    -0.195 OA 
HETATM   19  H   UNL     1      -9.969   9.106  68.354  1.00  0.00     0.000 HD 
BRANCH  17  20
HETATM   20  C   UNL     1     -10.013   9.325  70.902  1.00  0.00    -0.367 A  
HETATM   21  C   UNL     1      -9.758   8.340  71.873  1.00  0.00    -0.299 A  
HETATM   22  H   UNL     1     -14.309   9.428  72.026  1.00  0.00     0.000 HD 
HETATM   23  C   UNL     1     -11.305   9.873  70.743  1.00  0.00    -0.430 A  
HETATM   24  C   UNL     1     -12.319   9.366  71.568  1.00  0.00    -0.370 A  
HETATM   25  C   UNL     1     -10.776   7.897  72.707  1.00  0.00    -0.435 A  
HETATM   26  C   UNL     1     -11.627  10.961  69.750  1.00  0.00    -0.399 C  
HETATM   27  O   UNL     1     -13.622   9.771  71.467  1.00  0.00    -0.348 OA 
HETATM   28  C   UNL     1     -12.060   8.409  72.548  1.00  0.00    -0.403 A  
ENDBRANCH  17  20
ENDBRANCH  15  16
BRANCH  15  29
HETATM   29  C   UNL     1      -7.722   8.559  66.759  1.00  0.00    -0.091 C  
BRANCH  29  30
HETATM   30  S   UNL     1      -8.520   6.984  67.243  1.00  0.00    -0.122 SA 
BRANCH  30  31
HETATM   31  C   UNL     1      -8.381   5.960  65.798  1.00  0.00    -0.140 A  
HETATM   32  C   UNL     1      -8.736   3.752  64.842  1.00  0.00    -0.115 A  
HETATM   33  C   UNL     1      -8.697   4.602  65.947  1.00  0.00    -0.121 A  
HETATM   34  C   UNL     1      -8.134   5.599  63.414  1.00  0.00    -0.105 A  
HETATM   35  C   UNL     1      -8.460   4.254  63.572  1.00  0.00    -0.105 A  
HETATM   36  C   UNL     1      -8.094   6.451  64.523  1.00  0.00    -0.088 A  
ENDBRANCH  30  31
ENDBRANCH  29  30
ENDBRANCH  15  29
ENDBRANCH  12  15
ENDBRANCH  11  12
ENDBRANCH   8  11
BRANCH   9  37
HETATM   37  C   UNL     1     -10.841  13.489  67.001  1.00  0.00    -0.282 C  
HETATM   38  C   UNL     1     -12.070  14.140  64.181  1.00  0.00    -0.437 C  
HETATM   39  O   UNL     1     -12.031  13.538  67.307  1.00  0.00    -0.370 OA 
HETATM   40  C   UNL     1     -10.406  12.457  63.408  1.00  0.00    -0.319 C  
HETATM   41  C   UNL     1     -11.297  12.879  64.589  1.00  0.00    -0.323 C  
HETATM   42  N   UNL     1     -10.410  13.144  65.731  1.00  0.00    -0.285 N  
HETATM   43  C   UNL     1     -12.281  11.739  64.889  1.00  0.00     0.121 C  
HETATM   44  H   UNL     1      -9.405  13.069  65.576  1.00  0.00     0.000 HD 
ENDBRANCH   9  37
TORSDOF 9
ENDMDL
MODEL      119
REMARK 921   NORMALIZED FREE ENERGY PREDICTED BY IDOCK:   -5.33 KCAL/MOL
REMARK 922        TOTAL FREE ENERGY PREDICTED BY IDOCK:  -10.98 KCAL/MOL
REMARK 923 INTER-LIGAND FREE ENERGY PREDICTED BY IDOCK:   -9.73 KCAL/MOL
REMARK 924 INTRA-LIGAND FREE ENERGY PREDICTED BY IDOCK:   -1.25 KCAL/MOL
REMARK 927      BINDING AFFINITY PREDICTED BY RF-SCORE:    0.00 PKD
ROOT
HETATM    1  C   UNL     1     -10.287  18.318  66.503  1.00  0.00    -0.410 C  
HETATM    2  C   UNL     1      -9.713  19.555  65.805  1.00  0.00    -0.099 C  
HETATM    3  C   UNL     1      -8.400  20.004  66.435  1.00  0.00    -0.338 C  
HETATM    4  C   UNL     1      -8.583  20.305  67.917  1.00  0.00    -0.208 C  
HETATM    5  C   UNL     1      -9.205  19.143  68.690  1.00  0.00    -0.429 C  
HETATM    6  C   UNL     1     -10.437  18.524  68.011  1.00  0.00    -0.395 C  
HETATM    7  C   UNL     1     -10.874  17.195  68.651  1.00  0.00    -0.250 C  
HETATM    8  N   UNL     1      -9.888  16.116  68.537  1.00  0.00    -0.220 NA 
HETATM    9  C   UNL     1      -9.240  16.003  67.217  1.00  0.00    -0.205 C  
HETATM   10  C   UNL     1      -9.513  17.050  66.121  1.00  0.00    -0.253 C  
ENDROOT
BRANCH   8  11
HETATM   11  C   UNL     1     -10.456  14.828  69.011  1.00  0.00    -0.249 C  
BRANCH  11  12
HETATM   12  C   UNL     1     -11.557  14.111  68.161  1.00  0.00    -0.331 C  
HETATM   13  H   UNL     1     -12.780  14.563  66.654  1.00  0.00     0.000 HD 
HETATM   14  O   UNL     1     -12.111  14.998  67.170  1.00  0.00    -0.159 OA 
BRANCH  12  15
HETATM   15  C   UNL     1     -11.094  12.778  67.514  1.00  0.00    -0.263 C  
BRANCH  15  16
HETATM   16  N   UNL     1     -11.272  11.611  68.388  1.00  0.00    -0.226 N  
HETATM   17  C   UNL     1     -10.224  10.861  68.871  1.00  0.00    -0.198 C  
HETATM   18  O   UNL     1      -9.044  11.075  68.617  1.00  0.00    -0.166 OA 
HETATM   19  H   UNL     1     -12.221  11.343  68.650  1.00  0.00     0.000 HD 
BRANCH  17  20
HETATM   20  C   UNL     1     -10.579   9.692  69.709  1.00  0.00    -0.267 A  
HETATM   21  C   UNL     1     -11.050   9.943  71.011  1.00  0.00    -0.401 A  
HETATM   22  H   UNL     1     -10.635   5.313  70.452  1.00  0.00     0.000 HD 
HETATM   23  C   UNL     1     -10.389   8.372  69.246  1.00  0.00    -0.220 A  
HETATM   24  C   UNL     1     -10.657   7.334  70.150  1.00  0.00    -0.232 A  
HETATM   25  C   UNL     1     -11.354   8.889  71.862  1.00  0.00    -0.446 A  
HETATM   26  C   UNL     1      -9.928   8.042  67.849  1.00  0.00    -0.223 C  
HETATM   27  O   UNL     1     -10.454   6.017  69.840  1.00  0.00    -0.203 OA 
HETATM   28  C   UNL     1     -11.150   7.583  71.430  1.00  0.00    -0.262 A  
ENDBRANCH  17  20
ENDBRANCH  15  16
BRANCH  15  29
HETATM   29  C   UNL     1     -11.671  12.552  66.085  1.00  0.00    -0.409 C  
BRANCH  29  30
HETATM   30  S   UNL     1     -10.516  12.874  64.701  1.00  0.00    -0.364 SA 
BRANCH  30  31
HETATM   31  C   UNL     1      -9.796  11.286  64.354  1.00  0.00    -0.269 A  
HETATM   32  C   UNL     1      -9.207   9.665  62.640  1.00  0.00    -0.203 A  
HETATM   33  C   UNL     1      -9.854  10.839  63.027  1.00  0.00    -0.344 A  
HETATM   34  C   UNL     1      -8.438   9.357  64.904  1.00  0.00    -0.176 A  
HETATM   35  C   UNL     1      -8.492   8.927  63.580  1.00  0.00    -0.145 A  
HETATM   36  C   UNL     1      -9.088  10.533  65.291  1.00  0.00    -0.220 A  
ENDBRANCH  30  31
ENDBRANCH  29  30
ENDBRANCH  15  29
ENDBRANCH  12  15
ENDBRANCH  11  12
ENDBRANCH   8  11
BRANCH   9  37
HETATM   37  C   UNL     1      -7.696  15.887  67.416  1.00  0.00    -0.175 C  
HETATM   38  C   UNL     1      -5.217  16.698  69.173  1.00  0.00    -0.128 C  
HETATM   39  O   UNL     1      -6.871  16.073  66.524  1.00  0.00    -0.166 OA 
HETATM   40  C   UNL     1      -6.021  14.837  70.619  1.00  0.00    -0.137 C  
HETATM   41  C   UNL     1      -5.955  15.352  69.171  1.00  0.00    -0.106 C  
HETATM   42  N   UNL     1      -7.338  15.503  68.698  1.00  0.00    -0.120 N  
HETATM   43  C   UNL     1      -5.175  14.333  68.326  1.00  0.00    -0.113 C  
HETATM   44  H   UNL     1      -8.088  15.312  69.362  1.00  0.00     0.000 HD 
ENDBRANCH   9  37
TORSDOF 9
ENDMDL
MODEL      120
REMARK 921   NORMALIZED FREE ENERGY PREDICTED BY IDOCK:   -5.33 KCAL/MOL
REMARK 922        TOTAL FREE ENERGY PREDICTED BY IDOCK:  -10.98 KCAL/MOL
REMARK 923 INTER-LIGAND FREE ENERGY PREDICTED BY IDOCK:   -8.97 KCAL/MOL
REMARK 924 INTRA-LIGAND FREE ENERGY PREDICTED BY IDOCK:   -2.00 KCAL/MOL
REMARK 927      BINDING AFFINITY PREDICTED BY RF-SCORE:    0.00 PKD
ROOT
HETATM    1  C   UNL     1     -11.019  12.423  67.543  1.00  0.00    -0.293 C  
HETATM    2  C   UNL     1     -12.139  13.325  67.014  1.00  0.00    -0.375 C  
HETATM    3  C   UNL     1     -11.800  13.908  65.647  1.00  0.00    -0.383 C  
HETATM    4  C   UNL     1     -10.501  14.702  65.702  1.00  0.00    -0.358 C  
HETATM    5  C   UNL     1      -9.333  13.898  66.270  1.00  0.00    -0.180 C  
HETATM    6  C   UNL     1      -9.665  13.136  67.563  1.00  0.00    -0.213 C  
HETATM    7  C   UNL     1      -8.578  12.122  67.961  1.00  0.00    -0.175 C  
HETATM    8  N   UNL     1      -8.389  11.029  67.001  1.00  0.00    -0.132 NA 
HETATM    9  C   UNL     1      -9.635  10.448  66.469  1.00  0.00    -0.179 C  
HETATM   10  C   UNL     1     -11.001  11.070  66.820  1.00  0.00    -0.279 C  
ENDROOT
BRANCH   8  11
HETATM   11  C   UNL     1      -7.462  10.004  67.544  1.00  0.00    -0.090 C  
BRANCH  11  12
HETATM   12  C   UNL     1      -8.045   8.722  68.227  1.00  0.00    -0.114 C  
HETATM   13  H   UNL     1      -7.772   6.751  68.133  1.00  0.00     0.000 HD 
HETATM   14  O   UNL     1      -7.419   7.529  67.719  1.00  0.00    -0.096 OA 
BRANCH  12  15
HETATM   15  C   UNL     1      -8.003   8.753  69.778  1.00  0.00    -0.095 C  
BRANCH  15  16
HETATM   16  N   UNL     1      -9.246   9.241  70.389  1.00  0.00    -0.228 N  
HETATM   17  C   UNL     1     -10.496   8.943  69.898  1.00  0.00    -0.214 C  
HETATM   18  O   UNL     1     -10.706   8.256  68.905  1.00  0.00    -0.175 OA 
HETATM   19  H   UNL     1      -9.179   9.831  71.218  1.00  0.00     0.000 HD 
BRANCH  17  20
HETATM   20  C   UNL     1     -11.647   9.548  70.610  1.00  0.00    -0.350 A  
HETATM   21  C   UNL     1     -11.789  10.946  70.547  1.00  0.00    -0.457 A  
HETATM   22  H   UNL     1     -15.081   9.250  73.411  1.00  0.00     0.000 HD 
HETATM   23  C   UNL     1     -12.532   8.761  71.379  1.00  0.00    -0.348 A  
HETATM   24  C   UNL     1     -13.528   9.437  72.097  1.00  0.00    -0.471 A  
HETATM   25  C   UNL     1     -12.819  11.578  71.231  1.00  0.00    -0.463 A  
HETATM   26  C   UNL     1     -12.454   7.256  71.449  1.00  0.00    -0.418 C  
HETATM   27  O   UNL     1     -14.406   8.792  72.925  1.00  0.00    -0.520 OA 
HETATM   28  C   UNL     1     -13.685  10.819  72.012  1.00  0.00    -0.005 A  
ENDBRANCH  17  20
ENDBRANCH  15  16
BRANCH  15  29
HETATM   29  C   UNL     1      -7.508   7.416  70.409  1.00  0.00    -0.085 C  
BRANCH  29  30
HETATM   30  S   UNL     1      -7.798   7.230  72.207  1.00  0.00    -0.094 SA 
BRANCH  30  31
HETATM   31  C   UNL     1      -8.689   5.699  72.350  1.00  0.00    -0.128 A  
HETATM   32  C   UNL     1      -9.891   4.190  73.831  1.00  0.00    -0.155 A  
HETATM   33  C   UNL     1      -9.083   5.311  73.638  1.00  0.00    -0.123 A  
HETATM   34  C   UNL     1      -9.922   3.818  71.449  1.00  0.00    -0.178 A  
HETATM   35  C   UNL     1     -10.317   3.447  72.732  1.00  0.00    -0.240 A  
HETATM   36  C   UNL     1      -9.111   4.941  71.257  1.00  0.00    -0.179 A  
ENDBRANCH  30  31
ENDBRANCH  29  30
ENDBRANCH  15  29
ENDBRANCH  12  15
ENDBRANCH  11  12
ENDBRANCH   8  11
BRANCH   9  37
HETATM   37  C   UNL     1      -9.525  10.345  64.915  1.00  0.00    -0.265 C  
HETATM   38  C   UNL     1      -7.925  11.193  62.343  1.00  0.00    -0.118 C  
HETATM   39  O   UNL     1     -10.465  10.524  64.144  1.00  0.00    -0.256 OA 
HETATM   40  C   UNL     1      -6.413   9.346  63.050  1.00  0.00    -0.095 C  
HETATM   41  C   UNL     1      -7.868   9.842  63.071  1.00  0.00    -0.138 C  
HETATM   42  N   UNL     1      -8.262   9.979  64.480  1.00  0.00    -0.157 N  
HETATM   43  C   UNL     1      -8.744   8.818  62.335  1.00  0.00    -0.150 C  
HETATM   44  H   UNL     1      -7.553   9.792  65.189  1.00  0.00     0.000 HD 
ENDBRANCH   9  37
TORSDOF 9
ENDMDL
MODEL      121
REMARK 921   NORMALIZED FREE ENERGY PREDICTED BY IDOCK:   -5.32 KCAL/MOL
REMARK 922        TOTAL FREE ENERGY PREDICTED BY IDOCK:  -10.96 KCAL/MOL
REMARK 923 INTER-LIGAND FREE ENERGY PREDICTED BY IDOCK:   -8.83 KCAL/MOL
REMARK 924 INTRA-LIGAND FREE ENERGY PREDICTED BY IDOCK:   -2.13 KCAL/MOL
REMARK 927      BINDING AFFINITY PREDICTED BY RF-SCORE:    0.00 PKD
ROOT
HETATM    1  C   UNL     1      -9.187   6.630  69.077  1.00  0.00    -0.131 C  
HETATM    2  C   UNL     1      -8.475   5.309  69.381  1.00  0.00    -0.094 C  
HETATM    3  C   UNL     1      -8.201   4.508  68.114  1.00  0.00    -0.090 C  
HETATM    4  C   UNL     1      -9.494   4.218  67.363  1.00  0.00    -0.213 C  
HETATM    5  C   UNL     1     -10.304   5.478  67.062  1.00  0.00    -0.306 C  
HETATM    6  C   UNL     1     -10.466   6.423  68.263  1.00  0.00    -0.270 C  
HETATM    7  C   UNL     1     -11.035   7.799  67.876  1.00  0.00     0.110 C  
HETATM    8  N   UNL     1     -10.171   8.581  66.985  1.00  0.00    -0.275 NA 
HETATM    9  C   UNL     1      -8.738   8.561  67.334  1.00  0.00    -0.134 C  
HETATM   10  C   UNL     1      -8.224   7.660  68.473  1.00  0.00    -0.125 C  
ENDROOT
BRANCH   8  11
HETATM   11  C   UNL     1     -10.701   9.957  66.810  1.00  0.00    -0.084 C  
BRANCH  11  12
HETATM   12  C   UNL     1      -9.738  11.181  66.969  1.00  0.00    -0.186 C  
HETATM   13  H   UNL     1      -8.816  12.492  65.786  1.00  0.00     0.000 HD 
HETATM   14  O   UNL     1      -9.401  11.750  65.690  1.00  0.00    -0.221 OA 
BRANCH  12  15
HETATM   15  C   UNL     1     -10.252  12.273  67.944  1.00  0.00    -0.200 C  
BRANCH  15  16
HETATM   16  N   UNL     1     -10.047  13.641  67.451  1.00  0.00    -0.239 N  
HETATM   17  C   UNL     1      -9.187  14.537  68.044  1.00  0.00    -0.190 C  
HETATM   18  O   UNL     1      -8.516  14.298  69.041  1.00  0.00    -0.081 OA 
HETATM   19  H   UNL     1     -10.570  13.943  66.629  1.00  0.00     0.000 HD 
BRANCH  17  20
HETATM   20  C   UNL     1      -9.126  15.891  67.444  1.00  0.00    -0.205 A  
HETATM   21  C   UNL     1      -8.015  16.196  66.637  1.00  0.00    -0.305 A  
HETATM   22  H   UNL     1     -10.628  20.055  67.083  1.00  0.00     0.000 HD 
HETATM   23  C   UNL     1     -10.111  16.863  67.724  1.00  0.00    -0.292 A  
HETATM   24  C   UNL     1      -9.912  18.145  67.192  1.00  0.00    -0.336 A  
HETATM   25  C   UNL     1      -7.876  17.463  66.085  1.00  0.00    -0.293 A  
HETATM   26  C   UNL     1     -11.344  16.581  68.546  1.00  0.00    -0.231 C  
HETATM   27  O   UNL     1     -10.763  19.187  67.443  1.00  0.00    -0.462 OA 
HETATM   28  C   UNL     1      -8.826  18.439  66.370  1.00  0.00    -0.262 A  
ENDBRANCH  17  20
ENDBRANCH  15  16
BRANCH  15  29
HETATM   29  C   UNL     1     -11.709  12.024  68.437  1.00  0.00    -0.332 C  
BRANCH  29  30
HETATM   30  S   UNL     1     -12.016  12.359  70.211  1.00  0.00    -0.196 SA 
BRANCH  30  31
HETATM   31  C   UNL     1     -12.227  10.747  70.931  1.00  0.00    -0.384 A  
HETATM   32  C   UNL     1     -11.142   8.684  71.624  1.00  0.00    -0.375 A  
HETATM   33  C   UNL     1     -11.100   9.915  70.967  1.00  0.00    -0.401 A  
HETATM   34  C   UNL     1     -13.445   9.091  72.214  1.00  0.00    -0.529 A  
HETATM   35  C   UNL     1     -12.315   8.276  72.254  1.00  0.00    -0.410 A  
HETATM   36  C   UNL     1     -13.402  10.323  71.554  1.00  0.00    -0.413 A  
ENDBRANCH  30  31
ENDBRANCH  29  30
ENDBRANCH  15  29
ENDBRANCH  12  15
ENDBRANCH  11  12
ENDBRANCH   8  11
BRANCH   9  37
HETATM   37  C   UNL     1      -7.906   8.257  66.049  1.00  0.00    -0.095 C  
HETATM   38  C   UNL     1      -7.928   8.013  62.914  1.00  0.00    -0.152 C  
HETATM   39  O   UNL     1      -7.172   7.279  65.919  1.00  0.00    -0.070 OA 
HETATM   40  C   UNL     1      -7.736  10.493  63.027  1.00  0.00    -0.070 C  
HETATM   41  C   UNL     1      -7.390   9.181  63.752  1.00  0.00    -0.100 C  
HETATM   42  N   UNL     1      -8.034   9.230  65.072  1.00  0.00    -0.113 N  
HETATM   43  C   UNL     1      -5.863   9.077  63.869  1.00  0.00    -0.071 C  
HETATM   44  H   UNL     1      -8.617  10.039  65.284  1.00  0.00     0.000 HD 
ENDBRANCH   9  37
TORSDOF 9
ENDMDL
MODEL      122
REMARK 921   NORMALIZED FREE ENERGY PREDICTED BY IDOCK:   -5.31 KCAL/MOL
REMARK 922        TOTAL FREE ENERGY PREDICTED BY IDOCK:  -10.94 KCAL/MOL
REMARK 923 INTER-LIGAND FREE ENERGY PREDICTED BY IDOCK:   -8.36 KCAL/MOL
REMARK 924 INTRA-LIGAND FREE ENERGY PREDICTED BY IDOCK:   -2.57 KCAL/MOL
REMARK 927      BINDING AFFINITY PREDICTED BY RF-SCORE:    0.00 PKD
ROOT
HETATM    1  C   UNL     1      -7.168   7.479  67.201  1.00  0.00    -0.086 C  
HETATM    2  C   UNL     1      -6.559   6.074  67.150  1.00  0.00    -0.056 C  
HETATM    3  C   UNL     1      -6.788   5.308  68.448  1.00  0.00    -0.056 C  
HETATM    4  C   UNL     1      -6.205   6.064  69.635  1.00  0.00    -0.030 C  
HETATM    5  C   UNL     1      -6.715   7.500  69.738  1.00  0.00    -0.043 C  
HETATM    6  C   UNL     1      -6.678   8.276  68.411  1.00  0.00    -0.064 C  
HETATM    7  C   UNL     1      -7.446   9.608  68.470  1.00  0.00    -0.079 C  
HETATM    8  N   UNL     1      -8.887   9.465  68.701  1.00  0.00    -0.131 NA 
HETATM    9  C   UNL     1      -9.537   8.391  67.927  1.00  0.00    -0.156 C  
HETATM   10  C   UNL     1      -8.695   7.432  67.063  1.00  0.00    -0.123 C  
ENDROOT
BRANCH   8  11
HETATM   11  C   UNL     1      -9.577  10.772  68.560  1.00  0.00    -0.183 C  
BRANCH  11  12
HETATM   12  C   UNL     1     -11.009  10.825  67.929  1.00  0.00    -0.289 C  
HETATM   13  H   UNL     1     -12.889  10.533  68.519  1.00  0.00     0.000 HD 
HETATM   14  O   UNL     1     -12.021  10.502  68.902  1.00  0.00    -0.267 OA 
BRANCH  12  15
HETATM   15  C   UNL     1     -11.338  12.160  67.209  1.00  0.00    -0.334 C  
BRANCH  15  16
HETATM   16  N   UNL     1     -10.312  13.194  67.395  1.00  0.00    -0.237 N  
HETATM   17  C   UNL     1     -10.567  14.416  67.974  1.00  0.00    -0.241 C  
HETATM   18  O   UNL     1     -11.666  14.775  68.381  1.00  0.00    -0.307 OA 
HETATM   19  H   UNL     1      -9.363  12.997  67.079  1.00  0.00     0.000 HD 
BRANCH  17  20
HETATM   20  C   UNL     1      -9.428  15.362  68.051  1.00  0.00    -0.201 A  
HETATM   21  C   UNL     1      -8.543  15.228  69.136  1.00  0.00    -0.235 A  
HETATM   22  H   UNL     1      -7.296  19.003  66.663  1.00  0.00     0.000 HD 
HETATM   23  C   UNL     1      -9.272  16.402  67.109  1.00  0.00    -0.225 A  
HETATM   24  C   UNL     1      -8.223  17.306  67.324  1.00  0.00    -0.196 A  
HETATM   25  C   UNL     1      -7.484  16.113  69.290  1.00  0.00    -0.222 A  
HETATM   26  C   UNL     1     -10.164  16.569  65.903  1.00  0.00    -0.368 C  
HETATM   27  O   UNL     1      -8.007  18.389  66.517  1.00  0.00    -0.252 OA 
HETATM   28  C   UNL     1      -7.330  17.157  68.384  1.00  0.00    -0.220 A  
ENDBRANCH  17  20
ENDBRANCH  15  16
BRANCH  15  29
HETATM   29  C   UNL     1     -11.739  11.973  65.716  1.00  0.00    -0.245 C  
BRANCH  29  30
HETATM   30  S   UNL     1     -10.633  12.764  64.490  1.00  0.00    -0.381 SA 
BRANCH  30  31
HETATM   31  C   UNL     1      -9.563  11.449  63.954  1.00  0.00    -0.216 A  
HETATM   32  C   UNL     1      -7.894   9.806  64.608  1.00  0.00    -0.136 A  
HETATM   33  C   UNL     1      -8.681  10.919  64.905  1.00  0.00    -0.075 A  
HETATM   34  C   UNL     1      -8.851   9.736  62.396  1.00  0.00    -0.263 A  
HETATM   35  C   UNL     1      -7.985   9.210  63.353  1.00  0.00    -0.148 A  
HETATM   36  C   UNL     1      -9.638  10.852  62.694  1.00  0.00    -0.290 A  
ENDBRANCH  30  31
ENDBRANCH  29  30
ENDBRANCH  15  29
ENDBRANCH  12  15
ENDBRANCH  11  12
ENDBRANCH   8  11
BRANCH   9  37
HETATM   37  C   UNL     1     -10.426   7.538  68.886  1.00  0.00    -0.203 C  
HETATM   38  C   UNL     1     -10.556   5.896  71.565  1.00  0.00    -0.300 C  
HETATM   39  O   UNL     1     -11.144   6.611  68.518  1.00  0.00    -0.256 OA 
HETATM   40  C   UNL     1     -10.795   8.158  72.580  1.00  0.00    -0.431 C  
HETATM   41  C   UNL     1     -11.076   7.320  71.321  1.00  0.00    -0.247 C  
HETATM   42  N   UNL     1     -10.368   7.961  70.204  1.00  0.00    -0.211 N  
HETATM   43  C   UNL     1     -12.593   7.286  71.086  1.00  0.00    -0.362 C  
HETATM   44  H   UNL     1      -9.793   8.776  70.414  1.00  0.00     0.000 HD 
ENDBRANCH   9  37
TORSDOF 9
ENDMDL
MODEL      123
REMARK 921   NORMALIZED FREE ENERGY PREDICTED BY IDOCK:   -5.30 KCAL/MOL
REMARK 922        TOTAL FREE ENERGY PREDICTED BY IDOCK:  -10.93 KCAL/MOL
REMARK 923 INTER-LIGAND FREE ENERGY PREDICTED BY IDOCK:   -8.96 KCAL/MOL
REMARK 924 INTRA-LIGAND FREE ENERGY PREDICTED BY IDOCK:   -1.97 KCAL/MOL
REMARK 927      BINDING AFFINITY PREDICTED BY RF-SCORE:    0.00 PKD
ROOT
HETATM    1  C   UNL     1     -10.717  15.683  68.444  1.00  0.00    -0.271 C  
HETATM    2  C   UNL     1     -10.163  16.974  67.832  1.00  0.00    -0.317 C  
HETATM    3  C   UNL     1      -9.451  16.715  66.510  1.00  0.00    -0.288 C  
HETATM    4  C   UNL     1      -8.313  15.719  66.691  1.00  0.00    -0.319 C  
HETATM    5  C   UNL     1      -8.761  14.414  67.347  1.00  0.00    -0.214 C  
HETATM    6  C   UNL     1      -9.639  14.607  68.594  1.00  0.00    -0.219 C  
HETATM    7  C   UNL     1     -10.304  13.304  69.071  1.00  0.00     0.038 C  
HETATM    8  N   UNL     1     -11.253  12.725  68.115  1.00  0.00    -0.253 NA 
HETATM    9  C   UNL     1     -12.153  13.696  67.466  1.00  0.00    -0.316 C  
HETATM   10  C   UNL     1     -11.974  15.208  67.705  1.00  0.00    -0.018 C  
ENDROOT
BRANCH   8  11
HETATM   11  C   UNL     1     -11.983  11.582  68.721  1.00  0.00    -0.271 C  
BRANCH  11  12
HETATM   12  C   UNL     1     -11.721  11.207  70.218  1.00  0.00    -0.341 C  
HETATM   13  H   UNL     1     -12.406  11.742  72.011  1.00  0.00     0.000 HD 
HETATM   14  O   UNL     1     -12.564  11.969  71.102  1.00  0.00    -0.367 OA 
BRANCH  12  15
HETATM   15  C   UNL     1     -11.829   9.688  70.522  1.00  0.00    -0.215 C  
BRANCH  15  16
HETATM   16  N   UNL     1     -11.123   8.845  69.548  1.00  0.00    -0.432 N  
HETATM   17  C   UNL     1      -9.755   8.706  69.520  1.00  0.00    -0.179 C  
HETATM   18  O   UNL     1      -8.985   9.273  70.287  1.00  0.00    -0.189 OA 
HETATM   19  H   UNL     1     -11.676   8.336  68.858  1.00  0.00     0.000 HD 
BRANCH  17  20
HETATM   20  C   UNL     1      -9.199   7.847  68.449  1.00  0.00    -0.134 A  
HETATM   21  C   UNL     1      -9.227   8.346  67.134  1.00  0.00    -0.174 A  
HETATM   22  H   UNL     1      -7.606   3.956  67.018  1.00  0.00     0.000 HD 
HETATM   23  C   UNL     1      -8.720   6.547  68.723  1.00  0.00    -0.123 A  
HETATM   24  C   UNL     1      -8.309   5.773  67.628  1.00  0.00    -0.104 A  
HETATM   25  C   UNL     1      -8.765   7.570  66.079  1.00  0.00    -0.178 A  
HETATM   26  C   UNL     1      -8.627   5.976  70.116  1.00  0.00    -0.135 C  
HETATM   27  O   UNL     1      -7.884   4.480  67.759  1.00  0.00    -0.084 OA 
HETATM   28  C   UNL     1      -8.311   6.279  66.329  1.00  0.00    -0.122 A  
ENDBRANCH  17  20
ENDBRANCH  15  16
BRANCH  15  29
HETATM   29  C   UNL     1     -11.478   9.328  71.996  1.00  0.00    -0.200 C  
BRANCH  29  30
HETATM   30  S   UNL     1     -11.995   7.662  72.552  1.00  0.00    -0.152 SA 
BRANCH  30  31
HETATM   31  C   UNL     1     -10.515   6.945  73.226  1.00  0.00    -0.312 A  
HETATM   32  C   UNL     1      -9.355   4.896  73.833  1.00  0.00    -0.124 A  
HETATM   33  C   UNL     1     -10.513   5.558  73.425  1.00  0.00    -0.266 A  
HETATM   34  C   UNL     1      -8.177   7.000  73.858  1.00  0.00    -0.150 A  
HETATM   35  C   UNL     1      -8.183   5.618  74.043  1.00  0.00    -0.109 A  
HETATM   36  C   UNL     1      -9.339   7.662  73.451  1.00  0.00    -0.324 A  
ENDBRANCH  30  31
ENDBRANCH  29  30
ENDBRANCH  15  29
ENDBRANCH  12  15
ENDBRANCH  11  12
ENDBRANCH   8  11
BRANCH   9  37
HETATM   37  C   UNL     1     -12.156  13.437  65.926  1.00  0.00    -0.439 C  
HETATM   38  C   UNL     1     -10.424  12.829  63.372  1.00  0.00     0.071 C  
HETATM   39  O   UNL     1     -12.748  14.140  65.110  1.00  0.00    -0.616 OA 
HETATM   40  C   UNL     1     -10.511  10.499  64.245  1.00  0.00    -0.067 C  
HETATM   41  C   UNL     1     -11.270  11.835  64.181  1.00  0.00    -0.364 C  
HETATM   42  N   UNL     1     -11.458  12.297  65.563  1.00  0.00    -0.350 N  
HETATM   43  C   UNL     1     -12.613  11.599  63.474  1.00  0.00    -0.327 C  
HETATM   44  H   UNL     1     -11.045  11.738  66.309  1.00  0.00     0.000 HD 
ENDBRANCH   9  37
TORSDOF 9
ENDMDL
MODEL      124
REMARK 921   NORMALIZED FREE ENERGY PREDICTED BY IDOCK:   -5.30 KCAL/MOL
REMARK 922        TOTAL FREE ENERGY PREDICTED BY IDOCK:  -10.93 KCAL/MOL
REMARK 923 INTER-LIGAND FREE ENERGY PREDICTED BY IDOCK:   -9.46 KCAL/MOL
REMARK 924 INTRA-LIGAND FREE ENERGY PREDICTED BY IDOCK:   -1.47 KCAL/MOL
REMARK 927      BINDING AFFINITY PREDICTED BY RF-SCORE:    0.00 PKD
ROOT
HETATM    1  C   UNL     1     -10.380   8.146  73.044  1.00  0.00    -0.257 C  
HETATM    2  C   UNL     1     -10.198   6.855  73.849  1.00  0.00    -0.401 C  
HETATM    3  C   UNL     1     -10.399   5.615  72.986  1.00  0.00    -0.230 C  
HETATM    4  C   UNL     1     -11.781   5.616  72.347  1.00  0.00    -0.240 C  
HETATM    5  C   UNL     1     -12.077   6.894  71.564  1.00  0.00    -0.401 C  
HETATM    6  C   UNL     1     -11.725   8.187  72.317  1.00  0.00    -0.439 C  
HETATM    7  C   UNL     1     -11.764   9.436  71.420  1.00  0.00    -0.378 C  
HETATM    8  N   UNL     1     -10.775   9.434  70.336  1.00  0.00    -0.242 NA 
HETATM    9  C   UNL     1      -9.430   8.973  70.725  1.00  0.00    -0.251 C  
HETATM   10  C   UNL     1      -9.172   8.415  72.138  1.00  0.00    -0.313 C  
ENDROOT
BRANCH   8  11
HETATM   11  C   UNL     1     -10.755  10.744  69.637  1.00  0.00    -0.211 C  
BRANCH  11  12
HETATM   12  C   UNL     1     -10.787  10.784  68.073  1.00  0.00    -0.255 C  
HETATM   13  H   UNL     1     -12.014  11.427  66.642  1.00  0.00     0.000 HD 
HETATM   14  O   UNL     1     -11.995  11.403  67.591  1.00  0.00    -0.630 OA 
BRANCH  12  15
HETATM   15  C   UNL     1      -9.534  11.435  67.427  1.00  0.00    -0.167 C  
BRANCH  15  16
HETATM   16  N   UNL     1      -9.794  12.761  66.852  1.00  0.00    -0.231 N  
HETATM   17  C   UNL     1     -10.037  13.880  67.613  1.00  0.00    -0.241 C  
HETATM   18  O   UNL     1     -10.076  13.891  68.838  1.00  0.00    -0.199 OA 
HETATM   19  H   UNL     1      -9.794  12.856  65.836  1.00  0.00     0.000 HD 
BRANCH  17  20
HETATM   20  C   UNL     1     -10.319  15.134  66.875  1.00  0.00    -0.272 A  
HETATM   21  C   UNL     1     -10.787  15.019  65.553  1.00  0.00    -0.360 A  
HETATM   22  H   UNL     1     -10.135  19.556  66.507  1.00  0.00     0.000 HD 
HETATM   23  C   UNL     1     -10.065  16.398  67.450  1.00  0.00    -0.262 A  
HETATM   24  C   UNL     1     -10.267  17.522  66.636  1.00  0.00    -0.332 A  
HETATM   25  C   UNL     1     -11.024  16.157  64.792  1.00  0.00    -0.330 A  
HETATM   26  C   UNL     1      -9.604  16.583  68.874  1.00  0.00    -0.261 C  
HETATM   27  O   UNL     1      -9.998  18.795  67.058  1.00  0.00    -0.311 OA 
HETATM   28  C   UNL     1     -10.757  17.409  65.336  1.00  0.00    -0.040 A  
ENDBRANCH  17  20
ENDBRANCH  15  16
BRANCH  15  29
HETATM   29  C   UNL     1      -8.282  11.416  68.353  1.00  0.00    -0.151 C  
BRANCH  29  30
HETATM   30  S   UNL     1      -6.725  12.013  67.597  1.00  0.00    -0.124 SA 
BRANCH  30  31
HETATM   31  C   UNL     1      -6.346  13.501  68.494  1.00  0.00    -0.088 A  
HETATM   32  C   UNL     1      -6.124  15.920  68.396  1.00  0.00    -0.105 A  
HETATM   33  C   UNL     1      -6.292  14.691  67.757  1.00  0.00    -0.170 A  
HETATM   34  C   UNL     1      -6.052  14.790  70.524  1.00  0.00    -0.142 A  
HETATM   35  C   UNL     1      -6.010  15.969  69.783  1.00  0.00    -0.168 A  
HETATM   36  C   UNL     1      -6.219  13.559  69.883  1.00  0.00    -0.108 A  
ENDBRANCH  30  31
ENDBRANCH  29  30
ENDBRANCH  15  29
ENDBRANCH  12  15
ENDBRANCH  11  12
ENDBRANCH   8  11
BRANCH   9  37
HETATM   37  C   UNL     1      -8.931   7.924  69.682  1.00  0.00    -0.146 C  
HETATM   38  C   UNL     1      -9.329   5.051  68.465  1.00  0.00    -0.167 C  
HETATM   39  O   UNL     1      -7.753   7.603  69.536  1.00  0.00    -0.098 OA 
HETATM   40  C   UNL     1     -11.132   6.183  67.174  1.00  0.00    -0.335 C  
HETATM   41  C   UNL     1      -9.767   6.389  67.853  1.00  0.00    -0.121 C  
HETATM   42  N   UNL     1      -9.947   7.415  68.890  1.00  0.00    -0.165 N  
HETATM   43  C   UNL     1      -8.753   6.831  66.788  1.00  0.00    -0.122 C  
HETATM   44  H   UNL     1     -10.889   7.779  69.037  1.00  0.00     0.000 HD 
ENDBRANCH   9  37
TORSDOF 9
ENDMDL
MODEL      125
REMARK 921   NORMALIZED FREE ENERGY PREDICTED BY IDOCK:   -5.29 KCAL/MOL
REMARK 922        TOTAL FREE ENERGY PREDICTED BY IDOCK:  -10.91 KCAL/MOL
REMARK 923 INTER-LIGAND FREE ENERGY PREDICTED BY IDOCK:   -9.27 KCAL/MOL
REMARK 924 INTRA-LIGAND FREE ENERGY PREDICTED BY IDOCK:   -1.65 KCAL/MOL
REMARK 927      BINDING AFFINITY PREDICTED BY RF-SCORE:    0.00 PKD
ROOT
HETATM    1  C   UNL     1      -7.429   4.813  69.264  1.00  0.00    -0.053 C  
HETATM    2  C   UNL     1      -6.688   3.477  69.145  1.00  0.00    -0.037 C  
HETATM    3  C   UNL     1      -7.176   2.662  67.954  1.00  0.00    -0.049 C  
HETATM    4  C   UNL     1      -8.673   2.397  68.052  1.00  0.00    -0.135 C  
HETATM    5  C   UNL     1      -9.495   3.673  68.229  1.00  0.00    -0.214 C  
HETATM    6  C   UNL     1      -8.948   4.629  69.301  1.00  0.00    -0.140 C  
HETATM    7  C   UNL     1      -9.615   6.015  69.269  1.00  0.00    -0.136 C  
HETATM    8  N   UNL     1      -9.379   6.772  68.035  1.00  0.00    -0.120 NA 
HETATM    9  C   UNL     1      -7.994   6.722  67.530  1.00  0.00    -0.115 C  
HETATM   10  C   UNL     1      -6.948   5.816  68.208  1.00  0.00    -0.069 C  
ENDROOT
BRANCH   8  11
HETATM   11  C   UNL     1      -9.896   8.159  68.158  1.00  0.00    -0.168 C  
BRANCH  11  12
HETATM   12  C   UNL     1      -9.757   8.915  69.521  1.00  0.00    -0.173 C  
HETATM   13  H   UNL     1      -8.308   9.381  70.806  1.00  0.00     0.000 HD 
HETATM   14  O   UNL     1      -8.392   8.922  69.978  1.00  0.00    -0.115 OA 
BRANCH  12  15
HETATM   15  C   UNL     1     -10.347  10.351  69.515  1.00  0.00    -0.237 C  
BRANCH  15  16
HETATM   16  N   UNL     1     -10.871  10.763  68.206  1.00  0.00    -0.210 N  
HETATM   17  C   UNL     1     -10.210  11.629  67.365  1.00  0.00    -0.203 C  
HETATM   18  O   UNL     1      -9.132  12.153  67.618  1.00  0.00    -0.169 OA 
HETATM   19  H   UNL     1     -11.771  10.389  67.906  1.00  0.00     0.000 HD 
BRANCH  17  20
HETATM   20  C   UNL     1     -10.896  11.972  66.097  1.00  0.00    -0.325 A  
HETATM   21  C   UNL     1     -10.661  11.144  64.985  1.00  0.00    -0.340 A  
HETATM   22  H   UNL     1     -13.326  14.741  63.617  1.00  0.00     0.000 HD 
HETATM   23  C   UNL     1     -11.704  13.125  65.988  1.00  0.00    -0.424 A  
HETATM   24  C   UNL     1     -12.227  13.421  64.721  1.00  0.00    -0.409 A  
HETATM   25  C   UNL     1     -11.236  11.439  63.757  1.00  0.00    -0.375 A  
HETATM   26  C   UNL     1     -12.025  14.025  67.155  1.00  0.00    -0.465 C  
HETATM   27  O   UNL     1     -12.972  14.541  64.475  1.00  0.00    -0.536 OA 
HETATM   28  C   UNL     1     -12.016  12.584  63.626  1.00  0.00    -0.621 A  
ENDBRANCH  17  20
ENDBRANCH  15  16
BRANCH  15  29
HETATM   29  C   UNL     1     -11.354  10.610  70.675  1.00  0.00    -0.198 C  
BRANCH  29  30
HETATM   30  S   UNL     1     -12.871  11.529  70.220  1.00  0.00     0.228 SA 
BRANCH  30  31
HETATM   31  C   UNL     1     -12.731  13.067  71.101  1.00  0.00    -0.283 A  
HETATM   32  C   UNL     1     -11.876  15.343  71.074  1.00  0.00    -0.406 A  
HETATM   33  C   UNL     1     -11.941  14.066  70.516  1.00  0.00    -0.390 A  
HETATM   34  C   UNL     1     -13.384  14.645  72.820  1.00  0.00    -0.593 A  
HETATM   35  C   UNL     1     -12.604  15.634  72.224  1.00  0.00    -0.506 A  
HETATM   36  C   UNL     1     -13.448  13.365  72.261  1.00  0.00    -0.683 A  
ENDBRANCH  30  31
ENDBRANCH  29  30
ENDBRANCH  15  29
ENDBRANCH  12  15
ENDBRANCH  11  12
ENDBRANCH   8  11
BRANCH   9  37
HETATM   37  C   UNL     1      -8.020   6.390  66.005  1.00  0.00    -0.115 C  
HETATM   38  C   UNL     1      -6.414   5.269  63.544  1.00  0.00    -0.026 C  
HETATM   39  O   UNL     1      -8.415   7.165  65.137  1.00  0.00    -0.111 OA 
HETATM   40  C   UNL     1      -7.055   3.069  64.519  1.00  0.00    -0.053 C  
HETATM   41  C   UNL     1      -7.485   4.538  64.367  1.00  0.00    -0.071 C  
HETATM   42  N   UNL     1      -7.595   5.102  65.719  1.00  0.00    -0.082 N  
HETATM   43  C   UNL     1      -8.828   4.579  63.624  1.00  0.00    -0.140 C  
HETATM   44  H   UNL     1      -7.339   4.504  66.504  1.00  0.00     0.000 HD 
ENDBRANCH   9  37
TORSDOF 9
ENDMDL
MODEL      126
REMARK 921   NORMALIZED FREE ENERGY PREDICTED BY IDOCK:   -5.29 KCAL/MOL
REMARK 922        TOTAL FREE ENERGY PREDICTED BY IDOCK:  -10.91 KCAL/MOL
REMARK 923 INTER-LIGAND FREE ENERGY PREDICTED BY IDOCK:   -8.86 KCAL/MOL
REMARK 924 INTRA-LIGAND FREE ENERGY PREDICTED BY IDOCK:   -2.05 KCAL/MOL
REMARK 927      BINDING AFFINITY PREDICTED BY RF-SCORE:    0.00 PKD
ROOT
HETATM    1  C   UNL     1      -6.641   6.926  66.004  1.00  0.00    -0.052 C  
HETATM    2  C   UNL     1      -6.584   5.430  66.332  1.00  0.00    -0.056 C  
HETATM    3  C   UNL     1      -7.026   5.145  67.762  1.00  0.00    -0.062 C  
HETATM    4  C   UNL     1      -6.165   5.909  68.760  1.00  0.00    -0.032 C  
HETATM    5  C   UNL     1      -6.116   7.411  68.480  1.00  0.00    -0.028 C  
HETATM    6  C   UNL     1      -5.850   7.767  67.009  1.00  0.00    -0.044 C  
HETATM    7  C   UNL     1      -6.081   9.255  66.697  1.00  0.00    -0.064 C  
HETATM    8  N   UNL     1      -7.467   9.702  66.874  1.00  0.00    -0.091 NA 
HETATM    9  C   UNL     1      -8.490   8.777  66.351  1.00  0.00    -0.121 C  
HETATM   10  C   UNL     1      -8.085   7.398  65.796  1.00  0.00    -0.129 C  
ENDROOT
BRANCH   8  11
HETATM   11  C   UNL     1      -7.642  11.092  66.380  1.00  0.00    -0.135 C  
BRANCH  11  12
HETATM   12  C   UNL     1      -7.545  12.286  67.387  1.00  0.00    -0.159 C  
HETATM   13  H   UNL     1      -6.277  13.767  67.796  1.00  0.00     0.000 HD 
HETATM   14  O   UNL     1      -6.336  13.043  67.185  1.00  0.00    -0.257 OA 
BRANCH  12  15
HETATM   15  C   UNL     1      -8.787  13.217  67.393  1.00  0.00    -0.204 C  
BRANCH  15  16
HETATM   16  N   UNL     1      -8.507  14.571  66.899  1.00  0.00    -0.364 N  
HETATM   17  C   UNL     1      -8.442  15.675  67.717  1.00  0.00    -0.151 C  
HETATM   18  O   UNL     1      -8.621  15.651  68.929  1.00  0.00    -0.177 OA 
HETATM   19  H   UNL     1      -8.352  14.699  65.899  1.00  0.00     0.000 HD 
BRANCH  17  20
HETATM   20  C   UNL     1      -8.187  16.976  67.054  1.00  0.00    -0.232 A  
HETATM   21  C   UNL     1      -6.910  17.186  66.503  1.00  0.00    -0.295 A  
HETATM   22  H   UNL     1      -9.383  21.138  66.065  1.00  0.00     0.000 HD 
HETATM   23  C   UNL     1      -9.166  17.993  67.031  1.00  0.00    -0.265 A  
HETATM   24  C   UNL     1      -8.795  19.223  66.470  1.00  0.00    -0.346 A  
HETATM   25  C   UNL     1      -6.594  18.401  65.910  1.00  0.00    -0.306 A  
HETATM   26  C   UNL     1     -10.564  17.810  67.567  1.00  0.00    -0.365 C  
HETATM   27  O   UNL     1      -9.634  20.304  66.445  1.00  0.00    -0.382 OA 
HETATM   28  C   UNL     1      -7.539  19.422  65.900  1.00  0.00    -0.286 A  
ENDBRANCH  17  20
ENDBRANCH  15  16
BRANCH  15  29
HETATM   29  C   UNL     1     -10.039  12.579  66.720  1.00  0.00    -0.223 C  
BRANCH  29  30
HETATM   30  S   UNL     1     -11.533  13.635  66.657  1.00  0.00    -0.360 SA 
BRANCH  30  31
HETATM   31  C   UNL     1     -11.928  13.937  68.363  1.00  0.00    -0.356 A  
HETATM   32  C   UNL     1     -12.066  13.000  70.603  1.00  0.00    -0.333 A  
HETATM   33  C   UNL     1     -11.892  12.835  69.229  1.00  0.00    -0.358 A  
HETATM   34  C   UNL     1     -12.327  15.374  70.273  1.00  0.00    -0.425 A  
HETATM   35  C   UNL     1     -12.277  14.274  71.126  1.00  0.00    -0.431 A  
HETATM   36  C   UNL     1     -12.153  15.208  68.895  1.00  0.00    -0.227 A  
ENDBRANCH  30  31
ENDBRANCH  29  30
ENDBRANCH  15  29
ENDBRANCH  12  15
ENDBRANCH  11  12
ENDBRANCH   8  11
BRANCH   9  37
HETATM   37  C   UNL     1      -9.591   8.568  67.438  1.00  0.00    -0.160 C  
HETATM   38  C   UNL     1     -10.434   7.025  70.045  1.00  0.00    -0.233 C  
HETATM   39  O   UNL     1     -10.781   8.387  67.188  1.00  0.00    -0.291 OA 
HETATM   40  C   UNL     1      -8.994   8.729  71.150  1.00  0.00    -0.280 C  
HETATM   41  C   UNL     1      -9.912   8.465  69.945  1.00  0.00    -0.190 C  
HETATM   42  N   UNL     1      -9.104   8.655  68.732  1.00  0.00    -0.142 N  
HETATM   43  C   UNL     1     -11.089   9.449  70.003  1.00  0.00    -0.248 C  
HETATM   44  H   UNL     1      -8.114   8.867  68.852  1.00  0.00     0.000 HD 
ENDBRANCH   9  37
TORSDOF 9
ENDMDL
MODEL      127
REMARK 921   NORMALIZED FREE ENERGY PREDICTED BY IDOCK:   -5.28 KCAL/MOL
REMARK 922        TOTAL FREE ENERGY PREDICTED BY IDOCK:  -10.89 KCAL/MOL
REMARK 923 INTER-LIGAND FREE ENERGY PREDICTED BY IDOCK:   -8.68 KCAL/MOL
REMARK 924 INTRA-LIGAND FREE ENERGY PREDICTED BY IDOCK:   -2.21 KCAL/MOL
REMARK 927      BINDING AFFINITY PREDICTED BY RF-SCORE:    0.00 PKD
ROOT
HETATM    1  C   UNL     1      -6.715   8.092  64.208  1.00  0.00    -0.066 C  
HETATM    2  C   UNL     1      -6.506   6.898  63.272  1.00  0.00    -0.043 C  
HETATM    3  C   UNL     1      -6.730   5.571  63.987  1.00  0.00    -0.042 C  
HETATM    4  C   UNL     1      -5.801   5.435  65.186  1.00  0.00    -0.021 C  
HETATM    5  C   UNL     1      -5.900   6.613  66.154  1.00  0.00    -0.025 C  
HETATM    6  C   UNL     1      -5.860   7.991  65.473  1.00  0.00    -0.037 C  
HETATM    7  C   UNL     1      -6.239   9.142  66.420  1.00  0.00    -0.065 C  
HETATM    8  N   UNL     1      -7.617   9.087  66.918  1.00  0.00    -0.093 NA 
HETATM    9  C   UNL     1      -8.630   8.738  65.906  1.00  0.00    -0.154 C  
HETATM   10  C   UNL     1      -8.205   8.336  64.481  1.00  0.00    -0.138 C  
ENDROOT
BRANCH   8  11
HETATM   11  C   UNL     1      -7.957  10.322  67.670  1.00  0.00    -0.102 C  
BRANCH  11  12
HETATM   12  C   UNL     1      -8.708  10.210  69.039  1.00  0.00    -0.161 C  
HETATM   13  H   UNL     1      -8.350  10.628  70.953  1.00  0.00     0.000 HD 
HETATM   14  O   UNL     1      -7.895  10.697  70.123  1.00  0.00     0.030 OA 
BRANCH  12  15
HETATM   15  C   UNL     1     -10.109  10.878  69.053  1.00  0.00    -0.196 C  
BRANCH  15  16
HETATM   16  N   UNL     1     -10.393  11.667  67.848  1.00  0.00    -0.184 N  
HETATM   17  C   UNL     1     -11.332  12.672  67.806  1.00  0.00    -0.297 C  
HETATM   18  O   UNL     1     -12.032  13.006  68.755  1.00  0.00    -0.314 OA 
HETATM   19  H   UNL     1      -9.869  11.459  66.998  1.00  0.00     0.000 HD 
BRANCH  17  20
HETATM   20  C   UNL     1     -11.523  13.345  66.500  1.00  0.00    -0.372 A  
HETATM   21  C   UNL     1     -12.141  12.609  65.473  1.00  0.00    -0.515 A  
HETATM   22  H   UNL     1     -10.797  16.742  63.731  1.00  0.00     0.000 HD 
HETATM   23  C   UNL     1     -11.044  14.654  66.270  1.00  0.00    -0.336 A  
HETATM   24  C   UNL     1     -11.183  15.165  64.972  1.00  0.00    -0.409 A  
HETATM   25  C   UNL     1     -12.306  13.167  64.212  1.00  0.00    -0.421 A  
HETATM   26  C   UNL     1     -10.413  15.505  67.343  1.00  0.00    -0.281 C  
HETATM   27  O   UNL     1     -10.704  16.395  64.611  1.00  0.00    -0.693 OA 
HETATM   28  C   UNL     1     -11.819  14.446  63.962  1.00  0.00    -0.222 A  
ENDBRANCH  17  20
ENDBRANCH  15  16
BRANCH  15  29
HETATM   29  C   UNL     1     -11.260   9.891  69.411  1.00  0.00    -0.153 C  
BRANCH  29  30
HETATM   30  S   UNL     1     -11.750   9.847  71.174  1.00  0.00    -0.403 SA 
BRANCH  30  31
HETATM   31  C   UNL     1     -11.063   8.325  71.782  1.00  0.00    -0.278 A  
HETATM   32  C   UNL     1      -9.218   7.269  72.963  1.00  0.00    -0.190 A  
HETATM   33  C   UNL     1      -9.783   8.387  72.350  1.00  0.00    -0.376 A  
HETATM   34  C   UNL     1     -11.201   5.999  72.445  1.00  0.00    -0.338 A  
HETATM   35  C   UNL     1      -9.932   6.074  73.016  1.00  0.00    -0.186 A  
HETATM   36  C   UNL     1     -11.765   7.120  71.829  1.00  0.00    -0.324 A  
ENDBRANCH  30  31
ENDBRANCH  29  30
ENDBRANCH  15  29
ENDBRANCH  12  15
ENDBRANCH  11  12
ENDBRANCH   8  11
BRANCH   9  37
HETATM   37  C   UNL     1      -9.558   7.620  66.478  1.00  0.00    -0.186 C  
HETATM   38  C   UNL     1     -10.478   4.621  66.264  1.00  0.00    -0.249 C  
HETATM   39  O   UNL     1     -10.760   7.764  66.690  1.00  0.00    -0.231 OA 
HETATM   40  C   UNL     1      -8.388   4.208  67.552  1.00  0.00    -0.098 C  
HETATM   41  C   UNL     1      -9.512   5.226  67.291  1.00  0.00    -0.127 C  
HETATM   42  N   UNL     1      -8.881   6.448  66.775  1.00  0.00    -0.121 N  
HETATM   43  C   UNL     1     -10.252   5.484  68.612  1.00  0.00    -0.261 C  
HETATM   44  H   UNL     1      -7.873   6.433  66.623  1.00  0.00     0.000 HD 
ENDBRANCH   9  37
TORSDOF 9
ENDMDL
MODEL      128
REMARK 921   NORMALIZED FREE ENERGY PREDICTED BY IDOCK:   -5.27 KCAL/MOL
REMARK 922        TOTAL FREE ENERGY PREDICTED BY IDOCK:  -10.88 KCAL/MOL
REMARK 923 INTER-LIGAND FREE ENERGY PREDICTED BY IDOCK:   -8.62 KCAL/MOL
REMARK 924 INTRA-LIGAND FREE ENERGY PREDICTED BY IDOCK:   -2.26 KCAL/MOL
REMARK 927      BINDING AFFINITY PREDICTED BY RF-SCORE:    0.00 PKD
ROOT
HETATM    1  C   UNL     1      -7.765   4.238  69.964  1.00  0.00    -0.052 C  
HETATM    2  C   UNL     1      -7.349   2.768  69.852  1.00  0.00    -0.044 C  
HETATM    3  C   UNL     1      -7.773   2.158  68.522  1.00  0.00    -0.053 C  
HETATM    4  C   UNL     1      -9.279   2.268  68.328  1.00  0.00    -0.243 C  
HETATM    5  C   UNL     1      -9.798   3.698  68.476  1.00  0.00     0.076 C  
HETATM    6  C   UNL     1      -9.261   4.435  69.713  1.00  0.00    -0.199 C  
HETATM    7  C   UNL     1      -9.565   5.943  69.695  1.00  0.00    -0.148 C  
HETATM    8  N   UNL     1      -8.923   6.677  68.599  1.00  0.00    -0.125 NA 
HETATM    9  C   UNL     1      -7.517   6.309  68.345  1.00  0.00    -0.088 C  
HETATM   10  C   UNL     1      -6.865   5.140  69.109  1.00  0.00    -0.054 C  
ENDROOT
BRANCH   8  11
HETATM   11  C   UNL     1      -9.114   8.141  68.759  1.00  0.00    -0.144 C  
BRANCH  11  12
HETATM   12  C   UNL     1      -9.367   8.734  70.185  1.00  0.00    -0.169 C  
HETATM   13  H   UNL     1      -8.282   9.320  71.749  1.00  0.00     0.000 HD 
HETATM   14  O   UNL     1      -8.128   8.960  70.884  1.00  0.00    -0.135 OA 
BRANCH  12  15
HETATM   15  C   UNL     1     -10.251  10.010  70.196  1.00  0.00    -0.242 C  
BRANCH  15  16
HETATM   16  N   UNL     1     -10.686  10.432  68.858  1.00  0.00    -0.209 N  
HETATM   17  C   UNL     1     -10.014  11.366  68.104  1.00  0.00    -0.189 C  
HETATM   18  O   UNL     1      -8.999  11.948  68.465  1.00  0.00    -0.176 OA 
HETATM   19  H   UNL     1     -11.531  10.012  68.469  1.00  0.00     0.000 HD 
BRANCH  17  20
HETATM   20  C   UNL     1     -10.609  11.708  66.790  1.00  0.00    -0.280 A  
HETATM   21  C   UNL     1     -11.756  12.523  66.787  1.00  0.00    -0.453 A  
HETATM   22  H   UNL     1     -10.880  11.182  62.388  1.00  0.00     0.000 HD 
HETATM   23  C   UNL     1     -10.088  11.181  65.588  1.00  0.00    -0.304 A  
HETATM   24  C   UNL     1     -10.781  11.480  64.406  1.00  0.00    -0.344 A  
HETATM   25  C   UNL     1     -12.388  12.840  65.593  1.00  0.00    -0.444 A  
HETATM   26  C   UNL     1      -8.839  10.338  65.526  1.00  0.00    -0.191 C  
HETATM   27  O   UNL     1     -10.411  10.980  63.189  1.00  0.00    -0.325 OA 
HETATM   28  C   UNL     1     -11.901  12.311  64.402  1.00  0.00    -0.464 A  
ENDBRANCH  17  20
ENDBRANCH  15  16
BRANCH  15  29
HETATM   29  C   UNL     1     -11.426   9.939  71.216  1.00  0.00    -0.361 C  
BRANCH  29  30
HETATM   30  S   UNL     1     -13.008  10.672  70.659  1.00  0.00    -0.160 SA 
BRANCH  30  31
HETATM   31  C   UNL     1     -12.881  12.385  71.114  1.00  0.00    -0.205 A  
HETATM   32  C   UNL     1     -12.231  14.621  70.413  1.00  0.00    -0.391 A  
HETATM   33  C   UNL     1     -12.263  13.244  70.194  1.00  0.00    -0.376 A  
HETATM   34  C   UNL     1     -13.428  14.309  72.483  1.00  0.00    -0.613 A  
HETATM   35  C   UNL     1     -12.821  15.155  71.556  1.00  0.00    -0.442 A  
HETATM   36  C   UNL     1     -13.459  12.928  72.263  1.00  0.00    -0.631 A  
ENDBRANCH  30  31
ENDBRANCH  29  30
ENDBRANCH  15  29
ENDBRANCH  12  15
ENDBRANCH  11  12
ENDBRANCH   8  11
BRANCH   9  37
HETATM   37  C   UNL     1      -7.322   6.068  66.815  1.00  0.00    -0.079 C  
HETATM   38  C   UNL     1      -7.812   7.169  63.910  1.00  0.00    -0.109 C  
HETATM   39  O   UNL     1      -7.591   5.014  66.244  1.00  0.00    -0.085 OA 
HETATM   40  C   UNL     1      -5.811   8.557  64.431  1.00  0.00    -0.065 C  
HETATM   41  C   UNL     1      -6.505   7.213  64.714  1.00  0.00    -0.037 C  
HETATM   42  N   UNL     1      -6.765   7.153  66.159  1.00  0.00    -0.052 N  
HETATM   43  C   UNL     1      -5.575   6.080  64.256  1.00  0.00    -0.018 C  
HETATM   44  H   UNL     1      -6.517   7.969  66.718  1.00  0.00     0.000 HD 
ENDBRANCH   9  37
TORSDOF 9
ENDMDL
MODEL      129
REMARK 921   NORMALIZED FREE ENERGY PREDICTED BY IDOCK:   -5.23 KCAL/MOL
REMARK 922        TOTAL FREE ENERGY PREDICTED BY IDOCK:  -10.81 KCAL/MOL
REMARK 923 INTER-LIGAND FREE ENERGY PREDICTED BY IDOCK:   -7.73 KCAL/MOL
REMARK 924 INTRA-LIGAND FREE ENERGY PREDICTED BY IDOCK:   -3.09 KCAL/MOL
REMARK 927      BINDING AFFINITY PREDICTED BY RF-SCORE:    0.00 PKD
ROOT
HETATM    1  C   UNL     1      -9.696  12.941  66.840  1.00  0.00    -0.240 C  
HETATM    2  C   UNL     1     -10.166  14.397  66.928  1.00  0.00    -0.265 C  
HETATM    3  C   UNL     1     -11.677  14.496  67.100  1.00  0.00    -0.420 C  
HETATM    4  C   UNL     1     -12.401  13.805  65.952  1.00  0.00    -0.516 C  
HETATM    5  C   UNL     1     -11.957  12.356  65.752  1.00  0.00    -0.437 C  
HETATM    6  C   UNL     1     -10.433  12.162  65.748  1.00  0.00    -0.287 C  
HETATM    7  C   UNL     1     -10.014  10.684  65.827  1.00  0.00    -0.257 C  
HETATM    8  N   UNL     1     -10.406  10.009  67.069  1.00  0.00    -0.236 NA 
HETATM    9  C   UNL     1     -10.192  10.796  68.298  1.00  0.00    -0.167 C  
HETATM   10  C   UNL     1      -9.721  12.261  68.215  1.00  0.00    -0.219 C  
ENDROOT
BRANCH   8  11
HETATM   11  C   UNL     1      -9.808   8.652  67.145  1.00  0.00    -0.207 C  
BRANCH  11  12
HETATM   12  C   UNL     1     -10.610   7.493  67.827  1.00  0.00    -0.206 C  
HETATM   13  H   UNL     1     -11.863   6.047  67.274  1.00  0.00     0.000 HD 
HETATM   14  O   UNL     1     -11.377   6.750  66.861  1.00  0.00    -0.318 OA 
BRANCH  12  15
HETATM   15  C   UNL     1      -9.742   6.544  68.695  1.00  0.00    -0.127 C  
BRANCH  15  16
HETATM   16  N   UNL     1      -8.842   7.251  69.615  1.00  0.00    -0.141 N  
HETATM   17  C   UNL     1      -7.472   7.122  69.581  1.00  0.00    -0.098 C  
HETATM   18  O   UNL     1      -6.863   6.403  68.797  1.00  0.00    -0.068 OA 
HETATM   19  H   UNL     1      -9.253   7.868  70.315  1.00  0.00     0.000 HD 
BRANCH  17  20
HETATM   20  C   UNL     1      -6.711   7.875  70.605  1.00  0.00    -0.038 A  
HETATM   21  C   UNL     1      -6.386   7.205  71.799  1.00  0.00    -0.040 A  
HETATM   22  H   UNL     1      -5.008  11.663  72.180  1.00  0.00     0.000 HD 
HETATM   23  C   UNL     1      -6.381   9.236  70.422  1.00  0.00    -0.060 A  
HETATM   24  C   UNL     1      -5.750   9.889  71.490  1.00  0.00     0.004 A  
HETATM   25  C   UNL     1      -5.716   7.870  72.816  1.00  0.00    -0.045 A  
HETATM   26  C   UNL     1      -6.665   9.993  69.149  1.00  0.00    -0.055 C  
HETATM   27  O   UNL     1      -5.435  11.220  71.457  1.00  0.00    -0.343 OA 
HETATM   28  C   UNL     1      -5.404   9.217  72.661  1.00  0.00    -0.077 A  
ENDBRANCH  17  20
ENDBRANCH  15  16
BRANCH  15  29
HETATM   29  C   UNL     1     -10.567   5.427  69.402  1.00  0.00    -0.225 C  
BRANCH  29  30
HETATM   30  S   UNL     1     -11.256   5.863  71.041  1.00  0.00    -0.136 SA 
BRANCH  30  31
HETATM   31  C   UNL     1     -10.044   5.269  72.197  1.00  0.00    -0.190 A  
HETATM   32  C   UNL     1      -8.299   3.635  72.637  1.00  0.00    -0.086 A  
HETATM   33  C   UNL     1      -9.351   4.102  71.849  1.00  0.00    -0.190 A  
HETATM   34  C   UNL     1      -8.618   5.489  74.144  1.00  0.00    -0.116 A  
HETATM   35  C   UNL     1      -7.928   4.334  73.782  1.00  0.00    -0.089 A  
HETATM   36  C   UNL     1      -9.673   5.957  73.354  1.00  0.00    -0.158 A  
ENDBRANCH  30  31
ENDBRANCH  29  30
ENDBRANCH  15  29
ENDBRANCH  12  15
ENDBRANCH  11  12
ENDBRANCH   8  11
BRANCH   9  37
HETATM   37  C   UNL     1     -11.487  10.743  69.168  1.00  0.00    -0.298 C  
HETATM   38  C   UNL     1     -13.529   8.913  70.709  1.00  0.00     0.331 C  
HETATM   39  O   UNL     1     -12.531  11.327  68.888  1.00  0.00    -0.433 OA 
HETATM   40  C   UNL     1     -11.773   8.965  72.473  1.00  0.00    -0.133 C  
HETATM   41  C   UNL     1     -12.398   9.757  71.312  1.00  0.00    -0.371 C  
HETATM   42  N   UNL     1     -11.333  10.003  70.330  1.00  0.00    -0.286 N  
HETATM   43  C   UNL     1     -12.969  11.070  71.869  1.00  0.00    -0.485 C  
HETATM   44  H   UNL     1     -10.416   9.599  70.515  1.00  0.00     0.000 HD 
ENDBRANCH   9  37
TORSDOF 9
ENDMDL
MODEL      130
REMARK 921   NORMALIZED FREE ENERGY PREDICTED BY IDOCK:   -5.22 KCAL/MOL
REMARK 922        TOTAL FREE ENERGY PREDICTED BY IDOCK:  -10.80 KCAL/MOL
REMARK 923 INTER-LIGAND FREE ENERGY PREDICTED BY IDOCK:   -9.09 KCAL/MOL
REMARK 924 INTRA-LIGAND FREE ENERGY PREDICTED BY IDOCK:   -1.72 KCAL/MOL
REMARK 927      BINDING AFFINITY PREDICTED BY RF-SCORE:    0.00 PKD
ROOT
HETATM    1  C   UNL     1     -10.003  14.138  65.469  1.00  0.00    -0.323 C  
HETATM    2  C   UNL     1     -10.954  14.895  64.537  1.00  0.00    -0.216 C  
HETATM    3  C   UNL     1     -12.406  14.487  64.755  1.00  0.00    -0.403 C  
HETATM    4  C   UNL     1     -12.587  12.989  64.545  1.00  0.00    -0.387 C  
HETATM    5  C   UNL     1     -11.637  12.148  65.397  1.00  0.00    -0.383 C  
HETATM    6  C   UNL     1     -10.175  12.622  65.362  1.00  0.00    -0.301 C  
HETATM    7  C   UNL     1      -9.297  11.947  66.429  1.00  0.00    -0.226 C  
HETATM    8  N   UNL     1      -9.684  12.250  67.811  1.00  0.00    -0.194 NA 
HETATM    9  C   UNL     1     -10.021  13.663  68.066  1.00  0.00    -0.247 C  
HETATM   10  C   UNL     1     -10.080  14.674  66.904  1.00  0.00    -0.255 C  
ENDROOT
BRANCH   8  11
HETATM   11  C   UNL     1      -8.684  11.716  68.770  1.00  0.00    -0.010 C  
BRANCH  11  12
HETATM   12  C   UNL     1      -7.866  10.435  68.397  1.00  0.00    -0.104 C  
HETATM   13  H   UNL     1      -6.062   9.678  68.774  1.00  0.00     0.000 HD 
HETATM   14  O   UNL     1      -6.559  10.455  69.001  1.00  0.00    -0.054 OA 
BRANCH  12  15
HETATM   15  C   UNL     1      -8.598   9.100  68.704  1.00  0.00    -0.128 C  
BRANCH  15  16
HETATM   16  N   UNL     1      -8.241   8.012  67.785  1.00  0.00    -0.127 N  
HETATM   17  C   UNL     1      -9.008   7.656  66.700  1.00  0.00    -0.156 C  
HETATM   18  O   UNL     1     -10.066   8.194  66.393  1.00  0.00    -0.241 OA 
HETATM   19  H   UNL     1      -7.380   7.493  67.961  1.00  0.00     0.000 HD 
BRANCH  17  20
HETATM   20  C   UNL     1      -8.525   6.509  65.896  1.00  0.00    -0.147 A  
HETATM   21  C   UNL     1      -7.457   6.739  65.010  1.00  0.00    -0.092 A  
HETATM   22  H   UNL     1      -8.943   2.337  64.428  1.00  0.00     0.000 HD 
HETATM   23  C   UNL     1      -9.154   5.246  65.965  1.00  0.00    -0.154 A  
HETATM   24  C   UNL     1      -8.689   4.253  65.091  1.00  0.00    -0.126 A  
HETATM   25  C   UNL     1      -6.990   5.717  64.194  1.00  0.00    -0.051 A  
HETATM   26  C   UNL     1     -10.273   4.930  66.925  1.00  0.00    -0.254 C  
HETATM   27  O   UNL     1      -9.257   3.011  65.021  1.00  0.00    -0.142 OA 
HETATM   28  C   UNL     1      -7.613   4.474  64.233  1.00  0.00    -0.072 A  
ENDBRANCH  17  20
ENDBRANCH  15  16
BRANCH  15  29
HETATM   29  C   UNL     1      -8.508   8.678  70.201  1.00  0.00    -0.135 C  
BRANCH  29  30
HETATM   30  S   UNL     1      -9.973   9.070  71.227  1.00  0.00    -0.313 SA 
BRANCH  30  31
HETATM   31  C   UNL     1     -10.229   7.606  72.202  1.00  0.00    -0.207 A  
HETATM   32  C   UNL     1     -10.530   5.193  72.188  1.00  0.00    -0.281 A  
HETATM   33  C   UNL     1     -10.443   6.408  71.507  1.00  0.00    -0.256 A  
HETATM   34  C   UNL     1     -10.197   6.353  74.276  1.00  0.00    -0.362 A  
HETATM   35  C   UNL     1     -10.399   5.165  73.574  1.00  0.00    -0.253 A  
HETATM   36  C   UNL     1     -10.112   7.570  73.593  1.00  0.00    -0.343 A  
ENDBRANCH  30  31
ENDBRANCH  29  30
ENDBRANCH  15  29
ENDBRANCH  12  15
ENDBRANCH  11  12
ENDBRANCH   8  11
BRANCH   9  37
HETATM   37  C   UNL     1     -11.370  13.732  68.849  1.00  0.00    -0.288 C  
HETATM   38  C   UNL     1     -12.913  12.947  71.474  1.00  0.00    -0.388 C  
HETATM   39  O   UNL     1     -12.464  13.454  68.363  1.00  0.00    -0.041 OA 
HETATM   40  C   UNL     1     -11.727  14.932  72.398  1.00  0.00    -0.320 C  
HETATM   41  C   UNL     1     -12.320  14.318  71.119  1.00  0.00    -0.368 C  
HETATM   42  N   UNL     1     -11.224  14.188  70.149  1.00  0.00    -0.481 N  
HETATM   43  C   UNL     1     -13.429  15.246  70.601  1.00  0.00    -0.257 C  
HETATM   44  H   UNL     1     -10.288  14.453  70.455  1.00  0.00     0.000 HD 
ENDBRANCH   9  37
TORSDOF 9
ENDMDL
MODEL      131
REMARK 921   NORMALIZED FREE ENERGY PREDICTED BY IDOCK:   -5.20 KCAL/MOL
REMARK 922        TOTAL FREE ENERGY PREDICTED BY IDOCK:  -10.77 KCAL/MOL
REMARK 923 INTER-LIGAND FREE ENERGY PREDICTED BY IDOCK:   -8.78 KCAL/MOL
REMARK 924 INTRA-LIGAND FREE ENERGY PREDICTED BY IDOCK:   -1.99 KCAL/MOL
REMARK 927      BINDING AFFINITY PREDICTED BY RF-SCORE:    0.00 PKD
ROOT
HETATM    1  C   UNL     1      -9.000  10.255  64.659  1.00  0.00    -0.240 C  
HETATM    2  C   UNL     1      -8.888   9.856  63.183  1.00  0.00    -0.254 C  
HETATM    3  C   UNL     1      -7.727   8.900  62.941  1.00  0.00    -0.116 C  
HETATM    4  C   UNL     1      -6.410   9.516  63.393  1.00  0.00    -0.101 C  
HETATM    5  C   UNL     1      -6.443   9.996  64.844  1.00  0.00    -0.125 C  
HETATM    6  C   UNL     1      -7.688  10.823  65.204  1.00  0.00     0.100 C  
HETATM    7  C   UNL     1      -7.840  11.055  66.717  1.00  0.00    -0.149 C  
HETATM    8  N   UNL     1      -8.049   9.832  67.499  1.00  0.00    -0.113 NA 
HETATM    9  C   UNL     1      -8.995   8.869  66.905  1.00  0.00    -0.128 C  
HETATM   10  C   UNL     1      -9.584   9.116  65.503  1.00  0.00    -0.239 C  
ENDROOT
BRANCH   8  11
HETATM   11  C   UNL     1      -8.369  10.156  68.912  1.00  0.00    -0.130 C  
BRANCH  11  12
HETATM   12  C   UNL     1      -9.739  10.829  69.258  1.00  0.00    -0.120 C  
HETATM   13  H   UNL     1     -10.929  12.227  68.485  1.00  0.00     0.000 HD 
HETATM   14  O   UNL     1     -10.098  11.819  68.276  1.00  0.00    -0.186 OA 
BRANCH  12  15
HETATM   15  C   UNL     1     -10.902   9.825  69.483  1.00  0.00    -0.240 C  
BRANCH  15  16
HETATM   16  N   UNL     1     -10.599   8.794  70.485  1.00  0.00    -0.207 N  
HETATM   17  C   UNL     1     -10.686   7.445  70.231  1.00  0.00    -0.237 C  
HETATM   18  O   UNL     1     -11.033   6.963  69.159  1.00  0.00    -0.233 OA 
HETATM   19  H   UNL     1     -10.311   9.094  71.416  1.00  0.00     0.000 HD 
BRANCH  17  20
HETATM   20  C   UNL     1     -10.384   6.538  71.363  1.00  0.00    -0.234 A  
HETATM   21  C   UNL     1     -11.473   5.970  72.051  1.00  0.00    -0.343 A  
HETATM   22  H   UNL     1      -7.525   4.725  74.238  1.00  0.00     0.000 HD 
HETATM   23  C   UNL     1      -9.056   6.302  71.781  1.00  0.00    -0.144 A  
HETATM   24  C   UNL     1      -8.878   5.510  72.925  1.00  0.00    -0.117 A  
HETATM   25  C   UNL     1     -11.256   5.150  73.150  1.00  0.00    -0.398 A  
HETATM   26  C   UNL     1      -7.851   6.848  71.058  1.00  0.00    -0.097 C  
HETATM   27  O   UNL     1      -7.646   5.261  73.463  1.00  0.00    -0.093 OA 
HETATM   28  C   UNL     1      -9.956   4.926  73.589  1.00  0.00    -0.186 A  
ENDBRANCH  17  20
ENDBRANCH  15  16
BRANCH  15  29
HETATM   29  C   UNL     1     -12.275  10.517  69.729  1.00  0.00    -0.181 C  
BRANCH  29  30
HETATM   30  S   UNL     1     -12.603  11.046  71.451  1.00  0.00    -0.367 SA 
BRANCH  30  31
HETATM   31  C   UNL     1     -12.879  12.797  71.327  1.00  0.00    -0.262 A  
HETATM   32  C   UNL     1     -13.946  14.751  72.306  1.00  0.00    -0.598 A  
HETATM   33  C   UNL     1     -13.765  13.369  72.250  1.00  0.00    -0.705 A  
HETATM   34  C   UNL     1     -12.362  15.018  70.507  1.00  0.00    -0.411 A  
HETATM   35  C   UNL     1     -13.238  15.577  71.437  1.00  0.00    -0.587 A  
HETATM   36  C   UNL     1     -12.183  13.633  70.452  1.00  0.00    -0.434 A  
ENDBRANCH  30  31
ENDBRANCH  29  30
ENDBRANCH  15  29
ENDBRANCH  12  15
ENDBRANCH  11  12
ENDBRANCH   8  11
BRANCH   9  37
HETATM   37  C   UNL     1      -8.354   7.446  66.928  1.00  0.00    -0.122 C  
HETATM   38  C   UNL     1      -8.633   4.466  67.895  1.00  0.00    -0.110 C  
HETATM   39  O   UNL     1      -7.183   7.222  67.227  1.00  0.00    -0.087 OA 
HETATM   40  C   UNL     1     -10.124   4.284  65.910  1.00  0.00    -0.223 C  
HETATM   41  C   UNL     1      -8.900   5.016  66.487  1.00  0.00    -0.112 C  
HETATM   42  N   UNL     1      -9.227   6.448  66.527  1.00  0.00    -0.153 N  
HETATM   43  C   UNL     1      -7.692   4.735  65.582  1.00  0.00    -0.090 C  
HETATM   44  H   UNL     1     -10.165   6.727  66.239  1.00  0.00     0.000 HD 
ENDBRANCH   9  37
TORSDOF 9
ENDMDL
MODEL      132
REMARK 921   NORMALIZED FREE ENERGY PREDICTED BY IDOCK:   -5.19 KCAL/MOL
REMARK 922        TOTAL FREE ENERGY PREDICTED BY IDOCK:  -10.75 KCAL/MOL
REMARK 923 INTER-LIGAND FREE ENERGY PREDICTED BY IDOCK:   -8.43 KCAL/MOL
REMARK 924 INTRA-LIGAND FREE ENERGY PREDICTED BY IDOCK:   -2.32 KCAL/MOL
REMARK 927      BINDING AFFINITY PREDICTED BY RF-SCORE:    0.00 PKD
ROOT
HETATM    1  C   UNL     1      -8.459   5.281  69.095  1.00  0.00    -0.098 C  
HETATM    2  C   UNL     1      -7.978   3.827  69.069  1.00  0.00    -0.062 C  
HETATM    3  C   UNL     1      -8.079   3.221  67.675  1.00  0.00    -0.081 C  
HETATM    4  C   UNL     1      -9.510   3.284  67.157  1.00  0.00    -0.178 C  
HETATM    5  C   UNL     1     -10.097   4.694  67.195  1.00  0.00    -0.187 C  
HETATM    6  C   UNL     1      -9.870   5.433  68.524  1.00  0.00    -0.199 C  
HETATM    7  C   UNL     1     -10.215   6.930  68.448  1.00  0.00    -0.176 C  
HETATM    8  N   UNL     1      -9.375   7.698  67.523  1.00  0.00    -0.137 NA 
HETATM    9  C   UNL     1      -7.936   7.380  67.581  1.00  0.00    -0.114 C  
HETATM   10  C   UNL     1      -7.426   6.223  68.463  1.00  0.00    -0.088 C  
ENDROOT
BRANCH   8  11
HETATM   11  C   UNL     1      -9.647   9.153  67.646  1.00  0.00    -0.149 C  
BRANCH  11  12
HETATM   12  C   UNL     1      -9.930   9.769  69.056  1.00  0.00    -0.184 C  
HETATM   13  H   UNL     1      -8.932  10.797  70.440  1.00  0.00     0.000 HD 
HETATM   14  O   UNL     1      -8.761  10.424  69.584  1.00  0.00    -0.146 OA 
BRANCH  12  15
HETATM   15  C   UNL     1     -11.163  10.711  69.104  1.00  0.00    -0.265 C  
BRANCH  15  16
HETATM   16  N   UNL     1     -11.527  11.266  67.794  1.00  0.00    -0.290 N  
HETATM   17  C   UNL     1     -10.880  12.336  67.221  1.00  0.00    -0.245 C  
HETATM   18  O   UNL     1      -9.950  12.943  67.739  1.00  0.00    -0.218 OA 
HETATM   19  H   UNL     1     -12.299  10.836  67.284  1.00  0.00     0.000 HD 
BRANCH  17  20
HETATM   20  C   UNL     1     -11.398  12.797  65.911  1.00  0.00    -0.363 A  
HETATM   21  C   UNL     1     -11.442  11.860  64.862  1.00  0.00    -0.315 A  
HETATM   22  H   UNL     1     -12.734  16.033  63.177  1.00  0.00     0.000 HD 
HETATM   23  C   UNL     1     -11.772  14.142  65.701  1.00  0.00    -0.357 A  
HETATM   24  C   UNL     1     -12.152  14.503  64.400  1.00  0.00    -0.472 A  
HETATM   25  C   UNL     1     -11.872  12.242  63.599  1.00  0.00    -0.610 A  
HETATM   26  C   UNL     1     -11.786  15.179  66.796  1.00  0.00    -0.070 C  
HETATM   27  O   UNL     1     -12.476  15.788  64.058  1.00  0.00    -0.698 OA 
HETATM   28  C   UNL     1     -12.221  13.569  63.369  1.00  0.00    -0.338 A  
ENDBRANCH  17  20
ENDBRANCH  15  16
BRANCH  15  29
HETATM   29  C   UNL     1     -12.381  10.095  69.856  1.00  0.00     0.072 C  
BRANCH  29  30
HETATM   30  S   UNL     1     -12.174   9.881  71.663  1.00  0.00    -0.355 SA 
BRANCH  30  31
HETATM   31  C   UNL     1     -11.436   8.274  71.832  1.00  0.00    -0.310 A  
HETATM   32  C   UNL     1      -9.491   7.008  72.561  1.00  0.00    -0.161 A  
HETATM   33  C   UNL     1     -10.109   8.227  72.282  1.00  0.00    -0.370 A  
HETATM   34  C   UNL     1     -11.515   5.854  71.938  1.00  0.00    -0.287 A  
HETATM   35  C   UNL     1     -10.199   5.820  72.396  1.00  0.00    -0.224 A  
HETATM   36  C   UNL     1     -12.132   7.077  71.657  1.00  0.00    -0.384 A  
ENDBRANCH  30  31
ENDBRANCH  29  30
ENDBRANCH  15  29
ENDBRANCH  12  15
ENDBRANCH  11  12
ENDBRANCH   8  11
BRANCH   9  37
HETATM   37  C   UNL     1      -7.403   7.165  66.129  1.00  0.00    -0.075 C  
HETATM   38  C   UNL     1      -5.170   5.882  64.326  1.00  0.00    -0.016 C  
HETATM   39  O   UNL     1      -7.270   8.066  65.304  1.00  0.00    -0.062 OA 
HETATM   40  C   UNL     1      -6.530   3.821  64.641  1.00  0.00    -0.038 C  
HETATM   41  C   UNL     1      -6.592   5.355  64.559  1.00  0.00    -0.042 C  
HETATM   42  N   UNL     1      -7.136   5.838  65.837  1.00  0.00    -0.069 N  
HETATM   43  C   UNL     1      -7.492   5.745  63.377  1.00  0.00    -0.068 C  
HETATM   44  H   UNL     1      -7.329   5.146  66.560  1.00  0.00     0.000 HD 
ENDBRANCH   9  37
TORSDOF 9
ENDMDL
MODEL      133
REMARK 921   NORMALIZED FREE ENERGY PREDICTED BY IDOCK:   -5.19 KCAL/MOL
REMARK 922        TOTAL FREE ENERGY PREDICTED BY IDOCK:  -10.75 KCAL/MOL
REMARK 923 INTER-LIGAND FREE ENERGY PREDICTED BY IDOCK:   -9.23 KCAL/MOL
REMARK 924 INTRA-LIGAND FREE ENERGY PREDICTED BY IDOCK:   -1.52 KCAL/MOL
REMARK 927      BINDING AFFINITY PREDICTED BY RF-SCORE:    0.00 PKD
ROOT
HETATM    1  C   UNL     1      -6.456   5.969  67.175  1.00  0.00    -0.047 C  
HETATM    2  C   UNL     1      -6.209   5.133  65.915  1.00  0.00    -0.034 C  
HETATM    3  C   UNL     1      -7.234   5.429  64.828  1.00  0.00    -0.062 C  
HETATM    4  C   UNL     1      -8.649   5.171  65.330  1.00  0.00    -0.148 C  
HETATM    5  C   UNL     1      -8.971   5.924  66.620  1.00  0.00    -0.125 C  
HETATM    6  C   UNL     1      -7.884   5.812  67.700  1.00  0.00    -0.098 C  
HETATM    7  C   UNL     1      -8.093   6.792  68.868  1.00  0.00    -0.120 C  
HETATM    8  N   UNL     1      -8.006   8.207  68.493  1.00  0.00    -0.124 NA 
HETATM    9  C   UNL     1      -6.903   8.540  67.573  1.00  0.00    -0.071 C  
HETATM   10  C   UNL     1      -6.023   7.427  66.974  1.00  0.00    -0.042 C  
ENDROOT
BRANCH   8  11
HETATM   11  C   UNL     1      -8.033   9.076  69.697  1.00  0.00    -0.093 C  
BRANCH  11  12
HETATM   12  C   UNL     1      -8.846   8.625  70.956  1.00  0.00    -0.191 C  
HETATM   13  H   UNL     1      -8.568   8.512  72.925  1.00  0.00     0.000 HD 
HETATM   14  O   UNL     1      -8.075   8.786  72.161  1.00  0.00    -0.336 OA 
BRANCH  12  15
HETATM   15  C   UNL     1     -10.237   9.302  71.092  1.00  0.00    -0.317 C  
BRANCH  15  16
HETATM   16  N   UNL     1     -10.447  10.404  70.144  1.00  0.00    -0.445 N  
HETATM   17  C   UNL     1     -11.663  11.019  69.959  1.00  0.00    -0.355 C  
HETATM   18  O   UNL     1     -12.693  10.711  70.547  1.00  0.00    -0.340 OA 
HETATM   19  H   UNL     1      -9.651  10.729  69.596  1.00  0.00     0.000 HD 
BRANCH  17  20
HETATM   20  C   UNL     1     -11.713  12.090  68.935  1.00  0.00    -0.383 A  
HETATM   21  C   UNL     1     -11.535  11.714  67.591  1.00  0.00    -0.373 A  
HETATM   22  H   UNL     1     -11.827  16.382  67.799  1.00  0.00     0.000 HD 
HETATM   23  C   UNL     1     -11.867  13.446  69.297  1.00  0.00    -0.385 A  
HETATM   24  C   UNL     1     -11.799  14.394  68.266  1.00  0.00    -0.326 A  
HETATM   25  C   UNL     1     -11.524  12.676  66.590  1.00  0.00    -0.409 A  
HETATM   26  C   UNL     1     -12.103  13.903  70.715  1.00  0.00    -0.404 C  
HETATM   27  O   UNL     1     -11.873  15.740  68.497  1.00  0.00    -0.363 OA 
HETATM   28  C   UNL     1     -11.650  14.018  66.932  1.00  0.00    -0.407 A  
ENDBRANCH  17  20
ENDBRANCH  15  16
BRANCH  15  29
HETATM   29  C   UNL     1     -11.419   8.287  71.105  1.00  0.00    -0.273 C  
BRANCH  29  30
HETATM   30  S   UNL     1     -11.174   6.769  70.112  1.00  0.00    -0.347 SA 
BRANCH  30  31
HETATM   31  C   UNL     1     -10.720   5.532  71.305  1.00  0.00    -0.218 A  
HETATM   32  C   UNL     1     -11.070   4.662  73.549  1.00  0.00    -0.412 A  
HETATM   33  C   UNL     1     -11.272   5.653  72.588  1.00  0.00    -0.350 A  
HETATM   34  C   UNL     1      -9.750   3.412  71.965  1.00  0.00    -0.234 A  
HETATM   35  C   UNL     1     -10.313   3.537  73.234  1.00  0.00    -0.243 A  
HETATM   36  C   UNL     1      -9.952   4.406  71.003  1.00  0.00    -0.242 A  
ENDBRANCH  30  31
ENDBRANCH  29  30
ENDBRANCH  15  29
ENDBRANCH  12  15
ENDBRANCH  11  12
ENDBRANCH   8  11
BRANCH   9  37
HETATM   37  C   UNL     1      -7.460   9.412  66.404  1.00  0.00    -0.093 C  
HETATM   38  C   UNL     1      -7.112  10.300  63.407  1.00  0.00    -0.089 C  
HETATM   39  O   UNL     1      -7.756  10.600  66.511  1.00  0.00    -0.124 OA 
HETATM   40  C   UNL     1      -8.236   8.126  62.954  1.00  0.00    -0.120 C  
HETATM   41  C   UNL     1      -8.113   9.279  63.964  1.00  0.00    -0.150 C  
HETATM   42  N   UNL     1      -7.637   8.701  65.229  1.00  0.00    -0.086 N  
HETATM   43  C   UNL     1      -9.491   9.936  64.124  1.00  0.00    -0.254 C  
HETATM   44  H   UNL     1      -7.421   7.704  65.242  1.00  0.00     0.000 HD 
ENDBRANCH   9  37
TORSDOF 9
ENDMDL
MODEL      134
REMARK 921   NORMALIZED FREE ENERGY PREDICTED BY IDOCK:   -5.17 KCAL/MOL
REMARK 922        TOTAL FREE ENERGY PREDICTED BY IDOCK:  -10.73 KCAL/MOL
REMARK 923 INTER-LIGAND FREE ENERGY PREDICTED BY IDOCK:   -8.54 KCAL/MOL
REMARK 924 INTRA-LIGAND FREE ENERGY PREDICTED BY IDOCK:   -2.19 KCAL/MOL
REMARK 927      BINDING AFFINITY PREDICTED BY RF-SCORE:    0.00 PKD
ROOT
HETATM    1  C   UNL     1      -9.745   8.265  72.366  1.00  0.00    -0.373 C  
HETATM    2  C   UNL     1      -9.480   7.468  73.647  1.00  0.00    -0.338 C  
HETATM    3  C   UNL     1      -9.816   5.991  73.477  1.00  0.00    -0.171 C  
HETATM    4  C   UNL     1     -11.271   5.809  73.065  1.00  0.00    -0.289 C  
HETATM    5  C   UNL     1     -11.646   6.613  71.821  1.00  0.00    -0.347 C  
HETATM    6  C   UNL     1     -11.174   8.076  71.854  1.00  0.00    -0.335 C  
HETATM    7  C   UNL     1     -11.310   8.783  70.494  1.00  0.00    -0.227 C  
HETATM    8  N   UNL     1     -10.474   8.215  69.431  1.00  0.00    -0.222 NA 
HETATM    9  C   UNL     1      -9.097   7.878  69.836  1.00  0.00    -0.146 C  
HETATM   10  C   UNL     1      -8.664   8.001  71.310  1.00  0.00    -0.159 C  
ENDROOT
BRANCH   8  11
HETATM   11  C   UNL     1     -10.523   9.062  68.211  1.00  0.00    -0.200 C  
BRANCH  11  12
HETATM   12  C   UNL     1     -10.715  10.608  68.353  1.00  0.00    -0.222 C  
HETATM   13  H   UNL     1      -9.718  12.151  69.124  1.00  0.00     0.000 HD 
HETATM   14  O   UNL     1      -9.601  11.213  69.037  1.00  0.00    -0.175 OA 
BRANCH  12  15
HETATM   15  C   UNL     1     -11.007  11.339  67.015  1.00  0.00    -0.294 C  
BRANCH  15  16
HETATM   16  N   UNL     1     -10.700  12.775  67.053  1.00  0.00    -0.250 N  
HETATM   17  C   UNL     1     -11.612  13.752  66.726  1.00  0.00    -0.370 C  
HETATM   18  O   UNL     1     -12.761  13.533  66.361  1.00  0.00    -0.257 OA 
HETATM   19  H   UNL     1      -9.763  13.062  67.336  1.00  0.00     0.000 HD 
BRANCH  17  20
HETATM   20  C   UNL     1     -11.129  15.152  66.779  1.00  0.00    -0.307 A  
HETATM   21  C   UNL     1     -10.627  15.713  65.591  1.00  0.00    -0.393 A  
HETATM   22  H   UNL     1     -10.022  18.800  69.058  1.00  0.00     0.000 HD 
HETATM   23  C   UNL     1     -11.110  15.877  67.991  1.00  0.00    -0.334 A  
HETATM   24  C   UNL     1     -10.540  17.157  67.960  1.00  0.00    -0.374 A  
HETATM   25  C   UNL     1     -10.116  17.004  65.586  1.00  0.00    -0.136 A  
HETATM   26  C   UNL     1     -11.672  15.343  69.285  1.00  0.00    -0.367 C  
HETATM   27  O   UNL     1     -10.408  17.932  69.079  1.00  0.00    -0.361 OA 
HETATM   28  C   UNL     1     -10.069  17.723  66.776  1.00  0.00    -0.349 A  
ENDBRANCH  17  20
ENDBRANCH  15  16
BRANCH  15  29
HETATM   29  C   UNL     1     -10.391  10.625  65.775  1.00  0.00    -0.219 C  
BRANCH  29  30
HETATM   30  S   UNL     1      -8.592  10.864  65.533  1.00  0.00    -0.100 SA 
BRANCH  30  31
HETATM   31  C   UNL     1      -7.904   9.237  65.727  1.00  0.00    -0.098 A  
HETATM   32  C   UNL     1      -7.830   6.958  64.883  1.00  0.00    -0.122 A  
HETATM   33  C   UNL     1      -8.398   8.232  64.885  1.00  0.00    -0.145 A  
HETATM   34  C   UNL     1      -6.265   7.666  66.575  1.00  0.00    -0.045 A  
HETATM   35  C   UNL     1      -6.757   6.677  65.725  1.00  0.00    -0.048 A  
HETATM   36  C   UNL     1      -6.836   8.942  66.577  1.00  0.00    -0.079 A  
ENDBRANCH  30  31
ENDBRANCH  29  30
ENDBRANCH  15  29
ENDBRANCH  12  15
ENDBRANCH  11  12
ENDBRANCH   8  11
BRANCH   9  37
HETATM   37  C   UNL     1      -8.761   6.435  69.342  1.00  0.00    -0.129 C  
HETATM   38  C   UNL     1      -6.638   4.115  69.296  1.00  0.00    -0.040 C  
HETATM   39  O   UNL     1      -8.909   6.051  68.184  1.00  0.00    -0.113 OA 
HETATM   40  C   UNL     1      -7.563   3.638  71.557  1.00  0.00    -0.056 C  
HETATM   41  C   UNL     1      -7.898   4.205  70.167  1.00  0.00    -0.051 C  
HETATM   42  N   UNL     1      -8.317   5.601  70.356  1.00  0.00    -0.117 N  
HETATM   43  C   UNL     1      -9.018   3.355  69.551  1.00  0.00    -0.177 C  
HETATM   44  H   UNL     1      -8.279   5.983  71.300  1.00  0.00     0.000 HD 
ENDBRANCH   9  37
TORSDOF 9
ENDMDL
MODEL      135
REMARK 921   NORMALIZED FREE ENERGY PREDICTED BY IDOCK:   -5.17 KCAL/MOL
REMARK 922        TOTAL FREE ENERGY PREDICTED BY IDOCK:  -10.73 KCAL/MOL
REMARK 923 INTER-LIGAND FREE ENERGY PREDICTED BY IDOCK:   -7.70 KCAL/MOL
REMARK 924 INTRA-LIGAND FREE ENERGY PREDICTED BY IDOCK:   -3.02 KCAL/MOL
REMARK 927      BINDING AFFINITY PREDICTED BY RF-SCORE:    0.00 PKD
ROOT
HETATM    1  C   UNL     1      -9.871  13.704  66.620  1.00  0.00    -0.284 C  
HETATM    2  C   UNL     1     -10.830  14.883  66.821  1.00  0.00    -0.320 C  
HETATM    3  C   UNL     1     -12.270  14.417  67.004  1.00  0.00    -0.274 C  
HETATM    4  C   UNL     1     -12.732  13.594  65.809  1.00  0.00    -0.470 C  
HETATM    5  C   UNL     1     -11.803  12.422  65.497  1.00  0.00    -0.469 C  
HETATM    6  C   UNL     1     -10.311  12.791  65.474  1.00  0.00    -0.301 C  
HETATM    7  C   UNL     1      -9.386  11.563  65.437  1.00  0.00    -0.159 C  
HETATM    8  N   UNL     1      -9.471  10.706  66.625  1.00  0.00    -0.165 NA 
HETATM    9  C   UNL     1      -9.517  11.429  67.910  1.00  0.00    -0.174 C  
HETATM   10  C   UNL     1      -9.608  12.967  67.939  1.00  0.00    -0.215 C  
ENDROOT
BRANCH   8  11
HETATM   11  C   UNL     1      -8.423   9.655  66.595  1.00  0.00    -0.123 C  
BRANCH  11  12
HETATM   12  C   UNL     1      -8.717   8.293  65.881  1.00  0.00    -0.159 C  
HETATM   13  H   UNL     1      -8.689   7.568  64.025  1.00  0.00     0.000 HD 
HETATM   14  O   UNL     1      -8.511   8.394  64.459  1.00  0.00    -0.149 OA 
BRANCH  12  15
HETATM   15  C   UNL     1      -7.942   7.085  66.470  1.00  0.00    -0.108 C  
BRANCH  15  16
HETATM   16  N   UNL     1      -7.666   7.210  67.907  1.00  0.00    -0.111 N  
HETATM   17  C   UNL     1      -6.433   6.964  68.464  1.00  0.00    -0.036 C  
HETATM   18  O   UNL     1      -5.445   6.607  67.833  1.00  0.00    -0.008 OA 
HETATM   19  H   UNL     1      -8.429   7.493  68.523  1.00  0.00     0.000 HD 
BRANCH  17  20
HETATM   20  C   UNL     1      -6.334   7.098  69.937  1.00  0.00    -0.035 A  
HETATM   21  C   UNL     1      -6.540   5.942  70.712  1.00  0.00    -0.044 A  
HETATM   22  H   UNL     1      -6.006   9.587  73.601  1.00  0.00     0.000 HD 
HETATM   23  C   UNL     1      -6.108   8.352  70.547  1.00  0.00    -0.032 A  
HETATM   24  C   UNL     1      -6.133   8.394  71.948  1.00  0.00    -0.055 A  
HETATM   25  C   UNL     1      -6.508   6.012  72.098  1.00  0.00    -0.058 A  
HETATM   26  C   UNL     1      -5.839   9.615  69.768  1.00  0.00    -0.036 C  
HETATM   27  O   UNL     1      -5.989   9.558  72.652  1.00  0.00    -0.299 OA 
HETATM   28  C   UNL     1      -6.310   7.244  72.715  1.00  0.00    -0.055 A  
ENDBRANCH  17  20
ENDBRANCH  15  16
BRANCH  15  29
HETATM   29  C   UNL     1      -8.567   5.708  66.095  1.00  0.00    -0.132 C  
BRANCH  29  30
HETATM   30  S   UNL     1     -10.261   5.408  66.720  1.00  0.00    -0.267 SA 
BRANCH  30  31
HETATM   31  C   UNL     1     -10.015   4.696  68.330  1.00  0.00    -0.062 A  
HETATM   32  C   UNL     1      -9.014   2.887  69.609  1.00  0.00    -0.170 A  
HETATM   33  C   UNL     1      -9.359   3.459  68.384  1.00  0.00    -0.238 A  
HETATM   34  C   UNL     1      -9.982   4.776  70.751  1.00  0.00    -0.291 A  
HETATM   35  C   UNL     1      -9.320   3.551  70.794  1.00  0.00    -0.227 A  
HETATM   36  C   UNL     1     -10.329   5.348  69.523  1.00  0.00    -0.350 A  
ENDBRANCH  30  31
ENDBRANCH  29  30
ENDBRANCH  15  29
ENDBRANCH  12  15
ENDBRANCH  11  12
ENDBRANCH   8  11
BRANCH   9  37
HETATM   37  C   UNL     1     -10.679  10.850  68.778  1.00  0.00    -0.207 C  
HETATM   38  C   UNL     1     -11.857   8.312  70.214  1.00  0.00     0.206 C  
HETATM   39  O   UNL     1     -11.871  11.016  68.532  1.00  0.00    -0.460 OA 
HETATM   40  C   UNL     1     -10.207   8.923  71.976  1.00  0.00    -0.363 C  
HETATM   41  C   UNL     1     -11.108   9.484  70.863  1.00  0.00    -0.336 C  
HETATM   42  N   UNL     1     -10.234  10.161  69.894  1.00  0.00    -0.305 N  
HETATM   43  C   UNL     1     -12.114  10.457  71.495  1.00  0.00    -0.364 C  
HETATM   44  H   UNL     1      -9.228  10.119  70.055  1.00  0.00     0.000 HD 
ENDBRANCH   9  37
TORSDOF 9
ENDMDL
MODEL      136
REMARK 921   NORMALIZED FREE ENERGY PREDICTED BY IDOCK:   -5.16 KCAL/MOL
REMARK 922        TOTAL FREE ENERGY PREDICTED BY IDOCK:  -10.71 KCAL/MOL
REMARK 923 INTER-LIGAND FREE ENERGY PREDICTED BY IDOCK:   -9.08 KCAL/MOL
REMARK 924 INTRA-LIGAND FREE ENERGY PREDICTED BY IDOCK:   -1.62 KCAL/MOL
REMARK 927      BINDING AFFINITY PREDICTED BY RF-SCORE:    0.00 PKD
ROOT
HETATM    1  C   UNL     1      -6.358   7.347  67.827  1.00  0.00    -0.048 C  
HETATM    2  C   UNL     1      -5.597   6.094  67.381  1.00  0.00    -0.009 C  
HETATM    3  C   UNL     1      -6.106   5.566  66.045  1.00  0.00    -0.033 C  
HETATM    4  C   UNL     1      -7.594   5.249  66.117  1.00  0.00    -0.087 C  
HETATM    5  C   UNL     1      -8.433   6.429  66.607  1.00  0.00    -0.115 C  
HETATM    6  C   UNL     1      -7.871   7.122  67.858  1.00  0.00    -0.114 C  
HETATM    7  C   UNL     1      -8.563   8.461  68.167  1.00  0.00    -0.139 C  
HETATM    8  N   UNL     1      -8.379   9.489  67.138  1.00  0.00    -0.130 NA 
HETATM    9  C   UNL     1      -7.009   9.592  66.600  1.00  0.00    -0.085 C  
HETATM   10  C   UNL     1      -5.927   8.579  67.021  1.00  0.00    -0.053 C  
ENDROOT
BRANCH   8  11
HETATM   11  C   UNL     1      -8.917  10.796  67.594  1.00  0.00    -0.140 C  
BRANCH  11  12
HETATM   12  C   UNL     1     -10.209  11.374  66.926  1.00  0.00    -0.219 C  
HETATM   13  H   UNL     1     -12.148  10.926  66.842  1.00  0.00     0.000 HD 
HETATM   14  O   UNL     1     -11.364  10.576  67.247  1.00  0.00    -0.359 OA 
BRANCH  12  15
HETATM   15  C   UNL     1     -10.468  12.873  67.233  1.00  0.00    -0.234 C  
BRANCH  15  16
HETATM   16  N   UNL     1     -10.873  13.125  68.622  1.00  0.00    -0.255 N  
HETATM   17  C   UNL     1     -11.882  13.994  68.970  1.00  0.00    -0.354 C  
HETATM   18  O   UNL     1     -12.535  14.653  68.169  1.00  0.00    -0.021 OA 
HETATM   19  H   UNL     1     -10.381  12.631  69.367  1.00  0.00     0.000 HD 
BRANCH  17  20
HETATM   20  C   UNL     1     -12.139  14.163  70.419  1.00  0.00    -0.417 A  
HETATM   21  C   UNL     1     -12.864  13.151  71.074  1.00  0.00    -0.295 A  
HETATM   22  H   UNL     1     -12.084  16.621  74.118  1.00  0.00     0.000 HD 
HETATM   23  C   UNL     1     -11.731  15.327  71.107  1.00  0.00    -0.409 A  
HETATM   24  C   UNL     1     -12.110  15.439  72.453  1.00  0.00    -0.419 A  
HETATM   25  C   UNL     1     -13.178  13.273  72.421  1.00  0.00    -0.539 A  
HETATM   26  C   UNL     1     -10.916  16.424  70.469  1.00  0.00    -0.164 C  
HETATM   27  O   UNL     1     -11.827  16.545  73.207  1.00  0.00    -0.448 OA 
HETATM   28  C   UNL     1     -12.804  14.423  73.107  1.00  0.00    -0.492 A  
ENDBRANCH  17  20
ENDBRANCH  15  16
BRANCH  15  29
HETATM   29  C   UNL     1      -9.313  13.808  66.765  1.00  0.00    -0.266 C  
BRANCH  29  30
HETATM   30  S   UNL     1      -9.813  15.232  65.728  1.00  0.00    -0.361 SA 
BRANCH  30  31
HETATM   31  C   UNL     1      -9.281  16.654  66.651  1.00  0.00    -0.253 A  
HETATM   32  C   UNL     1      -9.867  18.866  67.474  1.00  0.00    -0.377 A  
HETATM   33  C   UNL     1     -10.146  17.757  66.676  1.00  0.00    -0.350 A  
HETATM   34  C   UNL     1      -7.845  17.795  68.235  1.00  0.00    -0.279 A  
HETATM   35  C   UNL     1      -8.717  18.882  68.260  1.00  0.00    -0.367 A  
HETATM   36  C   UNL     1      -8.125  16.684  67.433  1.00  0.00    -0.187 A  
ENDBRANCH  30  31
ENDBRANCH  29  30
ENDBRANCH  15  29
ENDBRANCH  12  15
ENDBRANCH  11  12
ENDBRANCH   8  11
BRANCH   9  37
HETATM   37  C   UNL     1      -7.076   9.623  65.041  1.00  0.00    -0.116 C  
HETATM   38  C   UNL     1      -8.782   8.968  62.481  1.00  0.00    -0.193 C  
HETATM   39  O   UNL     1      -6.182   9.211  64.305  1.00  0.00    -0.074 OA 
HETATM   40  C   UNL     1      -9.893  11.123  63.047  1.00  0.00    -0.368 C  
HETATM   41  C   UNL     1      -8.570  10.343  63.131  1.00  0.00    -0.191 C  
HETATM   42  N   UNL     1      -8.232  10.212  64.555  1.00  0.00    -0.158 N  
HETATM   43  C   UNL     1      -7.494  11.122  62.361  1.00  0.00     0.032 C  
HETATM   44  H   UNL     1      -8.896  10.581  65.235  1.00  0.00     0.000 HD 
ENDBRANCH   9  37
TORSDOF 9
ENDMDL
MODEL      137
REMARK 921   NORMALIZED FREE ENERGY PREDICTED BY IDOCK:   -5.16 KCAL/MOL
REMARK 922        TOTAL FREE ENERGY PREDICTED BY IDOCK:  -10.70 KCAL/MOL
REMARK 923 INTER-LIGAND FREE ENERGY PREDICTED BY IDOCK:   -9.56 KCAL/MOL
REMARK 924 INTRA-LIGAND FREE ENERGY PREDICTED BY IDOCK:   -1.14 KCAL/MOL
REMARK 927      BINDING AFFINITY PREDICTED BY RF-SCORE:    0.00 PKD
ROOT
HETATM    1  C   UNL     1     -10.334   5.848  69.012  1.00  0.00    -0.297 C  
HETATM    2  C   UNL     1      -9.985   4.470  69.584  1.00  0.00    -0.251 C  
HETATM    3  C   UNL     1      -8.942   3.752  68.736  1.00  0.00    -0.177 C  
HETATM    4  C   UNL     1      -9.425   3.590  67.301  1.00  0.00    -0.228 C  
HETATM    5  C   UNL     1      -9.850   4.911  66.661  1.00  0.00    -0.223 C  
HETATM    6  C   UNL     1     -10.766   5.771  67.546  1.00  0.00    -0.320 C  
HETATM    7  C   UNL     1     -10.952   7.201  67.010  1.00  0.00    -0.234 C  
HETATM    8  N   UNL     1      -9.722   7.999  66.976  1.00  0.00    -0.192 NA 
HETATM    9  C   UNL     1      -8.867   7.875  68.172  1.00  0.00    -0.125 C  
HETATM   10  C   UNL     1      -9.217   6.865  69.281  1.00  0.00    -0.139 C  
ENDROOT
BRANCH   8  11
HETATM   11  C   UNL     1     -10.017   9.412  66.625  1.00  0.00    -0.258 C  
BRANCH  11  12
HETATM   12  C   UNL     1     -10.844  10.296  67.617  1.00  0.00    -0.307 C  
HETATM   13  H   UNL     1     -11.601  10.135  69.452  1.00  0.00     0.000 HD 
HETATM   14  O   UNL     1     -11.099   9.599  68.851  1.00  0.00    -0.170 OA 
BRANCH  12  15
HETATM   15  C   UNL     1     -10.228  11.695  67.887  1.00  0.00    -0.189 C  
BRANCH  15  16
HETATM   16  N   UNL     1     -10.713  12.319  69.125  1.00  0.00    -0.423 N  
HETATM   17  C   UNL     1     -11.773  13.196  69.163  1.00  0.00    -0.325 C  
HETATM   18  O   UNL     1     -12.411  13.556  68.181  1.00  0.00    -0.213 OA 
HETATM   19  H   UNL     1     -10.241  12.091  69.999  1.00  0.00     0.000 HD 
BRANCH  17  20
HETATM   20  C   UNL     1     -12.111  13.767  70.488  1.00  0.00    -0.416 A  
HETATM   21  C   UNL     1     -12.994  13.038  71.305  1.00  0.00    -0.330 A  
HETATM   22  H   UNL     1     -12.031  17.101  73.422  1.00  0.00     0.000 HD 
HETATM   23  C   UNL     1     -11.619  15.027  70.893  1.00  0.00    -0.364 A  
HETATM   24  C   UNL     1     -12.076  15.527  72.120  1.00  0.00    -0.423 A  
HETATM   25  C   UNL     1     -13.387  13.542  72.538  1.00  0.00    -0.617 A  
HETATM   26  C   UNL     1     -10.637  15.833  70.079  1.00  0.00    -0.333 C  
HETATM   27  O   UNL     1     -11.721  16.762  72.591  1.00  0.00    -0.429 OA 
HETATM   28  C   UNL     1     -12.930  14.792  72.941  1.00  0.00    -0.583 A  
ENDBRANCH  17  20
ENDBRANCH  15  16
BRANCH  15  29
HETATM   29  C   UNL     1      -8.674  11.717  67.772  1.00  0.00    -0.155 C  
BRANCH  29  30
HETATM   30  S   UNL     1      -7.837  13.131  68.581  1.00  0.00     0.004 SA 
BRANCH  30  31
HETATM   31  C   UNL     1      -8.129  14.499  67.485  1.00  0.00    -0.189 A  
HETATM   32  C   UNL     1      -9.684  15.562  65.947  1.00  0.00    -0.392 A  
HETATM   33  C   UNL     1      -9.315  14.473  66.738  1.00  0.00    -0.278 A  
HETATM   34  C   UNL     1      -7.683  16.721  66.629  1.00  0.00    -0.308 A  
HETATM   35  C   UNL     1      -8.869  16.690  65.898  1.00  0.00    -0.121 A  
HETATM   36  C   UNL     1      -7.313  15.629  67.420  1.00  0.00    -0.235 A  
ENDBRANCH  30  31
ENDBRANCH  29  30
ENDBRANCH  15  29
ENDBRANCH  12  15
ENDBRANCH  11  12
ENDBRANCH   8  11
BRANCH   9  37
HETATM   37  C   UNL     1      -7.394   7.622  67.721  1.00  0.00    -0.099 C  
HETATM   38  C   UNL     1      -5.216   5.476  66.985  1.00  0.00    -0.005 C  
HETATM   39  O   UNL     1      -6.413   8.144  68.246  1.00  0.00    -0.052 OA 
HETATM   40  C   UNL     1      -6.389   5.486  64.789  1.00  0.00    -0.037 C  
HETATM   41  C   UNL     1      -6.032   6.342  66.016  1.00  0.00    -0.025 C  
HETATM   42  N   UNL     1      -7.296   6.778  66.626  1.00  0.00    -0.073 N  
HETATM   43  C   UNL     1      -5.187   7.536  65.548  1.00  0.00    -0.028 C  
HETATM   44  H   UNL     1      -8.163   6.434  66.215  1.00  0.00     0.000 HD 
ENDBRANCH   9  37
TORSDOF 9
ENDMDL
MODEL      138
REMARK 921   NORMALIZED FREE ENERGY PREDICTED BY IDOCK:   -5.13 KCAL/MOL
REMARK 922        TOTAL FREE ENERGY PREDICTED BY IDOCK:  -10.67 KCAL/MOL
REMARK 923 INTER-LIGAND FREE ENERGY PREDICTED BY IDOCK:   -8.35 KCAL/MOL
REMARK 924 INTRA-LIGAND FREE ENERGY PREDICTED BY IDOCK:   -2.32 KCAL/MOL
REMARK 927      BINDING AFFINITY PREDICTED BY RF-SCORE:    0.00 PKD
ROOT
HETATM    1  C   UNL     1      -9.455   8.649  71.914  1.00  0.00    -0.369 C  
HETATM    2  C   UNL     1      -9.042   8.189  73.315  1.00  0.00    -0.327 C  
HETATM    3  C   UNL     1      -9.440   6.742  73.578  1.00  0.00    -0.187 C  
HETATM    4  C   UNL     1     -10.942   6.553  73.412  1.00  0.00    -0.175 C  
HETATM    5  C   UNL     1     -11.459   7.036  72.058  1.00  0.00    -0.308 C  
HETATM    6  C   UNL     1     -10.946   8.426  71.650  1.00  0.00    -0.345 C  
HETATM    7  C   UNL     1     -11.246   8.772  70.181  1.00  0.00    -0.152 C  
HETATM    8  N   UNL     1     -10.579   7.902  69.207  1.00  0.00    -0.214 NA 
HETATM    9  C   UNL     1      -9.170   7.592  69.512  1.00  0.00    -0.150 C  
HETATM   10  C   UNL     1      -8.537   8.059  70.837  1.00  0.00    -0.136 C  
ENDROOT
BRANCH   8  11
HETATM   11  C   UNL     1     -10.769   8.412  67.825  1.00  0.00    -0.095 C  
BRANCH  11  12
HETATM   12  C   UNL     1      -9.521   8.820  66.975  1.00  0.00    -0.169 C  
HETATM   13  H   UNL     1      -8.354   7.999  65.584  1.00  0.00     0.000 HD 
HETATM   14  O   UNL     1      -9.112   7.752  66.100  1.00  0.00    -0.173 OA 
BRANCH  12  15
HETATM   15  C   UNL     1      -9.693  10.147  66.187  1.00  0.00    -0.218 C  
BRANCH  15  16
HETATM   16  N   UNL     1     -10.007  11.299  67.042  1.00  0.00    -0.195 N  
HETATM   17  C   UNL     1     -11.116  12.093  66.862  1.00  0.00    -0.297 C  
HETATM   18  O   UNL     1     -11.945  11.935  65.974  1.00  0.00    -0.511 OA 
HETATM   19  H   UNL     1      -9.371  11.521  67.807  1.00  0.00     0.000 HD 
BRANCH  17  20
HETATM   20  C   UNL     1     -11.265  13.240  67.789  1.00  0.00    -0.308 A  
HETATM   21  C   UNL     1     -11.929  13.009  69.008  1.00  0.00    -0.312 A  
HETATM   22  H   UNL     1     -10.958  17.578  68.690  1.00  0.00     0.000 HD 
HETATM   23  C   UNL     1     -10.819  14.532  67.437  1.00  0.00    -0.291 A  
HETATM   24  C   UNL     1     -11.097  15.571  68.337  1.00  0.00    -0.315 A  
HETATM   25  C   UNL     1     -12.142  14.053  69.898  1.00  0.00    -0.406 A  
HETATM   26  C   UNL     1     -10.065  14.830  66.165  1.00  0.00    -0.312 C  
HETATM   27  O   UNL     1     -10.770  16.874  68.080  1.00  0.00    -0.352 OA 
HETATM   28  C   UNL     1     -11.729  15.337  69.557  1.00  0.00    -0.359 A  
ENDBRANCH  17  20
ENDBRANCH  15  16
BRANCH  15  29
HETATM   29  C   UNL     1      -8.524  10.433  65.198  1.00  0.00    -0.173 C  
BRANCH  29  30
HETATM   30  S   UNL     1      -8.835   9.987  63.450  1.00  0.00    -0.258 SA 
BRANCH  30  31
HETATM   31  C   UNL     1      -7.742   8.618  63.146  1.00  0.00    -0.127 A  
HETATM   32  C   UNL     1      -5.530   7.677  63.513  1.00  0.00    -0.045 A  
HETATM   33  C   UNL     1      -6.421   8.747  63.598  1.00  0.00    -0.088 A  
HETATM   34  C   UNL     1      -7.262   6.329  62.514  1.00  0.00    -0.052 A  
HETATM   35  C   UNL     1      -5.954   6.463  62.977  1.00  0.00    -0.026 A  
HETATM   36  C   UNL     1      -8.154   7.402  62.598  1.00  0.00    -0.088 A  
ENDBRANCH  30  31
ENDBRANCH  29  30
ENDBRANCH  15  29
ENDBRANCH  12  15
ENDBRANCH  11  12
ENDBRANCH   8  11
BRANCH   9  37
HETATM   37  C   UNL     1      -8.945   6.054  69.372  1.00  0.00    -0.126 C  
HETATM   38  C   UNL     1      -9.512   3.470  67.671  1.00  0.00    -0.233 C  
HETATM   39  O   UNL     1      -9.116   5.247  70.284  1.00  0.00    -0.129 OA 
HETATM   40  C   UNL     1      -7.646   4.351  66.278  1.00  0.00    -0.086 C  
HETATM   41  C   UNL     1      -8.219   4.296  67.704  1.00  0.00    -0.098 C  
HETATM   42  N   UNL     1      -8.482   5.681  68.121  1.00  0.00    -0.099 N  
HETATM   43  C   UNL     1      -7.190   3.614  68.617  1.00  0.00    -0.051 C  
HETATM   44  H   UNL     1      -8.311   6.421  67.440  1.00  0.00     0.000 HD 
ENDBRANCH   9  37
TORSDOF 9
ENDMDL
MODEL      139
REMARK 921   NORMALIZED FREE ENERGY PREDICTED BY IDOCK:   -5.13 KCAL/MOL
REMARK 922        TOTAL FREE ENERGY PREDICTED BY IDOCK:  -10.66 KCAL/MOL
REMARK 923 INTER-LIGAND FREE ENERGY PREDICTED BY IDOCK:   -8.60 KCAL/MOL
REMARK 924 INTRA-LIGAND FREE ENERGY PREDICTED BY IDOCK:   -2.06 KCAL/MOL
REMARK 927      BINDING AFFINITY PREDICTED BY RF-SCORE:    0.00 PKD
ROOT
HETATM    1  C   UNL     1     -11.018  11.809  65.262  1.00  0.00    -0.350 C  
HETATM    2  C   UNL     1     -11.317  12.585  63.976  1.00  0.00    -0.467 C  
HETATM    3  C   UNL     1     -11.402  14.086  64.226  1.00  0.00    -0.277 C  
HETATM    4  C   UNL     1     -12.471  14.405  65.262  1.00  0.00    -0.359 C  
HETATM    5  C   UNL     1     -12.286  13.632  66.568  1.00  0.00    -0.412 C  
HETATM    6  C   UNL     1     -12.016  12.131  66.376  1.00  0.00    -0.201 C  
HETATM    7  C   UNL     1     -11.559  11.431  67.667  1.00  0.00    -0.238 C  
HETATM    8  N   UNL     1     -10.276  11.908  68.193  1.00  0.00    -0.193 NA 
HETATM    9  C   UNL     1      -9.227  12.115  67.177  1.00  0.00    -0.193 C  
HETATM   10  C   UNL     1      -9.549  11.960  65.678  1.00  0.00    -0.221 C  
ENDROOT
BRANCH   8  11
HETATM   11  C   UNL     1      -9.821  11.063  69.326  1.00  0.00    -0.035 C  
BRANCH  11  12
HETATM   12  C   UNL     1      -9.038   9.739  69.034  1.00  0.00    -0.157 C  
HETATM   13  H   UNL     1      -7.309   8.905  69.564  1.00  0.00     0.000 HD 
HETATM   14  O   UNL     1      -7.784   9.708  69.741  1.00  0.00    -0.099 OA 
BRANCH  12  15
HETATM   15  C   UNL     1      -9.855   8.446  69.296  1.00  0.00    -0.186 C  
BRANCH  15  16
HETATM   16  N   UNL     1      -9.381   7.288  68.528  1.00  0.00    -0.141 N  
HETATM   17  C   UNL     1     -10.060   6.766  67.451  1.00  0.00    -0.175 C  
HETATM   18  O   UNL     1     -11.127   7.197  67.029  1.00  0.00    -0.345 OA 
HETATM   19  H   UNL     1      -8.504   6.848  68.806  1.00  0.00     0.000 HD 
BRANCH  17  20
HETATM   20  C   UNL     1      -9.464   5.570  66.809  1.00  0.00    -0.147 A  
HETATM   21  C   UNL     1      -9.778   4.313  67.357  1.00  0.00    -0.210 A  
HETATM   22  H   UNL     1      -6.638   3.700  63.938  1.00  0.00     0.000 HD 
HETATM   23  C   UNL     1      -8.561   5.689  65.730  1.00  0.00    -0.148 A  
HETATM   24  C   UNL     1      -7.972   4.508  65.257  1.00  0.00    -0.098 A  
HETATM   25  C   UNL     1      -9.213   3.159  66.830  1.00  0.00    -0.187 A  
HETATM   26  C   UNL     1      -8.221   7.005  65.075  1.00  0.00    -0.091 C  
HETATM   27  O   UNL     1      -7.037   4.500  64.258  1.00  0.00    -0.049 OA 
HETATM   28  C   UNL     1      -8.304   3.260  65.782  1.00  0.00    -0.103 A  
ENDBRANCH  17  20
ENDBRANCH  15  16
BRANCH  15  29
HETATM   29  C   UNL     1     -10.039   8.128  70.810  1.00  0.00    -0.189 C  
BRANCH  29  30
HETATM   30  S   UNL     1     -11.562   7.214  71.252  1.00  0.00    -0.311 SA 
BRANCH  30  31
HETATM   31  C   UNL     1     -10.976   5.642  71.838  1.00  0.00    -0.235 A  
HETATM   32  C   UNL     1      -9.417   3.807  71.490  1.00  0.00    -0.221 A  
HETATM   33  C   UNL     1     -10.023   4.983  71.048  1.00  0.00    -0.281 A  
HETATM   34  C   UNL     1     -10.712   3.919  73.521  1.00  0.00    -0.305 A  
HETATM   35  C   UNL     1      -9.758   3.278  72.733  1.00  0.00    -0.187 A  
HETATM   36  C   UNL     1     -11.320   5.097  73.076  1.00  0.00    -0.381 A  
ENDBRANCH  30  31
ENDBRANCH  29  30
ENDBRANCH  15  29
ENDBRANCH  12  15
ENDBRANCH  11  12
ENDBRANCH   8  11
BRANCH   9  37
HETATM   37  C   UNL     1      -8.572  13.515  67.399  1.00  0.00    -0.208 C  
HETATM   38  C   UNL     1      -8.871  16.627  67.055  1.00  0.00    -0.220 C  
HETATM   39  O   UNL     1      -7.418  13.793  67.083  1.00  0.00    -0.092 OA 
HETATM   40  C   UNL     1     -10.245  16.413  69.121  1.00  0.00    -0.280 C  
HETATM   41  C   UNL     1      -9.064  15.810  68.341  1.00  0.00    -0.188 C  
HETATM   42  N   UNL     1      -9.410  14.414  68.038  1.00  0.00    -0.194 N  
HETATM   43  C   UNL     1      -7.804  15.907  69.212  1.00  0.00    -0.226 C  
HETATM   44  H   UNL     1     -10.333  14.084  68.319  1.00  0.00     0.000 HD 
ENDBRANCH   9  37
TORSDOF 9
ENDMDL
MODEL      140
REMARK 921   NORMALIZED FREE ENERGY PREDICTED BY IDOCK:   -5.12 KCAL/MOL
REMARK 922        TOTAL FREE ENERGY PREDICTED BY IDOCK:  -10.65 KCAL/MOL
REMARK 923 INTER-LIGAND FREE ENERGY PREDICTED BY IDOCK:   -8.75 KCAL/MOL
REMARK 924 INTRA-LIGAND FREE ENERGY PREDICTED BY IDOCK:   -1.90 KCAL/MOL
REMARK 927      BINDING AFFINITY PREDICTED BY RF-SCORE:    0.00 PKD
ROOT
HETATM    1  C   UNL     1     -10.762  16.587  66.397  1.00  0.00    -0.146 C  
HETATM    2  C   UNL     1     -10.525  18.062  66.056  1.00  0.00    -0.317 C  
HETATM    3  C   UNL     1      -9.514  18.706  66.996  1.00  0.00    -0.309 C  
HETATM    4  C   UNL     1      -9.970  18.595  68.444  1.00  0.00    -0.428 C  
HETATM    5  C   UNL     1     -10.283  17.159  68.863  1.00  0.00    -0.332 C  
HETATM    6  C   UNL     1     -11.159  16.390  67.861  1.00  0.00    -0.249 C  
HETATM    7  C   UNL     1     -11.230  14.882  68.156  1.00  0.00    -0.299 C  
HETATM    8  N   UNL     1      -9.947  14.182  68.040  1.00  0.00    -0.221 NA 
HETATM    9  C   UNL     1      -9.135  14.563  66.870  1.00  0.00    -0.255 C  
HETATM   10  C   UNL     1      -9.584  15.713  65.948  1.00  0.00    -0.385 C  
ENDROOT
BRANCH   8  11
HETATM   11  C   UNL     1     -10.133  12.713  68.157  1.00  0.00    -0.231 C  
BRANCH  11  12
HETATM   12  C   UNL     1     -11.542  12.090  67.884  1.00  0.00    -0.337 C  
HETATM   13  H   UNL     1     -12.626  11.537  66.307  1.00  0.00     0.000 HD 
HETATM   14  O   UNL     1     -11.771  11.915  66.473  1.00  0.00    -0.537 OA 
BRANCH  12  15
HETATM   15  C   UNL     1     -11.818  10.773  68.658  1.00  0.00    -0.138 C  
BRANCH  15  16
HETATM   16  N   UNL     1     -10.596  10.085  69.096  1.00  0.00    -0.206 N  
HETATM   17  C   UNL     1     -10.103   8.957  68.482  1.00  0.00    -0.188 C  
HETATM   18  O   UNL     1     -10.628   8.404  67.523  1.00  0.00    -0.255 OA 
HETATM   19  H   UNL     1     -10.089  10.463  69.896  1.00  0.00     0.000 HD 
BRANCH  17  20
HETATM   20  C   UNL     1      -8.880   8.364  69.073  1.00  0.00    -0.146 A  
HETATM   21  C   UNL     1      -9.047   7.430  70.112  1.00  0.00    -0.148 A  
HETATM   22  H   UNL     1      -4.466   8.216  69.545  1.00  0.00     0.000 HD 
HETATM   23  C   UNL     1      -7.592   8.768  68.657  1.00  0.00    -0.097 A  
HETATM   24  C   UNL     1      -6.499   8.224  69.347  1.00  0.00    -0.038 A  
HETATM   25  C   UNL     1      -7.940   6.874  70.739  1.00  0.00    -0.106 A  
HETATM   26  C   UNL     1      -7.353   9.731  67.522  1.00  0.00    -0.090 C  
HETATM   27  O   UNL     1      -5.207   8.584  69.078  1.00  0.00    -0.031 OA 
HETATM   28  C   UNL     1      -6.665   7.279  70.358  1.00  0.00    -0.052 A  
ENDBRANCH  17  20
ENDBRANCH  15  16
BRANCH  15  29
HETATM   29  C   UNL     1     -12.859  10.938  69.805  1.00  0.00     0.189 C  
BRANCH  29  30
HETATM   30  S   UNL     1     -12.185  11.479  71.419  1.00  0.00     0.204 SA 
BRANCH  30  31
HETATM   31  C   UNL     1     -12.641  13.193  71.533  1.00  0.00    -0.193 A  
HETATM   32  C   UNL     1     -14.248  14.806  72.385  1.00  0.00    -0.477 A  
HETATM   33  C   UNL     1     -13.868  13.486  72.142  1.00  0.00    -0.628 A  
HETATM   34  C   UNL     1     -12.182  15.569  71.404  1.00  0.00    -0.453 A  
HETATM   35  C   UNL     1     -13.400  15.849  72.021  1.00  0.00    -0.348 A  
HETATM   36  C   UNL     1     -11.802  14.245  71.160  1.00  0.00    -0.265 A  
ENDBRANCH  30  31
ENDBRANCH  29  30
ENDBRANCH  15  29
ENDBRANCH  12  15
ENDBRANCH  11  12
ENDBRANCH   8  11
BRANCH   9  37
HETATM   37  C   UNL     1      -7.672  14.847  67.335  1.00  0.00    -0.204 C  
HETATM   38  C   UNL     1      -5.258  16.862  67.294  1.00  0.00    -0.168 C  
HETATM   39  O   UNL     1      -6.745  14.047  67.223  1.00  0.00    -0.244 OA 
HETATM   40  C   UNL     1      -6.556  17.977  69.102  1.00  0.00    -0.253 C  
HETATM   41  C   UNL     1      -6.249  16.623  68.440  1.00  0.00    -0.133 C  
HETATM   42  N   UNL     1      -7.522  16.084  67.941  1.00  0.00    -0.125 N  
HETATM   43  C   UNL     1      -5.616  15.699  69.491  1.00  0.00    -0.112 C  
HETATM   44  H   UNL     1      -8.355  16.663  68.047  1.00  0.00     0.000 HD 
ENDBRANCH   9  37
TORSDOF 9
ENDMDL
MODEL      141
REMARK 921   NORMALIZED FREE ENERGY PREDICTED BY IDOCK:   -5.12 KCAL/MOL
REMARK 922        TOTAL FREE ENERGY PREDICTED BY IDOCK:  -10.65 KCAL/MOL
REMARK 923 INTER-LIGAND FREE ENERGY PREDICTED BY IDOCK:   -9.99 KCAL/MOL
REMARK 924 INTRA-LIGAND FREE ENERGY PREDICTED BY IDOCK:   -0.67 KCAL/MOL
REMARK 927      BINDING AFFINITY PREDICTED BY RF-SCORE:    0.00 PKD
ROOT
HETATM    1  C   UNL     1     -11.347   8.776  72.394  1.00  0.00    -0.272 C  
HETATM    2  C   UNL     1     -11.509   7.281  72.691  1.00  0.00    -0.304 C  
HETATM    3  C   UNL     1     -12.263   6.560  71.581  1.00  0.00    -0.353 C  
HETATM    4  C   UNL     1     -13.638   7.179  71.366  1.00  0.00    -0.368 C  
HETATM    5  C   UNL     1     -13.582   8.685  71.115  1.00  0.00    -0.073 C  
HETATM    6  C   UNL     1     -12.688   9.453  72.101  1.00  0.00    -0.460 C  
HETATM    7  C   UNL     1     -12.423  10.906  71.669  1.00  0.00    -0.242 C  
HETATM    8  N   UNL     1     -11.678  11.037  70.413  1.00  0.00    -0.335 NA 
HETATM    9  C   UNL     1     -10.537  10.114  70.268  1.00  0.00    -0.264 C  
HETATM   10  C   UNL     1     -10.277   9.021  71.323  1.00  0.00    -0.384 C  
ENDROOT
BRANCH   8  11
HETATM   11  C   UNL     1     -11.306  12.453  70.164  1.00  0.00     0.238 C  
BRANCH  11  12
HETATM   12  C   UNL     1     -11.742  13.141  68.827  1.00  0.00    -0.324 C  
HETATM   13  H   UNL     1     -12.900  14.661  68.264  1.00  0.00     0.000 HD 
HETATM   14  O   UNL     1     -12.635  14.244  69.075  1.00  0.00    -0.076 OA 
BRANCH  12  15
HETATM   15  C   UNL     1     -10.560  13.578  67.921  1.00  0.00    -0.248 C  
BRANCH  15  16
HETATM   16  N   UNL     1     -10.130  14.964  68.146  1.00  0.00    -0.220 N  
HETATM   17  C   UNL     1      -9.837  15.840  67.127  1.00  0.00    -0.226 C  
HETATM   18  O   UNL     1      -9.891  15.559  65.935  1.00  0.00    -0.301 OA 
HETATM   19  H   UNL     1     -10.043  15.293  69.108  1.00  0.00     0.000 HD 
BRANCH  17  20
HETATM   20  C   UNL     1      -9.379  17.191  67.527  1.00  0.00    -0.238 A  
HETATM   21  C   UNL     1     -10.341  18.077  68.046  1.00  0.00    -0.397 A  
HETATM   22  H   UNL     1      -6.273  20.363  67.664  1.00  0.00     0.000 HD 
HETATM   23  C   UNL     1      -8.041  17.600  67.335  1.00  0.00    -0.217 A  
HETATM   24  C   UNL     1      -7.729  18.930  67.651  1.00  0.00    -0.238 A  
HETATM   25  C   UNL     1      -9.984  19.373  68.395  1.00  0.00    -0.527 A  
HETATM   26  C   UNL     1      -6.960  16.683  66.824  1.00  0.00    -0.264 C  
HETATM   27  O   UNL     1      -6.485  19.462  67.451  1.00  0.00    -0.195 OA 
HETATM   28  C   UNL     1      -8.676  19.799  68.190  1.00  0.00    -0.333 A  
ENDBRANCH  17  20
ENDBRANCH  15  16
BRANCH  15  29
HETATM   29  C   UNL     1      -9.372  12.570  67.928  1.00  0.00    -0.200 C  
BRANCH  29  30
HETATM   30  S   UNL     1      -8.786  12.020  66.283  1.00  0.00    -0.003 SA 
BRANCH  30  31
HETATM   31  C   UNL     1     -10.214  12.174  65.236  1.00  0.00    -0.274 A  
HETATM   32  C   UNL     1     -12.635  12.370  65.133  1.00  0.00    -0.215 A  
HETATM   33  C   UNL     1     -11.468  12.134  65.860  1.00  0.00    -0.418 A  
HETATM   34  C   UNL     1     -11.317  12.684  63.139  1.00  0.00    -0.100 A  
HETATM   35  C   UNL     1     -12.558  12.653  63.772  1.00  0.00    -0.436 A  
HETATM   36  C   UNL     1     -10.147  12.445  63.868  1.00  0.00    -0.349 A  
ENDBRANCH  30  31
ENDBRANCH  29  30
ENDBRANCH  15  29
ENDBRANCH  12  15
ENDBRANCH  11  12
ENDBRANCH   8  11
BRANCH   9  37
HETATM   37  C   UNL     1     -10.606   9.436  68.863  1.00  0.00    -0.208 C  
HETATM   38  C   UNL     1      -8.986   8.434  66.360  1.00  0.00    -0.207 C  
HETATM   39  O   UNL     1     -11.384   9.773  67.973  1.00  0.00    -0.099 OA 
HETATM   40  C   UNL     1      -8.551   6.462  67.816  1.00  0.00    -0.116 C  
HETATM   41  C   UNL     1      -9.558   7.580  67.500  1.00  0.00    -0.142 C  
HETATM   42  N   UNL     1      -9.728   8.373  68.726  1.00  0.00    -0.161 N  
HETATM   43  C   UNL     1     -10.879   6.935  67.054  1.00  0.00    -0.436 C  
HETATM   44  H   UNL     1      -9.159   8.123  69.534  1.00  0.00     0.000 HD 
ENDBRANCH   9  37
TORSDOF 9
ENDMDL
MODEL      142
REMARK 921   NORMALIZED FREE ENERGY PREDICTED BY IDOCK:   -5.09 KCAL/MOL
REMARK 922        TOTAL FREE ENERGY PREDICTED BY IDOCK:  -10.61 KCAL/MOL
REMARK 923 INTER-LIGAND FREE ENERGY PREDICTED BY IDOCK:   -9.34 KCAL/MOL
REMARK 924 INTRA-LIGAND FREE ENERGY PREDICTED BY IDOCK:   -1.27 KCAL/MOL
REMARK 927      BINDING AFFINITY PREDICTED BY RF-SCORE:    0.00 PKD
ROOT
HETATM    1  C   UNL     1     -14.057  14.710  71.626  1.00  0.00    -0.571 C  
HETATM    2  C   UNL     1     -14.323  15.793  72.676  1.00  0.00    -0.189 C  
HETATM    3  C   UNL     1     -13.032  16.298  73.310  1.00  0.00    -0.459 C  
HETATM    4  C   UNL     1     -12.260  15.155  73.955  1.00  0.00    -0.698 C  
HETATM    5  C   UNL     1     -11.993  13.997  72.993  1.00  0.00     0.740 C  
HETATM    6  C   UNL     1     -13.224  13.555  72.186  1.00  0.00    -0.551 C  
HETATM    7  C   UNL     1     -12.878  12.593  71.037  1.00  0.00    -0.166 C  
HETATM    8  N   UNL     1     -12.022  13.175  69.997  1.00  0.00    -0.339 NA 
HETATM    9  C   UNL     1     -12.384  14.545  69.591  1.00  0.00    -0.241 C  
HETATM   10  C   UNL     1     -13.497  15.312  70.331  1.00  0.00     0.014 C  
ENDROOT
BRANCH   8  11
HETATM   11  C   UNL     1     -11.888  12.249  68.844  1.00  0.00    -0.303 C  
BRANCH  11  12
HETATM   12  C   UNL     1     -10.764  12.497  67.783  1.00  0.00    -0.219 C  
HETATM   13  H   UNL     1      -8.850  13.050  67.769  1.00  0.00     0.000 HD 
HETATM   14  O   UNL     1      -9.532  12.900  68.412  1.00  0.00    -0.215 OA 
BRANCH  12  15
HETATM   15  C   UNL     1     -10.528  11.306  66.815  1.00  0.00    -0.248 C  
BRANCH  15  16
HETATM   16  N   UNL     1     -10.664   9.993  67.459  1.00  0.00    -0.275 N  
HETATM   17  C   UNL     1      -9.753   9.495  68.361  1.00  0.00    -0.154 C  
HETATM   18  O   UNL     1      -8.736  10.081  68.713  1.00  0.00    -0.124 OA 
HETATM   19  H   UNL     1     -11.476   9.421  67.223  1.00  0.00     0.000 HD 
BRANCH  17  20
HETATM   20  C   UNL     1     -10.019   8.136  68.888  1.00  0.00    -0.198 A  
HETATM   21  C   UNL     1      -9.508   7.045  68.163  1.00  0.00    -0.123 A  
HETATM   22  H   UNL     1     -12.088   5.392  71.703  1.00  0.00     0.000 HD 
HETATM   23  C   UNL     1     -10.813   7.937  70.039  1.00  0.00    -0.238 A  
HETATM   24  C   UNL     1     -11.092   6.611  70.401  1.00  0.00    -0.322 A  
HETATM   25  C   UNL     1      -9.763   5.745  68.579  1.00  0.00    -0.161 A  
HETATM   26  C   UNL     1     -11.351   9.067  70.880  1.00  0.00    -0.351 C  
HETATM   27  O   UNL     1     -11.899   6.290  71.458  1.00  0.00    -0.306 OA 
HETATM   28  C   UNL     1     -10.562   5.531  69.697  1.00  0.00    -0.375 A  
ENDBRANCH  17  20
ENDBRANCH  15  16
BRANCH  15  29
HETATM   29  C   UNL     1     -11.345  11.415  65.493  1.00  0.00     0.003 C  
BRANCH  29  30
HETATM   30  S   UNL     1     -10.391  11.904  64.008  1.00  0.00    -0.404 SA 
BRANCH  30  31
HETATM   31  C   UNL     1      -9.172  10.623  63.829  1.00  0.00    -0.254 A  
HETATM   32  C   UNL     1      -7.443   9.309  64.924  1.00  0.00    -0.107 A  
HETATM   33  C   UNL     1      -8.343  10.376  64.932  1.00  0.00    -0.165 A  
HETATM   34  C   UNL     1      -8.180   8.720  62.705  1.00  0.00    -0.195 A  
HETATM   35  C   UNL     1      -7.367   8.476  63.811  1.00  0.00    -0.102 A  
HETATM   36  C   UNL     1      -9.080   9.790  62.713  1.00  0.00    -0.286 A  
ENDBRANCH  30  31
ENDBRANCH  29  30
ENDBRANCH  15  29
ENDBRANCH  12  15
ENDBRANCH  11  12
ENDBRANCH   8  11
BRANCH   9  37
HETATM   37  C   UNL     1     -11.098  15.430  69.581  1.00  0.00    -0.276 C  
HETATM   38  C   UNL     1      -8.358  16.047  68.164  1.00  0.00    -0.160 C  
HETATM   39  O   UNL     1     -10.405  15.649  70.572  1.00  0.00    -0.240 OA 
HETATM   40  C   UNL     1      -9.812  17.307  66.583  1.00  0.00    -0.299 C  
HETATM   41  C   UNL     1      -9.668  16.838  68.041  1.00  0.00    -0.243 C  
HETATM   42  N   UNL     1     -10.832  15.993  68.343  1.00  0.00    -0.294 N  
HETATM   43  C   UNL     1      -9.616  18.076  68.948  1.00  0.00    -0.240 C  
HETATM   44  H   UNL     1     -11.490  15.806  67.587  1.00  0.00     0.000 HD 
ENDBRANCH   9  37
TORSDOF 9
ENDMDL
MODEL      143
REMARK 921   NORMALIZED FREE ENERGY PREDICTED BY IDOCK:   -5.09 KCAL/MOL
REMARK 922        TOTAL FREE ENERGY PREDICTED BY IDOCK:  -10.60 KCAL/MOL
REMARK 923 INTER-LIGAND FREE ENERGY PREDICTED BY IDOCK:   -8.41 KCAL/MOL
REMARK 924 INTRA-LIGAND FREE ENERGY PREDICTED BY IDOCK:   -2.19 KCAL/MOL
REMARK 927      BINDING AFFINITY PREDICTED BY RF-SCORE:    0.00 PKD
ROOT
HETATM    1  C   UNL     1     -12.503  14.451  69.360  1.00  0.00    -0.113 C  
HETATM    2  C   UNL     1     -13.449  15.122  70.361  1.00  0.00     0.020 C  
HETATM    3  C   UNL     1     -12.701  16.036  71.324  1.00  0.00    -0.154 C  
HETATM    4  C   UNL     1     -11.632  15.265  72.086  1.00  0.00    -0.535 C  
HETATM    5  C   UNL     1     -10.668  14.514  71.168  1.00  0.00     0.988 C  
HETATM    6  C   UNL     1     -11.359  13.710  70.056  1.00  0.00    -0.054 C  
HETATM    7  C   UNL     1     -10.380  13.196  68.986  1.00  0.00     0.050 C  
HETATM    8  N   UNL     1      -9.706  14.253  68.225  1.00  0.00    -0.215 NA 
HETATM    9  C   UNL     1     -10.576  15.368  67.807  1.00  0.00    -0.274 C  
HETATM   10  C   UNL     1     -12.041  15.436  68.279  1.00  0.00     0.039 C  
ENDROOT
BRANCH   8  11
HETATM   11  C   UNL     1      -8.926  13.679  67.099  1.00  0.00    -0.231 C  
BRANCH  11  12
HETATM   12  C   UNL     1      -7.640  12.840  67.401  1.00  0.00    -0.152 C  
HETATM   13  H   UNL     1      -6.385  12.566  68.924  1.00  0.00     0.000 HD 
HETATM   14  O   UNL     1      -7.166  13.075  68.741  1.00  0.00    -0.102 OA 
BRANCH  12  15
HETATM   15  C   UNL     1      -7.792  11.320  67.125  1.00  0.00    -0.151 C  
BRANCH  15  16
HETATM   16  N   UNL     1      -8.671  10.636  68.083  1.00  0.00    -0.126 N  
HETATM   17  C   UNL     1      -8.380   9.408  68.631  1.00  0.00    -0.117 C  
HETATM   18  O   UNL     1      -7.376   8.755  68.374  1.00  0.00    -0.083 OA 
HETATM   19  H   UNL     1      -9.540  11.095  68.355  1.00  0.00     0.000 HD 
BRANCH  17  20
HETATM   20  C   UNL     1      -9.392   8.839  69.552  1.00  0.00    -0.157 A  
HETATM   21  C   UNL     1      -9.375   9.277  70.889  1.00  0.00    -0.313 A  
HETATM   22  H   UNL     1     -12.605   5.913  70.472  1.00  0.00     0.000 HD 
HETATM   23  C   UNL     1     -10.300   7.846  69.123  1.00  0.00    -0.225 A  
HETATM   24  C   UNL     1     -11.150   7.297  70.093  1.00  0.00    -0.258 A  
HETATM   25  C   UNL     1     -10.267   8.746  71.812  1.00  0.00    -0.408 A  
HETATM   26  C   UNL     1     -10.393   7.369  67.695  1.00  0.00    -0.297 C  
HETATM   27  O   UNL     1     -12.029   6.286  69.815  1.00  0.00    -0.185 OA 
HETATM   28  C   UNL     1     -11.151   7.750  71.411  1.00  0.00    -0.268 A  
ENDBRANCH  17  20
ENDBRANCH  15  16
BRANCH  15  29
HETATM   29  C   UNL     1      -8.148  10.995  65.644  1.00  0.00     0.004 C  
BRANCH  29  30
HETATM   30  S   UNL     1      -9.716  10.086  65.384  1.00  0.00    -0.315 SA 
BRANCH  30  31
HETATM   31  C   UNL     1     -10.881  11.345  64.919  1.00  0.00    -0.257 A  
HETATM   32  C   UNL     1     -12.461  13.024  65.692  1.00  0.00    -0.452 A  
HETATM   33  C   UNL     1     -11.617  11.944  65.951  1.00  0.00    -0.291 A  
HETATM   34  C   UNL     1     -11.856  12.923  63.360  1.00  0.00    -0.576 A  
HETATM   35  C   UNL     1     -12.575  13.519  64.395  1.00  0.00    -0.233 A  
HETATM   36  C   UNL     1     -11.012  11.840  63.620  1.00  0.00    -0.513 A  
ENDBRANCH  30  31
ENDBRANCH  29  30
ENDBRANCH  15  29
ENDBRANCH  12  15
ENDBRANCH  11  12
ENDBRANCH   8  11
BRANCH   9  37
HETATM   37  C   UNL     1      -9.880  16.719  68.165  1.00  0.00    -0.264 C  
HETATM   38  C   UNL     1      -8.340  19.237  67.078  1.00  0.00    -0.300 C  
HETATM   39  O   UNL     1      -9.051  16.850  69.063  1.00  0.00    -0.254 OA 
HETATM   40  C   UNL     1     -10.638  20.020  66.524  1.00  0.00    -0.461 C  
HETATM   41  C   UNL     1      -9.815  19.157  67.496  1.00  0.00    -0.329 C  
HETATM   42  N   UNL     1     -10.324  17.783  67.396  1.00  0.00    -0.356 N  
HETATM   43  C   UNL     1      -9.985  19.724  68.913  1.00  0.00    -0.490 C  
HETATM   44  H   UNL     1     -11.057  17.598  66.712  1.00  0.00     0.000 HD 
ENDBRANCH   9  37
TORSDOF 9
ENDMDL
MODEL      144
REMARK 921   NORMALIZED FREE ENERGY PREDICTED BY IDOCK:   -5.08 KCAL/MOL
REMARK 922        TOTAL FREE ENERGY PREDICTED BY IDOCK:  -10.59 KCAL/MOL
REMARK 923 INTER-LIGAND FREE ENERGY PREDICTED BY IDOCK:   -9.18 KCAL/MOL
REMARK 924 INTRA-LIGAND FREE ENERGY PREDICTED BY IDOCK:   -1.41 KCAL/MOL
REMARK 927      BINDING AFFINITY PREDICTED BY RF-SCORE:    0.00 PKD
ROOT
HETATM    1  C   UNL     1      -9.158  10.670  64.962  1.00  0.00    -0.229 C  
HETATM    2  C   UNL     1      -9.348  10.668  63.441  1.00  0.00    -0.324 C  
HETATM    3  C   UNL     1      -8.666   9.473  62.786  1.00  0.00    -0.232 C  
HETATM    4  C   UNL     1      -7.177   9.456  63.103  1.00  0.00    -0.100 C  
HETATM    5  C   UNL     1      -6.885   9.511  64.602  1.00  0.00    -0.101 C  
HETATM    6  C   UNL     1      -7.682  10.586  65.358  1.00  0.00    -0.106 C  
HETATM    7  C   UNL     1      -7.588  10.442  66.887  1.00  0.00    -0.107 C  
HETATM    8  N   UNL     1      -8.169   9.203  67.415  1.00  0.00    -0.107 NA 
HETATM    9  C   UNL     1      -9.462   8.820  66.819  1.00  0.00    -0.191 C  
HETATM   10  C   UNL     1     -10.046   9.619  65.638  1.00  0.00    -0.231 C  
ENDROOT
BRANCH   8  11
HETATM   11  C   UNL     1      -8.204   9.226  68.899  1.00  0.00    -0.111 C  
BRANCH  11  12
HETATM   12  C   UNL     1      -9.349  10.002  69.631  1.00  0.00    -0.220 C  
HETATM   13  H   UNL     1     -10.575  11.524  69.247  1.00  0.00     0.000 HD 
HETATM   14  O   UNL     1      -9.880  11.053  68.803  1.00  0.00    -0.191 OA 
BRANCH  12  15
HETATM   15  C   UNL     1     -10.486   9.095  70.174  1.00  0.00    -0.218 C  
BRANCH  15  16
HETATM   16  N   UNL     1     -10.061   7.713  70.431  1.00  0.00    -0.189 N  
HETATM   17  C   UNL     1     -10.937   6.654  70.502  1.00  0.00    -0.286 C  
HETATM   18  O   UNL     1     -12.152   6.749  70.373  1.00  0.00    -0.357 OA 
HETATM   19  H   UNL     1      -9.067   7.530  70.563  1.00  0.00     0.000 HD 
BRANCH  17  20
HETATM   20  C   UNL     1     -10.348   5.329  70.807  1.00  0.00    -0.309 A  
HETATM   21  C   UNL     1      -9.687   4.654  69.765  1.00  0.00    -0.280 A  
HETATM   22  H   UNL     1      -9.794   1.849  73.511  1.00  0.00     0.000 HD 
HETATM   23  C   UNL     1     -10.500   4.733  72.078  1.00  0.00    -0.225 A  
HETATM   24  C   UNL     1      -9.995   3.434  72.239  1.00  0.00    -0.163 A  
HETATM   25  C   UNL     1      -9.156   3.389  69.974  1.00  0.00    -0.199 A  
HETATM   26  C   UNL     1     -11.160   5.425  73.245  1.00  0.00    -0.352 C  
HETATM   27  O   UNL     1     -10.136   2.729  73.402  1.00  0.00    -0.102 OA 
HETATM   28  C   UNL     1      -9.317   2.778  71.213  1.00  0.00    -0.208 A  
ENDBRANCH  17  20
ENDBRANCH  15  16
BRANCH  15  29
HETATM   29  C   UNL     1     -11.254   9.721  71.376  1.00  0.00    -0.298 C  
BRANCH  29  30
HETATM   30  S   UNL     1     -12.946  10.321  71.014  1.00  0.00    -0.375 SA 
BRANCH  30  31
HETATM   31  C   UNL     1     -12.856  12.075  71.283  1.00  0.00    -0.265 A  
HETATM   32  C   UNL     1     -12.265  14.238  70.342  1.00  0.00    -0.411 A  
HETATM   33  C   UNL     1     -12.266  12.845  70.271  1.00  0.00    -0.362 A  
HETATM   34  C   UNL     1     -13.437  14.121  72.445  1.00  0.00    -0.616 A  
HETATM   35  C   UNL     1     -12.857  14.877  71.428  1.00  0.00    -0.416 A  
HETATM   36  C   UNL     1     -13.437  12.724  72.374  1.00  0.00    -0.512 A  
ENDBRANCH  30  31
ENDBRANCH  29  30
ENDBRANCH  15  29
ENDBRANCH  12  15
ENDBRANCH  11  12
ENDBRANCH   8  11
BRANCH   9  37
HETATM   37  C   UNL     1      -9.410   7.312  66.416  1.00  0.00    -0.150 C  
HETATM   38  C   UNL     1      -8.524   5.213  64.248  1.00  0.00    -0.131 C  
HETATM   39  O   UNL     1     -10.373   6.551  66.469  1.00  0.00    -0.156 OA 
HETATM   40  C   UNL     1      -6.300   5.491  65.331  1.00  0.00    -0.038 C  
HETATM   41  C   UNL     1      -7.818   5.536  65.572  1.00  0.00    -0.099 C  
HETATM   42  N   UNL     1      -8.146   6.893  66.033  1.00  0.00    -0.112 N  
HETATM   43  C   UNL     1      -8.176   4.477  66.625  1.00  0.00    -0.102 C  
HETATM   44  H   UNL     1      -7.389   7.575  66.074  1.00  0.00     0.000 HD 
ENDBRANCH   9  37
TORSDOF 9
ENDMDL
MODEL      145
REMARK 921   NORMALIZED FREE ENERGY PREDICTED BY IDOCK:   -5.08 KCAL/MOL
REMARK 922        TOTAL FREE ENERGY PREDICTED BY IDOCK:  -10.58 KCAL/MOL
REMARK 923 INTER-LIGAND FREE ENERGY PREDICTED BY IDOCK:   -8.16 KCAL/MOL
REMARK 924 INTRA-LIGAND FREE ENERGY PREDICTED BY IDOCK:   -2.42 KCAL/MOL
REMARK 927      BINDING AFFINITY PREDICTED BY RF-SCORE:    0.00 PKD
ROOT
HETATM    1  C   UNL     1      -5.990   8.564  70.390  1.00  0.00    -0.027 C  
HETATM    2  C   UNL     1      -6.262   7.126  70.844  1.00  0.00    -0.036 C  
HETATM    3  C   UNL     1      -7.681   6.684  70.505  1.00  0.00    -0.104 C  
HETATM    4  C   UNL     1      -8.706   7.612  71.142  1.00  0.00    -0.138 C  
HETATM    5  C   UNL     1      -8.482   9.082  70.789  1.00  0.00    -0.238 C  
HETATM    6  C   UNL     1      -7.025   9.548  70.939  1.00  0.00    -0.076 C  
HETATM    7  C   UNL     1      -6.769  10.933  70.319  1.00  0.00     0.017 C  
HETATM    8  N   UNL     1      -6.961  10.990  68.867  1.00  0.00    -0.080 NA 
HETATM    9  C   UNL     1      -6.403   9.847  68.120  1.00  0.00    -0.055 C  
HETATM   10  C   UNL     1      -5.798   8.645  68.870  1.00  0.00    -0.040 C  
ENDROOT
BRANCH   8  11
HETATM   11  C   UNL     1      -6.518  12.301  68.326  1.00  0.00    -0.056 C  
BRANCH  11  12
HETATM   12  C   UNL     1      -7.538  13.199  67.550  1.00  0.00    -0.163 C  
HETATM   13  H   UNL     1      -8.868  12.985  66.082  1.00  0.00     0.000 HD 
HETATM   14  O   UNL     1      -8.249  12.441  66.554  1.00  0.00    -0.010 OA 
BRANCH  12  15
HETATM   15  C   UNL     1      -8.523  13.978  68.462  1.00  0.00    -0.143 C  
BRANCH  15  16
HETATM   16  N   UNL     1      -8.844  15.322  67.965  1.00  0.00    -0.167 N  
HETATM   17  C   UNL     1      -8.365  16.475  68.543  1.00  0.00    -0.210 C  
HETATM   18  O   UNL     1      -7.639  16.507  69.529  1.00  0.00    -0.147 OA 
HETATM   19  H   UNL     1      -9.453  15.404  67.151  1.00  0.00     0.000 HD 
BRANCH  17  20
HETATM   20  C   UNL     1      -8.817  17.752  67.941  1.00  0.00    -0.251 A  
HETATM   21  C   UNL     1     -10.003  18.322  68.437  1.00  0.00    -0.401 A  
HETATM   22  H   UNL     1      -8.515  20.905  64.827  1.00  0.00     0.000 HD 
HETATM   23  C   UNL     1      -8.120  18.344  66.864  1.00  0.00    -0.257 A  
HETATM   24  C   UNL     1      -8.682  19.496  66.297  1.00  0.00    -0.359 A  
HETATM   25  C   UNL     1     -10.504  19.493  67.883  1.00  0.00    -0.552 A  
HETATM   26  C   UNL     1      -6.823  17.802  66.319  1.00  0.00    -0.308 C  
HETATM   27  O   UNL     1      -8.135  20.124  65.212  1.00  0.00    -0.106 OA 
HETATM   28  C   UNL     1      -9.843  20.076  66.807  1.00  0.00    -0.574 A  
ENDBRANCH  17  20
ENDBRANCH  15  16
BRANCH  15  29
HETATM   29  C   UNL     1      -9.793  13.158  68.840  1.00  0.00     0.135 C  
BRANCH  29  30
HETATM   30  S   UNL     1     -11.397  13.959  68.470  1.00  0.00    -0.301 SA 
BRANCH  30  31
HETATM   31  C   UNL     1     -11.940  14.598  70.037  1.00  0.00    -0.320 A  
HETATM   32  C   UNL     1     -11.374  15.952  71.975  1.00  0.00    -0.277 A  
HETATM   33  C   UNL     1     -11.001  15.311  70.793  1.00  0.00    -0.312 A  
HETATM   34  C   UNL     1     -13.634  15.170  71.672  1.00  0.00    -0.560 A  
HETATM   35  C   UNL     1     -12.695  15.886  72.411  1.00  0.00    -0.525 A  
HETATM   36  C   UNL     1     -13.259  14.527  70.488  1.00  0.00    -0.136 A  
ENDBRANCH  30  31
ENDBRANCH  29  30
ENDBRANCH  15  29
ENDBRANCH  12  15
ENDBRANCH  11  12
ENDBRANCH   8  11
BRANCH   9  37
HETATM   37  C   UNL     1      -7.480   9.316  67.123  1.00  0.00    -0.091 C  
HETATM   38  C   UNL     1     -10.267   7.896  66.795  1.00  0.00    -0.358 C  
HETATM   39  O   UNL     1      -7.229   8.604  66.153  1.00  0.00    -0.082 OA 
HETATM   40  C   UNL     1     -11.140  10.180  67.262  1.00  0.00    -0.166 C  
HETATM   41  C   UNL     1      -9.965   9.395  66.657  1.00  0.00    -0.258 C  
HETATM   42  N   UNL     1      -8.758   9.766  67.409  1.00  0.00    -0.132 N  
HETATM   43  C   UNL     1      -9.844   9.766  65.172  1.00  0.00    -0.294 C  
HETATM   44  H   UNL     1      -8.870  10.402  68.199  1.00  0.00     0.000 HD 
ENDBRANCH   9  37
TORSDOF 9
ENDMDL
MODEL      146
REMARK 921   NORMALIZED FREE ENERGY PREDICTED BY IDOCK:   -5.07 KCAL/MOL
REMARK 922        TOTAL FREE ENERGY PREDICTED BY IDOCK:  -10.57 KCAL/MOL
REMARK 923 INTER-LIGAND FREE ENERGY PREDICTED BY IDOCK:   -8.15 KCAL/MOL
REMARK 924 INTRA-LIGAND FREE ENERGY PREDICTED BY IDOCK:   -2.42 KCAL/MOL
REMARK 927      BINDING AFFINITY PREDICTED BY RF-SCORE:    0.00 PKD
ROOT
HETATM    1  C   UNL     1     -14.050  14.698  71.440  1.00  0.00    -0.469 C  
HETATM    2  C   UNL     1     -14.386  15.755  72.497  1.00  0.00    -0.280 C  
HETATM    3  C   UNL     1     -13.130  16.339  73.133  1.00  0.00    -0.384 C  
HETATM    4  C   UNL     1     -12.284  15.245  73.771  1.00  0.00    -0.706 C  
HETATM    5  C   UNL     1     -11.943  14.113  72.802  1.00  0.00     0.464 C  
HETATM    6  C   UNL     1     -13.143  13.597  71.993  1.00  0.00    -0.484 C  
HETATM    7  C   UNL     1     -12.735  12.666  70.838  1.00  0.00    -0.188 C  
HETATM    8  N   UNL     1     -11.921  13.309  69.801  1.00  0.00    -0.327 NA 
HETATM    9  C   UNL     1     -12.372  14.655  69.403  1.00  0.00    -0.164 C  
HETATM   10  C   UNL     1     -13.531  15.343  70.148  1.00  0.00     0.407 C  
ENDROOT
BRANCH   8  11
HETATM   11  C   UNL     1     -11.727  12.401  68.642  1.00  0.00    -0.326 C  
BRANCH  11  12
HETATM   12  C   UNL     1     -10.290  12.187  68.062  1.00  0.00    -0.205 C  
HETATM   13  H   UNL     1      -8.414  12.619  68.578  1.00  0.00     0.000 HD 
HETATM   14  O   UNL     1      -9.287  12.748  68.930  1.00  0.00     0.080 OA 
BRANCH  12  15
HETATM   15  C   UNL     1      -9.957  10.712  67.712  1.00  0.00    -0.167 C  
BRANCH  15  16
HETATM   16  N   UNL     1     -10.404   9.753  68.730  1.00  0.00    -0.200 N  
HETATM   17  C   UNL     1      -9.549   9.133  69.612  1.00  0.00    -0.176 C  
HETATM   18  O   UNL     1      -8.336   9.302  69.635  1.00  0.00    -0.120 OA 
HETATM   19  H   UNL     1     -11.399   9.536  68.786  1.00  0.00     0.000 HD 
BRANCH  17  20
HETATM   20  C   UNL     1     -10.158   8.163  70.552  1.00  0.00    -0.201 A  
HETATM   21  C   UNL     1     -10.757   8.674  71.718  1.00  0.00    -0.392 A  
HETATM   22  H   UNL     1     -10.878   3.998  71.917  1.00  0.00     0.000 HD 
HETATM   23  C   UNL     1     -10.083   6.772  70.323  1.00  0.00    -0.196 A  
HETATM   24  C   UNL     1     -10.599   5.931  71.319  1.00  0.00    -0.252 A  
HETATM   25  C   UNL     1     -11.303   7.813  72.661  1.00  0.00    -0.449 A  
HETATM   26  C   UNL     1      -9.491   6.169  69.073  1.00  0.00    -0.138 C  
HETATM   27  O   UNL     1     -10.529   4.567  71.241  1.00  0.00    -0.091 OA 
HETATM   28  C   UNL     1     -11.217   6.439  72.461  1.00  0.00    -0.307 A  
ENDBRANCH  17  20
ENDBRANCH  15  16
BRANCH  15  29
HETATM   29  C   UNL     1     -10.392  10.306  66.272  1.00  0.00    -0.186 C  
BRANCH  29  30
HETATM   30  S   UNL     1      -9.039  10.129  65.052  1.00  0.00    -0.227 SA 
BRANCH  30  31
HETATM   31  C   UNL     1      -7.717   9.375  65.971  1.00  0.00    -0.099 A  
HETATM   32  C   UNL     1      -6.758   7.300  66.801  1.00  0.00    -0.061 A  
HETATM   33  C   UNL     1      -7.807   7.995  66.199  1.00  0.00    -0.093 A  
HETATM   34  C   UNL     1      -5.509   9.356  66.969  1.00  0.00    -0.040 A  
HETATM   35  C   UNL     1      -5.604   7.982  67.181  1.00  0.00    -0.037 A  
HETATM   36  C   UNL     1      -6.562  10.051  66.366  1.00  0.00    -0.080 A  
ENDBRANCH  30  31
ENDBRANCH  29  30
ENDBRANCH  15  29
ENDBRANCH  12  15
ENDBRANCH  11  12
ENDBRANCH   8  11
BRANCH   9  37
HETATM   37  C   UNL     1     -11.146  15.622  69.398  1.00  0.00    -0.303 C  
HETATM   38  C   UNL     1      -8.593  16.601  67.845  1.00  0.00    -0.196 C  
HETATM   39  O   UNL     1     -10.376  15.764  70.346  1.00  0.00    -0.248 OA 
HETATM   40  C   UNL     1     -10.260  17.943  66.572  1.00  0.00    -0.379 C  
HETATM   41  C   UNL     1      -9.952  17.308  67.938  1.00  0.00    -0.297 C  
HETATM   42  N   UNL     1     -11.031  16.352  68.226  1.00  0.00    -0.350 N  
HETATM   43  C   UNL     1      -9.887  18.424  68.991  1.00  0.00    -0.288 C  
HETATM   44  H   UNL     1     -11.746  16.216  67.512  1.00  0.00     0.000 HD 
ENDBRANCH   9  37
TORSDOF 9
ENDMDL
MODEL      147
REMARK 921   NORMALIZED FREE ENERGY PREDICTED BY IDOCK:   -5.04 KCAL/MOL
REMARK 922        TOTAL FREE ENERGY PREDICTED BY IDOCK:  -10.53 KCAL/MOL
REMARK 923 INTER-LIGAND FREE ENERGY PREDICTED BY IDOCK:   -8.91 KCAL/MOL
REMARK 924 INTRA-LIGAND FREE ENERGY PREDICTED BY IDOCK:   -1.62 KCAL/MOL
REMARK 927      BINDING AFFINITY PREDICTED BY RF-SCORE:    0.00 PKD
ROOT
HETATM    1  C   UNL     1      -6.910   6.048  72.761  1.00  0.00    -0.075 C  
HETATM    2  C   UNL     1      -5.923   5.048  73.372  1.00  0.00    -0.026 C  
HETATM    3  C   UNL     1      -6.204   3.622  72.914  1.00  0.00    -0.012 C  
HETATM    4  C   UNL     1      -7.625   3.206  73.270  1.00  0.00    -0.056 C  
HETATM    5  C   UNL     1      -8.682   4.178  72.747  1.00  0.00    -0.108 C  
HETATM    6  C   UNL     1      -8.365   5.657  73.022  1.00  0.00    -0.118 C  
HETATM    7  C   UNL     1      -9.283   6.623  72.254  1.00  0.00    -0.136 C  
HETATM    8  N   UNL     1      -9.153   6.549  70.795  1.00  0.00    -0.154 NA 
HETATM    9  C   UNL     1      -7.767   6.459  70.298  1.00  0.00    -0.098 C  
HETATM   10  C   UNL     1      -6.592   6.316  71.284  1.00  0.00    -0.051 C  
ENDROOT
BRANCH   8  11
HETATM   11  C   UNL     1      -9.929   7.631  70.138  1.00  0.00    -0.186 C  
BRANCH  11  12
HETATM   12  C   UNL     1      -9.731   9.113  70.603  1.00  0.00    -0.256 C  
HETATM   13  H   UNL     1      -8.346  10.185  71.553  1.00  0.00     0.000 HD 
HETATM   14  O   UNL     1      -8.467   9.286  71.271  1.00  0.00    -0.314 OA 
BRANCH  12  15
HETATM   15  C   UNL     1      -9.910  10.163  69.474  1.00  0.00    -0.232 C  
BRANCH  15  16
HETATM   16  N   UNL     1     -10.544  11.407  69.927  1.00  0.00    -0.345 N  
HETATM   17  C   UNL     1     -11.765  11.844  69.468  1.00  0.00    -0.345 C  
HETATM   18  O   UNL     1     -12.442  11.256  68.632  1.00  0.00    -0.442 OA 
HETATM   19  H   UNL     1     -10.054  11.977  70.617  1.00  0.00     0.000 HD 
BRANCH  17  20
HETATM   20  C   UNL     1     -12.246  13.142  69.999  1.00  0.00    -0.323 A  
HETATM   21  C   UNL     1     -11.969  14.296  69.245  1.00  0.00    -0.375 A  
HETATM   22  H   UNL     1     -14.026  15.596  73.245  1.00  0.00     0.000 HD 
HETATM   23  C   UNL     1     -12.900  13.227  71.247  1.00  0.00    -0.398 A  
HETATM   24  C   UNL     1     -13.226  14.510  71.711  1.00  0.00    -0.351 A  
HETATM   25  C   UNL     1     -12.351  15.547  69.712  1.00  0.00    -0.261 A  
HETATM   26  C   UNL     1     -13.261  12.022  72.078  1.00  0.00    -0.481 C  
HETATM   27  O   UNL     1     -13.805  14.727  72.931  1.00  0.00    -0.503 OA 
HETATM   28  C   UNL     1     -12.975  15.651  70.950  1.00  0.00    -0.471 A  
ENDBRANCH  17  20
ENDBRANCH  15  16
BRANCH  15  29
HETATM   29  C   UNL     1      -8.609  10.415  68.654  1.00  0.00    -0.133 C  
BRANCH  29  30
HETATM   30  S   UNL     1      -8.681   9.948  66.886  1.00  0.00    -0.128 SA 
BRANCH  30  31
HETATM   31  C   UNL     1      -9.645  11.236  66.131  1.00  0.00    -0.214 A  
HETATM   32  C   UNL     1     -10.073  13.625  65.994  1.00  0.00    -0.320 A  
HETATM   33  C   UNL     1      -9.452  12.539  66.609  1.00  0.00    -0.242 A  
HETATM   34  C   UNL     1     -11.101  12.126  64.410  1.00  0.00    -0.387 A  
HETATM   35  C   UNL     1     -10.894  13.418  64.888  1.00  0.00    -0.363 A  
HETATM   36  C   UNL     1     -10.480  11.037  65.029  1.00  0.00    -0.344 A  
ENDBRANCH  30  31
ENDBRANCH  29  30
ENDBRANCH  15  29
ENDBRANCH  12  15
ENDBRANCH  11  12
ENDBRANCH   8  11
BRANCH   9  37
HETATM   37  C   UNL     1      -7.675   5.304  69.251  1.00  0.00    -0.084 C  
HETATM   38  C   UNL     1      -9.050   3.865  66.816  1.00  0.00    -0.161 C  
HETATM   39  O   UNL     1      -7.413   4.137  69.534  1.00  0.00    -0.053 OA 
HETATM   40  C   UNL     1      -8.049   5.750  65.533  1.00  0.00    -0.128 C  
HETATM   41  C   UNL     1      -7.876   4.853  66.771  1.00  0.00    -0.099 C  
HETATM   42  N   UNL     1      -7.873   5.732  67.949  1.00  0.00    -0.097 N  
HETATM   43  C   UNL     1      -6.555   4.083  66.634  1.00  0.00    -0.046 C  
HETATM   44  H   UNL     1      -8.028   6.728  67.796  1.00  0.00     0.000 HD 
ENDBRANCH   9  37
TORSDOF 9
ENDMDL
MODEL      148
REMARK 921   NORMALIZED FREE ENERGY PREDICTED BY IDOCK:   -5.04 KCAL/MOL
REMARK 922        TOTAL FREE ENERGY PREDICTED BY IDOCK:  -10.52 KCAL/MOL
REMARK 923 INTER-LIGAND FREE ENERGY PREDICTED BY IDOCK:   -8.49 KCAL/MOL
REMARK 924 INTRA-LIGAND FREE ENERGY PREDICTED BY IDOCK:   -2.04 KCAL/MOL
REMARK 927      BINDING AFFINITY PREDICTED BY RF-SCORE:    0.00 PKD
ROOT
HETATM    1  C   UNL     1     -10.933  13.177  67.431  1.00  0.00    -0.283 C  
HETATM    2  C   UNL     1     -12.076  14.001  66.829  1.00  0.00    -0.480 C  
HETATM    3  C   UNL     1     -11.754  14.468  65.414  1.00  0.00    -0.354 C  
HETATM    4  C   UNL     1     -10.475  15.295  65.392  1.00  0.00    -0.422 C  
HETATM    5  C   UNL     1      -9.286  14.573  66.025  1.00  0.00    -0.196 C  
HETATM    6  C   UNL     1      -9.597  13.921  67.381  1.00  0.00    -0.235 C  
HETATM    7  C   UNL     1      -8.485  12.974  67.863  1.00  0.00    -0.185 C  
HETATM    8  N   UNL     1      -8.272  11.805  67.004  1.00  0.00    -0.168 NA 
HETATM    9  C   UNL     1      -9.504  11.148  66.530  1.00  0.00    -0.193 C  
HETATM   10  C   UNL     1     -10.884  11.766  66.830  1.00  0.00    -0.312 C  
ENDROOT
BRANCH   8  11
HETATM   11  C   UNL     1      -7.319  10.854  67.631  1.00  0.00    -0.094 C  
BRANCH  11  12
HETATM   12  C   UNL     1      -7.433   9.326  67.313  1.00  0.00    -0.091 C  
HETATM   13  H   UNL     1      -6.300   7.902  66.502  1.00  0.00     0.000 HD 
HETATM   14  O   UNL     1      -6.231   8.829  66.695  1.00  0.00    -0.056 OA 
BRANCH  12  15
HETATM   15  C   UNL     1      -7.831   8.450  68.531  1.00  0.00    -0.120 C  
BRANCH  15  16
HETATM   16  N   UNL     1      -9.190   8.713  69.022  1.00  0.00    -0.145 N  
HETATM   17  C   UNL     1      -9.474   9.032  70.330  1.00  0.00    -0.200 C  
HETATM   18  O   UNL     1      -8.635   9.119  71.219  1.00  0.00    -0.278 OA 
HETATM   19  H   UNL     1      -9.964   8.655  68.359  1.00  0.00     0.000 HD 
BRANCH  17  20
HETATM   20  C   UNL     1     -10.903   9.229  70.668  1.00  0.00    -0.339 A  
HETATM   21  C   UNL     1     -11.422  10.532  70.566  1.00  0.00    -0.433 A  
HETATM   22  H   UNL     1     -14.748   7.745  72.323  1.00  0.00     0.000 HD 
HETATM   23  C   UNL     1     -11.700   8.163  71.139  1.00  0.00    -0.309 A  
HETATM   24  C   UNL     1     -13.011   8.470  71.529  1.00  0.00    -0.303 A  
HETATM   25  C   UNL     1     -12.742  10.791  70.914  1.00  0.00    -0.478 A  
HETATM   26  C   UNL     1     -11.210   6.739  71.229  1.00  0.00    -0.319 C  
HETATM   27  O   UNL     1     -13.860   7.537  72.059  1.00  0.00    -0.255 OA 
HETATM   28  C   UNL     1     -13.533   9.756  71.402  1.00  0.00    -0.397 A  
ENDBRANCH  17  20
ENDBRANCH  15  16
BRANCH  15  29
HETATM   29  C   UNL     1      -7.552   6.932  68.318  1.00  0.00    -0.107 C  
BRANCH  29  30
HETATM   30  S   UNL     1      -9.029   5.852  68.264  1.00  0.00    -0.111 SA 
BRANCH  30  31
HETATM   31  C   UNL     1      -8.923   5.044  66.684  1.00  0.00    -0.114 A  
HETATM   32  C   UNL     1      -7.742   4.897  64.564  1.00  0.00    -0.083 A  
HETATM   33  C   UNL     1      -7.980   5.544  65.776  1.00  0.00    -0.108 A  
HETATM   34  C   UNL     1      -9.394   3.238  65.139  1.00  0.00    -0.149 A  
HETATM   35  C   UNL     1      -8.446   3.737  64.248  1.00  0.00    -0.091 A  
HETATM   36  C   UNL     1      -9.633   3.889  66.354  1.00  0.00    -0.204 A  
ENDBRANCH  30  31
ENDBRANCH  29  30
ENDBRANCH  15  29
ENDBRANCH  12  15
ENDBRANCH  11  12
ENDBRANCH   8  11
BRANCH   9  37
HETATM   37  C   UNL     1      -9.395  10.910  64.991  1.00  0.00    -0.226 C  
HETATM   38  C   UNL     1      -7.550  11.042  62.448  1.00  0.00    -0.067 C  
HETATM   39  O   UNL     1     -10.214  11.319  64.170  1.00  0.00    -0.277 OA 
HETATM   40  C   UNL     1      -6.708   8.869  63.325  1.00  0.00    -0.090 C  
HETATM   41  C   UNL     1      -7.935   9.793  63.254  1.00  0.00    -0.145 C  
HETATM   42  N   UNL     1      -8.299  10.142  64.634  1.00  0.00    -0.160 N  
HETATM   43  C   UNL     1      -9.069   9.043  62.540  1.00  0.00     0.093 C  
HETATM   44  H   UNL     1      -7.702   9.793  65.383  1.00  0.00     0.000 HD 
ENDBRANCH   9  37
TORSDOF 9
ENDMDL
MODEL      149
REMARK 921   NORMALIZED FREE ENERGY PREDICTED BY IDOCK:   -5.02 KCAL/MOL
REMARK 922        TOTAL FREE ENERGY PREDICTED BY IDOCK:  -10.50 KCAL/MOL
REMARK 923 INTER-LIGAND FREE ENERGY PREDICTED BY IDOCK:   -9.14 KCAL/MOL
REMARK 924 INTRA-LIGAND FREE ENERGY PREDICTED BY IDOCK:   -1.36 KCAL/MOL
REMARK 927      BINDING AFFINITY PREDICTED BY RF-SCORE:    0.00 PKD
ROOT
HETATM    1  C   UNL     1     -10.058   7.768  72.630  1.00  0.00    -0.320 C  
HETATM    2  C   UNL     1     -10.150   7.028  73.968  1.00  0.00    -0.355 C  
HETATM    3  C   UNL     1     -10.369   5.532  73.774  1.00  0.00    -0.271 C  
HETATM    4  C   UNL     1     -11.635   5.268  72.969  1.00  0.00    -0.290 C  
HETATM    5  C   UNL     1     -11.660   6.012  71.635  1.00  0.00    -0.263 C  
HETATM    6  C   UNL     1     -11.270   7.495  71.736  1.00  0.00    -0.281 C  
HETATM    7  C   UNL     1     -11.030   8.150  70.364  1.00  0.00    -0.247 C  
HETATM    8  N   UNL     1      -9.901   7.587  69.614  1.00  0.00    -0.178 NA 
HETATM    9  C   UNL     1      -8.691   7.328  70.415  1.00  0.00    -0.146 C  
HETATM   10  C   UNL     1      -8.709   7.521  71.944  1.00  0.00    -0.132 C  
ENDROOT
BRANCH   8  11
HETATM   11  C   UNL     1      -9.624   8.389  68.396  1.00  0.00    -0.148 C  
BRANCH  11  12
HETATM   12  C   UNL     1     -10.314   9.782  68.215  1.00  0.00    -0.198 C  
HETATM   13  H   UNL     1     -10.111  11.629  68.933  1.00  0.00     0.000 HD 
HETATM   14  O   UNL     1      -9.692  10.784  69.042  1.00  0.00    -0.197 OA 
BRANCH  12  15
HETATM   15  C   UNL     1     -10.408  10.260  66.742  1.00  0.00    -0.227 C  
BRANCH  15  16
HETATM   16  N   UNL     1     -10.185  11.702  66.578  1.00  0.00    -0.209 N  
HETATM   17  C   UNL     1     -11.165  12.646  66.775  1.00  0.00    -0.300 C  
HETATM   18  O   UNL     1     -12.321  12.390  67.093  1.00  0.00    -0.380 OA 
HETATM   19  H   UNL     1      -9.255  12.019  66.303  1.00  0.00     0.000 HD 
BRANCH  17  20
HETATM   20  C   UNL     1     -10.784  14.057  66.530  1.00  0.00    -0.281 A  
HETATM   21  C   UNL     1     -10.020  14.706  67.518  1.00  0.00    -0.223 A  
HETATM   22  H   UNL     1     -11.096  17.821  64.192  1.00  0.00     0.000 HD 
HETATM   23  C   UNL     1     -11.225  14.748  65.380  1.00  0.00    -0.347 A  
HETATM   24  C   UNL     1     -10.897  16.109  65.288  1.00  0.00    -0.336 A  
HETATM   25  C   UNL     1      -9.671  16.042  67.369  1.00  0.00    -0.232 A  
HETATM   26  C   UNL     1     -12.008  14.094  64.270  1.00  0.00    -0.460 C  
HETATM   27  O   UNL     1     -11.318  16.899  64.254  1.00  0.00    -1.202 OA 
HETATM   28  C   UNL     1     -10.117  16.743  66.254  1.00  0.00    -0.338 A  
ENDBRANCH  17  20
ENDBRANCH  15  16
BRANCH  15  29
HETATM   29  C   UNL     1      -9.555   9.403  65.759  1.00  0.00    -0.271 C  
BRANCH  29  30
HETATM   30  S   UNL     1      -7.890  10.061  65.372  1.00  0.00    -0.141 SA 
BRANCH  30  31
HETATM   31  C   UNL     1      -7.097   8.745  64.478  1.00  0.00    -0.085 A  
HETATM   32  C   UNL     1      -6.694   6.352  64.337  1.00  0.00    -0.034 A  
HETATM   33  C   UNL     1      -7.179   7.460  65.031  1.00  0.00    -0.067 A  
HETATM   34  C   UNL     1      -6.026   7.793  62.524  1.00  0.00    -0.068 A  
HETATM   35  C   UNL     1      -6.122   6.518  63.079  1.00  0.00    -0.034 A  
HETATM   36  C   UNL     1      -6.511   8.904  63.221  1.00  0.00    -0.090 A  
ENDBRANCH  30  31
ENDBRANCH  29  30
ENDBRANCH  15  29
ENDBRANCH  12  15
ENDBRANCH  11  12
ENDBRANCH   8  11
BRANCH   9  37
HETATM   37  C   UNL     1      -8.174   5.887  70.106  1.00  0.00    -0.118 C  
HETATM   38  C   UNL     1      -8.938   2.861  69.719  1.00  0.00    -0.169 C  
HETATM   39  O   UNL     1      -7.213   5.365  70.666  1.00  0.00    -0.064 OA 
HETATM   40  C   UNL     1      -9.583   3.633  67.442  1.00  0.00    -0.197 C  
HETATM   41  C   UNL     1      -8.632   3.890  68.622  1.00  0.00    -0.094 C  
HETATM   42  N   UNL     1      -8.881   5.260  69.092  1.00  0.00    -0.099 N  
HETATM   43  C   UNL     1      -7.187   3.713  68.132  1.00  0.00    -0.051 C  
HETATM   44  H   UNL     1      -9.627   5.787  68.640  1.00  0.00     0.000 HD 
ENDBRANCH   9  37
TORSDOF 9
ENDMDL
MODEL      150
REMARK 921   NORMALIZED FREE ENERGY PREDICTED BY IDOCK:   -5.01 KCAL/MOL
REMARK 922        TOTAL FREE ENERGY PREDICTED BY IDOCK:  -10.47 KCAL/MOL
REMARK 923 INTER-LIGAND FREE ENERGY PREDICTED BY IDOCK:   -7.14 KCAL/MOL
REMARK 924 INTRA-LIGAND FREE ENERGY PREDICTED BY IDOCK:   -3.33 KCAL/MOL
REMARK 927      BINDING AFFINITY PREDICTED BY RF-SCORE:    0.00 PKD
ROOT
HETATM    1  C   UNL     1     -10.951   5.341  72.027  1.00  0.00    -0.196 C  
HETATM    2  C   UNL     1     -10.774   5.426  73.547  1.00  0.00    -0.331 C  
HETATM    3  C   UNL     1      -9.825   6.549  73.946  1.00  0.00    -0.272 C  
HETATM    4  C   UNL     1      -8.462   6.367  73.293  1.00  0.00    -0.123 C  
HETATM    5  C   UNL     1      -8.542   6.218  71.774  1.00  0.00    -0.133 C  
HETATM    6  C   UNL     1      -9.612   5.224  71.297  1.00  0.00    -0.212 C  
HETATM    7  C   UNL     1      -9.868   5.295  69.781  1.00  0.00    -0.211 C  
HETATM    8  N   UNL     1     -10.412   6.576  69.320  1.00  0.00    -0.201 NA 
HETATM    9  C   UNL     1     -11.475   7.143  70.171  1.00  0.00    -0.205 C  
HETATM   10  C   UNL     1     -11.850   6.469  71.505  1.00  0.00    -0.386 C  
ENDROOT
BRANCH   8  11
HETATM   11  C   UNL     1     -10.801   6.501  67.888  1.00  0.00    -0.304 C  
BRANCH  11  12
HETATM   12  C   UNL     1      -9.910   5.691  66.889  1.00  0.00    -0.159 C  
HETATM   13  H   UNL     1     -10.152   4.245  65.539  1.00  0.00     0.000 HD 
HETATM   14  O   UNL     1     -10.692   4.737  66.146  1.00  0.00    -0.308 OA 
BRANCH  12  15
HETATM   15  C   UNL     1      -9.059   6.572  65.936  1.00  0.00    -0.039 C  
BRANCH  15  16
HETATM   16  N   UNL     1      -9.424   7.994  65.971  1.00  0.00    -0.413 N  
HETATM   17  C   UNL     1      -9.054   8.894  64.999  1.00  0.00    -0.050 C  
HETATM   18  O   UNL     1      -8.378   8.613  64.016  1.00  0.00    -0.168 OA 
HETATM   19  H   UNL     1      -9.980   8.331  66.757  1.00  0.00     0.000 HD 
BRANCH  17  20
HETATM   20  C   UNL     1      -9.472  10.300  65.205  1.00  0.00    -0.296 A  
HETATM   21  C   UNL     1     -10.635  10.737  64.545  1.00  0.00    -0.258 A  
HETATM   22  H   UNL     1      -8.710  14.399  66.738  1.00  0.00     0.000 HD 
HETATM   23  C   UNL     1      -8.698  11.191  65.982  1.00  0.00    -0.185 A  
HETATM   24  C   UNL     1      -9.122  12.526  66.034  1.00  0.00     0.071 A  
HETATM   25  C   UNL     1     -11.053  12.057  64.661  1.00  0.00    -0.375 A  
HETATM   26  C   UNL     1      -7.468  10.769  66.745  1.00  0.00    -0.129 C  
HETATM   27  O   UNL     1      -8.424  13.494  66.702  1.00  0.00    -0.038 OA 
HETATM   28  C   UNL     1     -10.289  12.952  65.403  1.00  0.00    -0.310 A  
ENDBRANCH  17  20
ENDBRANCH  15  16
BRANCH  15  29
HETATM   29  C   UNL     1      -7.525   6.342  66.087  1.00  0.00    -0.085 C  
BRANCH  29  30
HETATM   30  S   UNL     1      -6.752   7.083  67.572  1.00  0.00    -0.070 SA 
BRANCH  30  31
HETATM   31  C   UNL     1      -6.304   5.686  68.576  1.00  0.00    -0.041 A  
HETATM   32  C   UNL     1      -5.231   4.927  70.622  1.00  0.00    -0.004 A  
HETATM   33  C   UNL     1      -5.525   5.943  69.712  1.00  0.00    -0.012 A  
HETATM   34  C   UNL     1      -6.484   3.372  69.271  1.00  0.00    -0.033 A  
HETATM   35  C   UNL     1      -5.718   3.641  70.404  1.00  0.00    -0.017 A  
HETATM   36  C   UNL     1      -6.776   4.390  68.359  1.00  0.00    -0.047 A  
ENDBRANCH  30  31
ENDBRANCH  29  30
ENDBRANCH  15  29
ENDBRANCH  12  15
ENDBRANCH  11  12
ENDBRANCH   8  11
BRANCH   9  37
HETATM   37  C   UNL     1     -11.158   8.646  70.449  1.00  0.00    -0.230 C  
HETATM   38  C   UNL     1      -9.862  11.293  69.350  1.00  0.00     0.186 C  
HETATM   39  O   UNL     1     -10.643   9.062  71.484  1.00  0.00    -0.291 OA 
HETATM   40  C   UNL     1     -12.025  11.481  68.131  1.00  0.00    -0.206 C  
HETATM   41  C   UNL     1     -11.356  10.942  69.406  1.00  0.00    -0.280 C  
HETATM   42  N   UNL     1     -11.561   9.487  69.424  1.00  0.00    -0.425 N  
HETATM   43  C   UNL     1     -12.004  11.622  70.621  1.00  0.00    -0.356 C  
HETATM   44  H   UNL     1     -12.034   9.066  68.625  1.00  0.00     0.000 HD 
ENDBRANCH   9  37
TORSDOF 9
ENDMDL
MODEL      151
REMARK 921   NORMALIZED FREE ENERGY PREDICTED BY IDOCK:   -4.98 KCAL/MOL
REMARK 922        TOTAL FREE ENERGY PREDICTED BY IDOCK:  -10.43 KCAL/MOL
REMARK 923 INTER-LIGAND FREE ENERGY PREDICTED BY IDOCK:   -8.05 KCAL/MOL
REMARK 924 INTRA-LIGAND FREE ENERGY PREDICTED BY IDOCK:   -2.38 KCAL/MOL
REMARK 927      BINDING AFFINITY PREDICTED BY RF-SCORE:    0.00 PKD
ROOT
HETATM    1  C   UNL     1      -9.912  16.895  68.567  1.00  0.00    -0.275 C  
HETATM    2  C   UNL     1      -9.036  18.047  68.064  1.00  0.00    -0.274 C  
HETATM    3  C   UNL     1      -8.151  17.620  66.899  1.00  0.00    -0.249 C  
HETATM    4  C   UNL     1      -7.260  16.450  67.294  1.00  0.00    -0.210 C  
HETATM    5  C   UNL     1      -8.043  15.267  67.862  1.00  0.00    -0.146 C  
HETATM    6  C   UNL     1      -9.087  15.656  68.921  1.00  0.00    -0.217 C  
HETATM    7  C   UNL     1     -10.047  14.506  69.271  1.00  0.00    -0.071 C  
HETATM    8  N   UNL     1     -10.892  14.063  68.157  1.00  0.00    -0.243 NA 
HETATM    9  C   UNL     1     -11.472  15.150  67.347  1.00  0.00    -0.277 C  
HETATM   10  C   UNL     1     -11.076  16.616  67.608  1.00  0.00    -0.107 C  
ENDROOT
BRANCH   8  11
HETATM   11  C   UNL     1     -11.910  13.086  68.622  1.00  0.00    -0.318 C  
BRANCH  11  12
HETATM   12  C   UNL     1     -11.459  11.835  69.446  1.00  0.00    -0.307 C  
HETATM   13  H   UNL     1     -12.303  10.456  70.609  1.00  0.00     0.000 HD 
HETATM   14  O   UNL     1     -12.577  11.215  70.109  1.00  0.00    -0.258 OA 
BRANCH  12  15
HETATM   15  C   UNL     1     -10.651  10.791  68.628  1.00  0.00    -0.199 C  
BRANCH  15  16
HETATM   16  N   UNL     1     -10.686   9.441  69.204  1.00  0.00    -0.285 N  
HETATM   17  C   UNL     1      -9.668   8.918  69.966  1.00  0.00    -0.174 C  
HETATM   18  O   UNL     1      -8.628   9.509  70.234  1.00  0.00    -0.198 OA 
HETATM   19  H   UNL     1     -11.508   8.862  69.029  1.00  0.00     0.000 HD 
BRANCH  17  20
HETATM   20  C   UNL     1      -9.844   7.525  70.439  1.00  0.00    -0.183 A  
HETATM   21  C   UNL     1      -9.379   6.490  69.607  1.00  0.00    -0.144 A  
HETATM   22  H   UNL     1     -11.552   4.570  73.283  1.00  0.00     0.000 HD 
HETATM   23  C   UNL     1     -10.515   7.239  71.649  1.00  0.00    -0.218 A  
HETATM   24  C   UNL     1     -10.722   5.888  71.960  1.00  0.00    -0.233 A  
HETATM   25  C   UNL     1      -9.557   5.163  69.972  1.00  0.00    -0.247 A  
HETATM   26  C   UNL     1     -10.998   8.305  72.600  1.00  0.00    -0.386 C  
HETATM   27  O   UNL     1     -11.412   5.486  73.072  1.00  0.00    -0.291 OA 
HETATM   28  C   UNL     1     -10.236   4.864  71.149  1.00  0.00    -0.261 A  
ENDBRANCH  17  20
ENDBRANCH  15  16
BRANCH  15  29
HETATM   29  C   UNL     1     -10.988  10.805  67.107  1.00  0.00    -0.260 C  
BRANCH  29  30
HETATM   30  S   UNL     1      -9.729  10.060  66.006  1.00  0.00    -0.258 SA 
BRANCH  30  31
HETATM   31  C   UNL     1      -8.188  10.353  66.842  1.00  0.00    -0.124 A  
HETATM   32  C   UNL     1      -6.074   9.404  67.578  1.00  0.00    -0.053 A  
HETATM   33  C   UNL     1      -7.353   9.246  67.043  1.00  0.00    -0.091 A  
HETATM   34  C   UNL     1      -6.444  11.782  67.729  1.00  0.00    -0.075 A  
HETATM   35  C   UNL     1      -5.617  10.676  67.915  1.00  0.00    -0.043 A  
HETATM   36  C   UNL     1      -7.726  11.623  67.194  1.00  0.00    -0.159 A  
ENDBRANCH  30  31
ENDBRANCH  29  30
ENDBRANCH  15  29
ENDBRANCH  12  15
ENDBRANCH  11  12
ENDBRANCH   8  11
BRANCH   9  37
HETATM   37  C   UNL     1     -11.238  14.837  65.835  1.00  0.00    -0.340 C  
HETATM   38  C   UNL     1     -10.403  12.675  63.709  1.00  0.00    -0.360 C  
HETATM   39  O   UNL     1     -10.575  15.545  65.079  1.00  0.00    -0.413 OA 
HETATM   40  C   UNL     1     -12.765  11.936  63.987  1.00  0.00    -0.350 C  
HETATM   41  C   UNL     1     -11.824  13.152  64.042  1.00  0.00    -0.453 C  
HETATM   42  N   UNL     1     -11.897  13.697  65.405  1.00  0.00    -0.337 N  
HETATM   43  C   UNL     1     -12.288  14.176  62.996  1.00  0.00     1.038 C  
HETATM   44  H   UNL     1     -12.474  13.200  66.083  1.00  0.00     0.000 HD 
ENDBRANCH   9  37
TORSDOF 9
ENDMDL
MODEL      152
REMARK 921   NORMALIZED FREE ENERGY PREDICTED BY IDOCK:   -4.95 KCAL/MOL
REMARK 922        TOTAL FREE ENERGY PREDICTED BY IDOCK:  -10.39 KCAL/MOL
REMARK 923 INTER-LIGAND FREE ENERGY PREDICTED BY IDOCK:   -8.12 KCAL/MOL
REMARK 924 INTRA-LIGAND FREE ENERGY PREDICTED BY IDOCK:   -2.27 KCAL/MOL
REMARK 927      BINDING AFFINITY PREDICTED BY RF-SCORE:    0.00 PKD
ROOT
HETATM    1  C   UNL     1      -7.713   4.478  67.273  1.00  0.00    -0.089 C  
HETATM    2  C   UNL     1      -6.763   3.802  66.279  1.00  0.00    -0.049 C  
HETATM    3  C   UNL     1      -7.107   4.154  64.837  1.00  0.00    -0.062 C  
HETATM    4  C   UNL     1      -8.540   3.760  64.507  1.00  0.00    -0.105 C  
HETATM    5  C   UNL     1      -9.561   4.346  65.482  1.00  0.00    -0.188 C  
HETATM    6  C   UNL     1      -9.181   4.180  66.962  1.00  0.00    -0.173 C  
HETATM    7  C   UNL     1     -10.066   5.011  67.908  1.00  0.00    -0.113 C  
HETATM    8  N   UNL     1      -9.952   6.461  67.723  1.00  0.00    -0.122 NA 
HETATM    9  C   UNL     1      -8.576   6.958  67.541  1.00  0.00    -0.121 C  
HETATM   10  C   UNL     1      -7.398   5.972  67.421  1.00  0.00    -0.077 C  
ENDROOT
BRANCH   8  11
HETATM   11  C   UNL     1     -10.689   7.189  68.788  1.00  0.00    -0.169 C  
BRANCH  11  12
HETATM   12  C   UNL     1      -9.928   7.655  70.073  1.00  0.00    -0.190 C  
HETATM   13  H   UNL     1      -8.569   6.916  71.328  1.00  0.00     0.000 HD 
HETATM   14  O   UNL     1      -9.031   6.633  70.548  1.00  0.00    -0.150 OA 
BRANCH  12  15
HETATM   15  C   UNL     1      -9.189   9.012  69.919  1.00  0.00    -0.173 C  
BRANCH  15  16
HETATM   16  N   UNL     1     -10.017  10.172  70.271  1.00  0.00    -0.410 N  
HETATM   17  C   UNL     1     -11.000  10.677  69.451  1.00  0.00    -0.255 C  
HETATM   18  O   UNL     1     -11.279  10.227  68.346  1.00  0.00    -0.265 OA 
HETATM   19  H   UNL     1      -9.855  10.627  71.170  1.00  0.00     0.000 HD 
BRANCH  17  20
HETATM   20  C   UNL     1     -11.718  11.878  69.940  1.00  0.00    -0.383 A  
HETATM   21  C   UNL     1     -11.466  13.098  69.288  1.00  0.00    -0.348 A  
HETATM   22  H   UNL     1     -14.294  13.920  72.927  1.00  0.00     0.000 HD 
HETATM   23  C   UNL     1     -12.573  11.816  71.063  1.00  0.00    -0.409 A  
HETATM   24  C   UNL     1     -13.126  13.024  71.511  1.00  0.00    -0.310 A  
HETATM   25  C   UNL     1     -12.071  14.267  69.729  1.00  0.00    -0.401 A  
HETATM   26  C   UNL     1     -12.913  10.531  71.775  1.00  0.00    -0.582 C  
HETATM   27  O   UNL     1     -13.919  13.102  72.623  1.00  0.00    -0.708 OA 
HETATM   28  C   UNL     1     -12.897  14.228  70.847  1.00  0.00    -0.416 A  
ENDBRANCH  17  20
ENDBRANCH  15  16
BRANCH  15  29
HETATM   29  C   UNL     1      -7.793   9.037  70.610  1.00  0.00    -0.133 C  
BRANCH  29  30
HETATM   30  S   UNL     1      -6.349   8.961  69.487  1.00  0.00    -0.044 SA 
BRANCH  30  31
HETATM   31  C   UNL     1      -6.159  10.630  68.905  1.00  0.00    -0.040 A  
HETATM   32  C   UNL     1      -6.427  12.992  69.414  1.00  0.00    -0.094 A  
HETATM   33  C   UNL     1      -6.644  11.652  69.733  1.00  0.00    -0.071 A  
HETATM   34  C   UNL     1      -5.242  12.316  67.426  1.00  0.00    -0.105 A  
HETATM   35  C   UNL     1      -5.718  13.324  68.262  1.00  0.00    -0.095 A  
HETATM   36  C   UNL     1      -5.461  10.973  67.746  1.00  0.00    -0.039 A  
ENDBRANCH  30  31
ENDBRANCH  29  30
ENDBRANCH  15  29
ENDBRANCH  12  15
ENDBRANCH  11  12
ENDBRANCH   8  11
BRANCH   9  37
HETATM   37  C   UNL     1      -8.541   7.920  66.311  1.00  0.00    -0.149 C  
HETATM   38  C   UNL     1      -9.988  10.247  64.768  1.00  0.00    -0.392 C  
HETATM   39  O   UNL     1      -8.333   7.554  65.156  1.00  0.00    -0.137 OA 
HETATM   40  C   UNL     1      -8.902  11.661  66.506  1.00  0.00    -0.188 C  
HETATM   41  C   UNL     1      -8.768  10.362  65.693  1.00  0.00    -0.171 C  
HETATM   42  N   UNL     1      -8.721   9.250  66.653  1.00  0.00    -0.126 N  
HETATM   43  C   UNL     1      -7.485  10.442  64.854  1.00  0.00    -0.065 C  
HETATM   44  H   UNL     1      -8.829   9.474  67.642  1.00  0.00     0.000 HD 
ENDBRANCH   9  37
TORSDOF 9
ENDMDL
MODEL      153
REMARK 921   NORMALIZED FREE ENERGY PREDICTED BY IDOCK:   -4.88 KCAL/MOL
REMARK 922        TOTAL FREE ENERGY PREDICTED BY IDOCK:  -10.29 KCAL/MOL
REMARK 923 INTER-LIGAND FREE ENERGY PREDICTED BY IDOCK:   -9.20 KCAL/MOL
REMARK 924 INTRA-LIGAND FREE ENERGY PREDICTED BY IDOCK:   -1.08 KCAL/MOL
REMARK 927      BINDING AFFINITY PREDICTED BY RF-SCORE:    0.00 PKD
ROOT
HETATM    1  C   UNL     1     -11.008   9.207  71.942  1.00  0.00    -0.372 C  
HETATM    2  C   UNL     1     -11.318   7.814  72.500  1.00  0.00    -0.429 C  
HETATM    3  C   UNL     1     -12.168   6.994  71.538  1.00  0.00    -0.407 C  
HETATM    4  C   UNL     1     -13.475   7.708  71.223  1.00  0.00    -0.283 C  
HETATM    5  C   UNL     1     -13.268   9.132  70.708  1.00  0.00     0.178 C  
HETATM    6  C   UNL     1     -12.276   9.962  71.538  1.00  0.00    -0.505 C  
HETATM    7  C   UNL     1     -11.871  11.279  70.854  1.00  0.00    -0.071 C  
HETATM    8  N   UNL     1     -11.145  11.106  69.591  1.00  0.00    -0.250 NA 
HETATM    9  C   UNL     1     -10.110  10.055  69.609  1.00  0.00    -0.236 C  
HETATM   10  C   UNL     1      -9.942   9.144  70.840  1.00  0.00    -0.357 C  
ENDROOT
BRANCH   8  11
HETATM   11  C   UNL     1     -10.633  12.408  69.093  1.00  0.00     0.039 C  
BRANCH  11  12
HETATM   12  C   UNL     1     -11.401  13.153  67.951  1.00  0.00    -0.286 C  
HETATM   13  H   UNL     1     -12.812  14.551  67.796  1.00  0.00     0.000 HD 
HETATM   14  O   UNL     1     -12.345  14.099  68.488  1.00  0.00    -0.244 OA 
BRANCH  12  15
HETATM   15  C   UNL     1     -10.481  13.824  66.897  1.00  0.00    -0.272 C  
BRANCH  15  16
HETATM   16  N   UNL     1     -10.235  15.248  67.157  1.00  0.00    -0.249 N  
HETATM   17  C   UNL     1     -10.165  16.197  66.163  1.00  0.00    -0.336 C  
HETATM   18  O   UNL     1     -10.287  15.958  64.967  1.00  0.00    -0.508 OA 
HETATM   19  H   UNL     1     -10.108  15.549  68.124  1.00  0.00     0.000 HD 
BRANCH  17  20
HETATM   20  C   UNL     1      -9.870  17.584  66.593  1.00  0.00    -0.308 A  
HETATM   21  C   UNL     1     -10.910  18.313  67.198  1.00  0.00    -0.239 A  
HETATM   22  H   UNL     1      -7.218  21.146  66.689  1.00  0.00     0.000 HD 
HETATM   23  C   UNL     1      -8.614  18.179  66.345  1.00  0.00    -0.251 A  
HETATM   24  C   UNL     1      -8.466  19.529  66.697  1.00  0.00    -0.327 A  
HETATM   25  C   UNL     1     -10.712  19.633  67.580  1.00  0.00    -0.500 A  
HETATM   26  C   UNL     1      -7.450  17.436  65.738  1.00  0.00     0.076 C  
HETATM   27  O   UNL     1      -7.318  20.232  66.451  1.00  0.00    -0.272 OA 
HETATM   28  C   UNL     1      -9.488  20.241  67.322  1.00  0.00    -0.557 A  
ENDBRANCH  17  20
ENDBRANCH  15  16
BRANCH  15  29
HETATM   29  C   UNL     1      -9.170  13.027  66.625  1.00  0.00    -0.219 C  
BRANCH  29  30
HETATM   30  S   UNL     1      -8.076  12.780  68.072  1.00  0.00    -0.173 SA 
BRANCH  30  31
HETATM   31  C   UNL     1      -7.418  14.397  68.405  1.00  0.00    -0.119 A  
HETATM   32  C   UNL     1      -7.592  16.412  69.755  1.00  0.00     0.418 A  
HETATM   33  C   UNL     1      -8.105  15.182  69.341  1.00  0.00    -0.200 A  
HETATM   34  C   UNL     1      -5.697  16.100  68.297  1.00  0.00    -0.107 A  
HETATM   35  C   UNL     1      -6.383  16.868  69.237  1.00  0.00    -0.223 A  
HETATM   36  C   UNL     1      -6.213  14.868  67.882  1.00  0.00    -0.175 A  
ENDBRANCH  30  31
ENDBRANCH  29  30
ENDBRANCH  15  29
ENDBRANCH  12  15
ENDBRANCH  11  12
ENDBRANCH   8  11
BRANCH   9  37
HETATM   37  C   UNL     1     -10.281   9.151  68.347  1.00  0.00    -0.200 C  
HETATM   38  C   UNL     1      -8.866   7.251  66.279  1.00  0.00    -0.179 C  
HETATM   39  O   UNL     1     -10.862   9.502  67.322  1.00  0.00    -0.251 OA 
HETATM   40  C   UNL     1      -9.134   5.576  68.101  1.00  0.00    -0.111 C  
HETATM   41  C   UNL     1      -9.741   6.841  67.471  1.00  0.00    -0.128 C  
HETATM   42  N   UNL     1      -9.751   7.882  68.508  1.00  0.00    -0.157 N  
HETATM   43  C   UNL     1     -11.160   6.511  66.985  1.00  0.00    -0.411 C  
HETATM   44  H   UNL     1      -9.338   7.653  69.412  1.00  0.00     0.000 HD 
ENDBRANCH   9  37
TORSDOF 9
ENDMDL
MODEL      154
REMARK 921   NORMALIZED FREE ENERGY PREDICTED BY IDOCK:   -4.81 KCAL/MOL
REMARK 922        TOTAL FREE ENERGY PREDICTED BY IDOCK:  -10.18 KCAL/MOL
REMARK 923 INTER-LIGAND FREE ENERGY PREDICTED BY IDOCK:   -8.38 KCAL/MOL
REMARK 924 INTRA-LIGAND FREE ENERGY PREDICTED BY IDOCK:   -1.80 KCAL/MOL
REMARK 927      BINDING AFFINITY PREDICTED BY RF-SCORE:    0.00 PKD
ROOT
HETATM    1  C   UNL     1     -12.202  13.806  68.720  1.00  0.00    -0.221 C  
HETATM    2  C   UNL     1     -12.751  14.814  69.735  1.00  0.00    -0.062 C  
HETATM    3  C   UNL     1     -11.779  15.961  69.978  1.00  0.00    -0.340 C  
HETATM    4  C   UNL     1     -10.434  15.440  70.467  1.00  0.00    -0.140 C  
HETATM    5  C   UNL     1      -9.830  14.384  69.543  1.00  0.00     0.246 C  
HETATM    6  C   UNL     1     -10.818  13.287  69.114  1.00  0.00    -0.148 C  
HETATM    7  C   UNL     1     -10.278  12.403  67.976  1.00  0.00    -0.219 C  
HETATM    8  N   UNL     1     -10.045  13.116  66.715  1.00  0.00    -0.248 NA 
HETATM    9  C   UNL     1     -11.106  14.066  66.333  1.00  0.00    -0.316 C  
HETATM   10  C   UNL     1     -12.279  14.353  67.289  1.00  0.00    -0.248 C  
ENDROOT
BRANCH   8  11
HETATM   11  C   UNL     1      -9.705  12.165  65.626  1.00  0.00    -0.207 C  
BRANCH  11  12
HETATM   12  C   UNL     1      -9.839  10.626  65.875  1.00  0.00    -0.243 C  
HETATM   13  H   UNL     1      -9.680   8.944  64.820  1.00  0.00     0.000 HD 
HETATM   14  O   UNL     1      -9.599   9.878  64.668  1.00  0.00    -0.299 OA 
BRANCH  12  15
HETATM   15  C   UNL     1      -8.964  10.092  67.042  1.00  0.00    -0.135 C  
BRANCH  15  16
HETATM   16  N   UNL     1      -9.697   9.227  67.975  1.00  0.00    -0.147 N  
HETATM   17  C   UNL     1      -9.344   9.069  69.295  1.00  0.00    -0.150 C  
HETATM   18  O   UNL     1      -8.384   9.615  69.826  1.00  0.00    -0.138 OA 
HETATM   19  H   UNL     1     -10.510   8.718  67.627  1.00  0.00     0.000 HD 
BRANCH  17  20
HETATM   20  C   UNL     1     -10.167   8.128  70.092  1.00  0.00    -0.199 A  
HETATM   21  C   UNL     1      -9.730   6.794  70.179  1.00  0.00    -0.175 A  
HETATM   22  H   UNL     1     -13.871   7.141  72.334  1.00  0.00     0.000 HD 
HETATM   23  C   UNL     1     -11.380   8.537  70.688  1.00  0.00    -0.265 A  
HETATM   24  C   UNL     1     -12.138   7.551  71.335  1.00  0.00    -0.327 A  
HETATM   25  C   UNL     1     -10.482   5.854  70.871  1.00  0.00    -0.305 A  
HETATM   26  C   UNL     1     -11.876   9.961  70.664  1.00  0.00    -0.386 C  
HETATM   27  O   UNL     1     -13.358   7.810  71.896  1.00  0.00    -0.318 OA 
HETATM   28  C   UNL     1     -11.691   6.235  71.444  1.00  0.00    -0.316 A  
ENDBRANCH  17  20
ENDBRANCH  15  16
BRANCH  15  29
HETATM   29  C   UNL     1      -7.621   9.462  66.567  1.00  0.00    -0.093 C  
BRANCH  29  30
HETATM   30  S   UNL     1      -6.292  10.648  66.145  1.00  0.00    -0.134 SA 
BRANCH  30  31
HETATM   31  C   UNL     1      -6.221  11.743  67.544  1.00  0.00    -0.092 A  
HETATM   32  C   UNL     1      -5.514  12.031  69.853  1.00  0.00    -0.098 A  
HETATM   33  C   UNL     1      -5.720  11.214  68.741  1.00  0.00    -0.043 A  
HETATM   34  C   UNL     1      -6.315  13.925  68.593  1.00  0.00    -0.090 A  
HETATM   35  C   UNL     1      -5.806  13.391  69.775  1.00  0.00    -0.119 A  
HETATM   36  C   UNL     1      -6.522  13.105  67.480  1.00  0.00    -0.154 A  
ENDBRANCH  30  31
ENDBRANCH  29  30
ENDBRANCH  15  29
ENDBRANCH  12  15
ENDBRANCH  11  12
ENDBRANCH   8  11
BRANCH   9  37
HETATM   37  C   UNL     1     -10.451  15.426  65.933  1.00  0.00    -0.340 C  
HETATM   38  C   UNL     1     -10.525  18.555  66.240  1.00  0.00    -0.441 C  
HETATM   39  O   UNL     1     -10.179  15.747  64.779  1.00  0.00    -0.403 OA 
HETATM   40  C   UNL     1      -9.339  18.066  68.374  1.00  0.00    -0.306 C  
HETATM   41  C   UNL     1      -9.569  17.575  66.935  1.00  0.00    -0.278 C  
HETATM   42  N   UNL     1     -10.156  16.230  67.022  1.00  0.00    -0.263 N  
HETATM   43  C   UNL     1      -8.219  17.559  66.203  1.00  0.00    -0.222 C  
HETATM   44  H   UNL     1     -10.361  15.863  67.951  1.00  0.00     0.000 HD 
ENDBRANCH   9  37
TORSDOF 9
ENDMDL
MODEL      155
REMARK 921   NORMALIZED FREE ENERGY PREDICTED BY IDOCK:   -4.81 KCAL/MOL
REMARK 922        TOTAL FREE ENERGY PREDICTED BY IDOCK:  -10.17 KCAL/MOL
REMARK 923 INTER-LIGAND FREE ENERGY PREDICTED BY IDOCK:   -8.46 KCAL/MOL
REMARK 924 INTRA-LIGAND FREE ENERGY PREDICTED BY IDOCK:   -1.71 KCAL/MOL
REMARK 927      BINDING AFFINITY PREDICTED BY RF-SCORE:    0.00 PKD
ROOT
HETATM    1  C   UNL     1     -11.053  11.879  65.500  1.00  0.00    -0.356 C  
HETATM    2  C   UNL     1     -11.313  13.029  64.521  1.00  0.00    -0.377 C  
HETATM    3  C   UNL     1     -10.897  14.374  65.103  1.00  0.00    -0.397 C  
HETATM    4  C   UNL     1     -11.631  14.652  66.408  1.00  0.00    -0.343 C  
HETATM    5  C   UNL     1     -11.475  13.529  67.432  1.00  0.00    -0.366 C  
HETATM    6  C   UNL     1     -11.707  12.122  66.861  1.00  0.00    -0.374 C  
HETATM    7  C   UNL     1     -11.275  11.002  67.824  1.00  0.00    -0.308 C  
HETATM    8  N   UNL     1      -9.839  10.979  68.120  1.00  0.00    -0.170 NA 
HETATM    9  C   UNL     1      -8.961  11.188  66.954  1.00  0.00    -0.161 C  
HETATM   10  C   UNL     1      -9.559  11.537  65.577  1.00  0.00    -0.252 C  
ENDROOT
BRANCH   8  11
HETATM   11  C   UNL     1      -9.479   9.768  68.901  1.00  0.00    -0.161 C  
BRANCH  11  12
HETATM   12  C   UNL     1      -8.696   8.606  68.205  1.00  0.00    -0.142 C  
HETATM   13  H   UNL     1      -7.124   7.448  68.598  1.00  0.00     0.000 HD 
HETATM   14  O   UNL     1      -7.599   8.153  69.020  1.00  0.00    -0.093 OA 
BRANCH  12  15
HETATM   15  C   UNL     1      -9.587   7.414  67.762  1.00  0.00    -0.140 C  
BRANCH  15  16
HETATM   16  N   UNL     1      -8.943   6.106  67.935  1.00  0.00    -0.114 N  
HETATM   17  C   UNL     1      -9.145   5.045  67.083  1.00  0.00    -0.114 C  
HETATM   18  O   UNL     1      -9.885   5.072  66.106  1.00  0.00    -0.167 OA 
HETATM   19  H   UNL     1      -8.314   5.977  68.728  1.00  0.00     0.000 HD 
BRANCH  17  20
HETATM   20  C   UNL     1      -8.449   3.781  67.423  1.00  0.00    -0.104 A  
HETATM   21  C   UNL     1      -8.873   3.093  68.574  1.00  0.00    -0.166 A  
HETATM   22  H   UNL     1      -5.144   0.877  66.813  1.00  0.00     0.000 HD 
HETATM   23  C   UNL     1      -7.355   3.317  66.659  1.00  0.00    -0.075 A  
HETATM   24  C   UNL     1      -6.698   2.167  67.119  1.00  0.00    -0.039 A  
HETATM   25  C   UNL     1      -8.230   1.929  68.972  1.00  0.00    -0.067 A  
HETATM   26  C   UNL     1      -6.884   3.989  65.394  1.00  0.00    -0.057 C  
HETATM   27  O   UNL     1      -5.590   1.656  66.501  1.00  0.00    -0.016 OA 
HETATM   28  C   UNL     1      -7.137   1.471  68.244  1.00  0.00    -0.039 A  
ENDBRANCH  17  20
ENDBRANCH  15  16
BRANCH  15  29
HETATM   29  C   UNL     1     -11.024   7.461  68.363  1.00  0.00     0.076 C  
BRANCH  29  30
HETATM   30  S   UNL     1     -11.291   6.450  69.866  1.00  0.00    -0.410 SA 
BRANCH  30  31
HETATM   31  C   UNL     1     -12.304   7.474  70.908  1.00  0.00    -0.167 A  
HETATM   32  C   UNL     1     -12.621   9.678  71.884  1.00  0.00    -0.481 A  
HETATM   33  C   UNL     1     -11.835   8.766  71.179  1.00  0.00    -0.345 A  
HETATM   34  C   UNL     1     -14.361   8.019  72.067  1.00  0.00    -0.511 A  
HETATM   35  C   UNL     1     -13.889   9.305  72.322  1.00  0.00    -0.492 A  
HETATM   36  C   UNL     1     -13.571   7.105  71.362  1.00  0.00    -0.368 A  
ENDBRANCH  30  31
ENDBRANCH  29  30
ENDBRANCH  15  29
ENDBRANCH  12  15
ENDBRANCH  11  12
ENDBRANCH   8  11
BRANCH   9  37
HETATM   37  C   UNL     1      -7.886  12.262  67.311  1.00  0.00    -0.171 C  
HETATM   38  C   UNL     1      -7.153  15.320  67.340  1.00  0.00    -0.223 C  
HETATM   39  O   UNL     1      -6.703  12.188  66.987  1.00  0.00    -0.140 OA 
HETATM   40  C   UNL     1      -8.527  15.315  69.417  1.00  0.00    -0.231 C  
HETATM   41  C   UNL     1      -7.605  14.461  68.529  1.00  0.00    -0.125 C  
HETATM   42  N   UNL     1      -8.386  13.300  68.081  1.00  0.00    -0.155 N  
HETATM   43  C   UNL     1      -6.385  14.038  69.359  1.00  0.00    -0.115 C  
HETATM   44  H   UNL     1      -9.367  13.255  68.355  1.00  0.00     0.000 HD 
ENDBRANCH   9  37
TORSDOF 9
ENDMDL
MODEL      156
REMARK 921   NORMALIZED FREE ENERGY PREDICTED BY IDOCK:   -4.80 KCAL/MOL
REMARK 922        TOTAL FREE ENERGY PREDICTED BY IDOCK:  -10.16 KCAL/MOL
REMARK 923 INTER-LIGAND FREE ENERGY PREDICTED BY IDOCK:   -8.26 KCAL/MOL
REMARK 924 INTRA-LIGAND FREE ENERGY PREDICTED BY IDOCK:   -1.90 KCAL/MOL
REMARK 927      BINDING AFFINITY PREDICTED BY RF-SCORE:    0.00 PKD
ROOT
HETATM    1  C   UNL     1      -7.398   7.750  67.736  1.00  0.00    -0.095 C  
HETATM    2  C   UNL     1      -6.847   6.751  66.713  1.00  0.00    -0.061 C  
HETATM    3  C   UNL     1      -7.886   6.387  65.659  1.00  0.00    -0.099 C  
HETATM    4  C   UNL     1      -9.135   5.803  66.305  1.00  0.00    -0.154 C  
HETATM    5  C   UNL     1      -9.729   6.709  67.383  1.00  0.00    -0.155 C  
HETATM    6  C   UNL     1      -8.696   7.259  68.380  1.00  0.00    -0.122 C  
HETATM    7  C   UNL     1      -9.258   8.377  69.275  1.00  0.00    -0.154 C  
HETATM    8  N   UNL     1      -9.658   9.588  68.550  1.00  0.00    -0.141 NA 
HETATM    9  C   UNL     1      -8.717  10.025  67.503  1.00  0.00    -0.125 C  
HETATM   10  C   UNL     1      -7.492   9.162  67.144  1.00  0.00    -0.087 C  
ENDROOT
BRANCH   8  11
HETATM   11  C   UNL     1     -10.013  10.677  69.496  1.00  0.00    -0.106 C  
BRANCH  11  12
HETATM   12  C   UNL     1     -11.316  11.511  69.257  1.00  0.00    -0.288 C  
HETATM   13  H   UNL     1     -13.111  11.711  70.098  1.00  0.00     0.000 HD 
HETATM   14  O   UNL     1     -12.320  11.205  70.243  1.00  0.00    -0.309 OA 
BRANCH  12  15
HETATM   15  C   UNL     1     -11.082  13.043  69.161  1.00  0.00    -0.192 C  
BRANCH  15  16
HETATM   16  N   UNL     1      -9.740  13.402  68.684  1.00  0.00    -0.390 N  
HETATM   17  C   UNL     1      -9.044  14.497  69.140  1.00  0.00     0.029 C  
HETATM   18  O   UNL     1      -9.467  15.290  69.973  1.00  0.00    -0.141 OA 
HETATM   19  H   UNL     1      -9.303  12.808  67.979  1.00  0.00     0.000 HD 
BRANCH  17  20
HETATM   20  C   UNL     1      -7.717  14.739  68.526  1.00  0.00    -0.120 A  
HETATM   21  C   UNL     1      -6.669  13.868  68.876  1.00  0.00    -0.106 A  
HETATM   22  H   UNL     1      -4.934  17.248  66.140  1.00  0.00     0.000 HD 
HETATM   23  C   UNL     1      -7.492  15.842  67.673  1.00  0.00    -0.174 A  
HETATM   24  C   UNL     1      -6.179  16.045  67.224  1.00  0.00    -0.120 A  
HETATM   25  C   UNL     1      -5.391  14.071  68.372  1.00  0.00    -0.103 A  
HETATM   26  C   UNL     1      -8.584  16.783  67.230  1.00  0.00    -0.208 C  
HETATM   27  O   UNL     1      -5.824  17.111  66.444  1.00  0.00    -0.217 OA 
HETATM   28  C   UNL     1      -5.147  15.165  67.549  1.00  0.00     0.128 A  
ENDBRANCH  17  20
ENDBRANCH  15  16
BRANCH  15  29
HETATM   29  C   UNL     1     -12.213  13.793  68.395  1.00  0.00    -0.146 C  
BRANCH  29  30
HETATM   30  S   UNL     1     -12.520  15.519  68.922  1.00  0.00     0.502 SA 
BRANCH  30  31
HETATM   31  C   UNL     1     -12.725  15.409  70.684  1.00  0.00    -0.437 A  
HETATM   32  C   UNL     1     -13.690  14.161  72.534  1.00  0.00    -0.626 A  
HETATM   33  C   UNL     1     -13.568  14.399  71.165  1.00  0.00    -0.338 A  
HETATM   34  C   UNL     1     -12.131  15.948  72.971  1.00  0.00    -0.615 A  
HETATM   35  C   UNL     1     -12.965  14.933  73.438  1.00  0.00    -0.597 A  
HETATM   36  C   UNL     1     -12.011  16.186  71.599  1.00  0.00    -0.528 A  
ENDBRANCH  30  31
ENDBRANCH  29  30
ENDBRANCH  15  29
ENDBRANCH  12  15
ENDBRANCH  11  12
ENDBRANCH   8  11
BRANCH   9  37
HETATM   37  C   UNL     1      -9.513  10.320  66.193  1.00  0.00    -0.181 C  
HETATM   38  C   UNL     1     -11.826  11.978  64.855  1.00  0.00    -0.304 C  
HETATM   39  O   UNL     1      -9.987   9.451  65.464  1.00  0.00    -0.281 OA 
HETATM   40  C   UNL     1     -10.082  13.753  64.760  1.00  0.00    -0.259 C  
HETATM   41  C   UNL     1     -10.316  12.233  64.746  1.00  0.00    -0.291 C  
HETATM   42  N   UNL     1      -9.597  11.671  65.898  1.00  0.00    -0.225 N  
HETATM   43  C   UNL     1      -9.789  11.671  63.418  1.00  0.00    -0.424 C  
HETATM   44  H   UNL     1      -9.125  12.322  66.525  1.00  0.00     0.000 HD 
ENDBRANCH   9  37
TORSDOF 9
ENDMDL
MODEL      157
REMARK 921   NORMALIZED FREE ENERGY PREDICTED BY IDOCK:   -4.78 KCAL/MOL
REMARK 922        TOTAL FREE ENERGY PREDICTED BY IDOCK:  -10.13 KCAL/MOL
REMARK 923 INTER-LIGAND FREE ENERGY PREDICTED BY IDOCK:   -6.38 KCAL/MOL
REMARK 924 INTRA-LIGAND FREE ENERGY PREDICTED BY IDOCK:   -3.75 KCAL/MOL
REMARK 927      BINDING AFFINITY PREDICTED BY RF-SCORE:    0.00 PKD
ROOT
HETATM    1  C   UNL     1     -11.800   6.778  71.036  1.00  0.00    -0.427 C  
HETATM    2  C   UNL     1     -11.716   5.976  72.338  1.00  0.00    -0.322 C  
HETATM    3  C   UNL     1     -10.311   5.441  72.585  1.00  0.00    -0.246 C  
HETATM    4  C   UNL     1      -9.851   4.564  71.427  1.00  0.00    -0.264 C  
HETATM    5  C   UNL     1      -9.951   5.264  70.073  1.00  0.00    -0.315 C  
HETATM    6  C   UNL     1     -11.290   5.981  69.834  1.00  0.00    -0.355 C  
HETATM    7  C   UNL     1     -11.268   6.903  68.602  1.00  0.00    -0.009 C  
HETATM    8  N   UNL     1     -10.332   8.027  68.705  1.00  0.00    -0.207 NA 
HETATM    9  C   UNL     1     -10.325   8.712  70.011  1.00  0.00    -0.207 C  
HETATM   10  C   UNL     1     -11.154   8.161  71.187  1.00  0.00    -0.279 C  
ENDROOT
BRANCH   8  11
HETATM   11  C   UNL     1     -10.505   8.965  67.566  1.00  0.00    -0.269 C  
BRANCH  11  12
HETATM   12  C   UNL     1      -9.593   8.818  66.302  1.00  0.00    -0.259 C  
HETATM   13  H   UNL     1      -9.423   9.659  64.504  1.00  0.00     0.000 HD 
HETATM   14  O   UNL     1      -9.976   9.748  65.271  1.00  0.00    -0.318 OA 
BRANCH  12  15
HETATM   15  C   UNL     1      -8.073   8.915  66.599  1.00  0.00    -0.107 C  
BRANCH  15  16
HETATM   16  N   UNL     1      -7.725  10.003  67.521  1.00  0.00    -0.091 N  
HETATM   17  C   UNL     1      -6.838  11.007  67.206  1.00  0.00    -0.088 C  
HETATM   18  O   UNL     1      -6.241  11.094  66.139  1.00  0.00    -0.133 OA 
HETATM   19  H   UNL     1      -8.162  10.015  68.443  1.00  0.00     0.000 HD 
BRANCH  17  20
HETATM   20  C   UNL     1      -6.568  12.008  68.265  1.00  0.00    -0.055 A  
HETATM   21  C   UNL     1      -5.621  11.673  69.250  1.00  0.00    -0.054 A  
HETATM   22  H   UNL     1      -7.525  15.803  70.365  1.00  0.00     0.000 HD 
HETATM   23  C   UNL     1      -7.281  13.226  68.324  1.00  0.00    -0.108 A  
HETATM   24  C   UNL     1      -7.026  14.061  69.421  1.00  0.00    -0.050 A  
HETATM   25  C   UNL     1      -5.358  12.549  70.296  1.00  0.00    -0.123 A  
HETATM   26  C   UNL     1      -8.275  13.656  67.275  1.00  0.00    -0.164 C  
HETATM   27  O   UNL     1      -7.697  15.237  69.622  1.00  0.00    -0.219 OA 
HETATM   28  C   UNL     1      -6.068  13.742  70.382  1.00  0.00    -0.128 A  
ENDBRANCH  17  20
ENDBRANCH  15  16
BRANCH  15  29
HETATM   29  C   UNL     1      -7.436   7.553  67.008  1.00  0.00    -0.098 C  
BRANCH  29  30
HETATM   30  S   UNL     1      -7.831   6.133  65.923  1.00  0.00    -0.112 SA 
BRANCH  30  31
HETATM   31  C   UNL     1      -7.931   4.748  67.033  1.00  0.00    -0.103 A  
HETATM   32  C   UNL     1      -9.057   2.660  67.566  1.00  0.00    -0.215 A  
HETATM   33  C   UNL     1      -8.976   3.838  66.823  1.00  0.00    -0.150 A  
HETATM   34  C   UNL     1      -7.053   3.283  68.752  1.00  0.00    -0.049 A  
HETATM   35  C   UNL     1      -8.090   2.380  68.528  1.00  0.00    -0.069 A  
HETATM   36  C   UNL     1      -6.973   4.464  68.008  1.00  0.00    -0.056 A  
ENDBRANCH  30  31
ENDBRANCH  29  30
ENDBRANCH  15  29
ENDBRANCH  12  15
ENDBRANCH  11  12
ENDBRANCH   8  11
BRANCH   9  37
HETATM   37  C   UNL     1      -8.848   8.885  70.487  1.00  0.00    -0.192 C  
HETATM   38  C   UNL     1      -6.712   8.198  72.691  1.00  0.00    -0.095 C  
HETATM   39  O   UNL     1      -8.264   9.965  70.543  1.00  0.00    -0.206 OA 
HETATM   40  C   UNL     1      -6.559   6.053  71.437  1.00  0.00    -0.051 C  
HETATM   41  C   UNL     1      -6.857   7.556  71.305  1.00  0.00    -0.050 C  
HETATM   42  N   UNL     1      -8.231   7.684  70.799  1.00  0.00    -0.107 N  
HETATM   43  C   UNL     1      -5.836   8.172  70.337  1.00  0.00    -0.028 C  
HETATM   44  H   UNL     1      -8.769   6.828  70.668  1.00  0.00     0.000 HD 
ENDBRANCH   9  37
TORSDOF 9
ENDMDL
MODEL      158
REMARK 921   NORMALIZED FREE ENERGY PREDICTED BY IDOCK:   -4.74 KCAL/MOL
REMARK 922        TOTAL FREE ENERGY PREDICTED BY IDOCK:  -10.06 KCAL/MOL
REMARK 923 INTER-LIGAND FREE ENERGY PREDICTED BY IDOCK:   -8.13 KCAL/MOL
REMARK 924 INTRA-LIGAND FREE ENERGY PREDICTED BY IDOCK:   -1.93 KCAL/MOL
REMARK 927      BINDING AFFINITY PREDICTED BY RF-SCORE:    0.00 PKD
ROOT
HETATM    1  C   UNL     1     -10.057  14.070  65.740  1.00  0.00    -0.345 C  
HETATM    2  C   UNL     1     -11.074  14.794  64.852  1.00  0.00    -0.416 C  
HETATM    3  C   UNL     1     -12.501  14.339  65.137  1.00  0.00    -0.423 C  
HETATM    4  C   UNL     1     -12.643  12.836  64.938  1.00  0.00    -0.541 C  
HETATM    5  C   UNL     1     -11.628  12.028  65.746  1.00  0.00    -0.353 C  
HETATM    6  C   UNL     1     -10.185  12.549  65.643  1.00  0.00    -0.287 C  
HETATM    7  C   UNL     1      -9.237  11.906  66.669  1.00  0.00    -0.205 C  
HETATM    8  N   UNL     1      -9.570  12.201  68.067  1.00  0.00    -0.198 NA 
HETATM    9  C   UNL     1      -9.939  13.603  68.335  1.00  0.00    -0.235 C  
HETATM   10  C   UNL     1     -10.085  14.608  67.176  1.00  0.00    -0.244 C  
ENDROOT
BRANCH   8  11
HETATM   11  C   UNL     1      -8.509  11.702  68.980  1.00  0.00     0.168 C  
BRANCH  11  12
HETATM   12  C   UNL     1      -7.503  10.617  68.471  1.00  0.00    -0.093 C  
HETATM   13  H   UNL     1      -5.641  10.032  68.873  1.00  0.00     0.000 HD 
HETATM   14  O   UNL     1      -6.252  10.691  69.181  1.00  0.00    -0.041 OA 
BRANCH  12  15
HETATM   15  C   UNL     1      -8.065   9.170  68.487  1.00  0.00    -0.103 C  
BRANCH  15  16
HETATM   16  N   UNL     1      -9.445   9.083  68.981  1.00  0.00    -0.154 N  
HETATM   17  C   UNL     1      -9.770   8.651  70.246  1.00  0.00    -0.174 C  
HETATM   18  O   UNL     1      -8.954   8.284  71.084  1.00  0.00    -0.140 OA 
HETATM   19  H   UNL     1     -10.201   9.357  68.353  1.00  0.00     0.000 HD 
BRANCH  17  20
HETATM   20  C   UNL     1     -11.214   8.586  70.572  1.00  0.00    -0.262 A  
HETATM   21  C   UNL     1     -11.958   9.776  70.472  1.00  0.00    -0.282 A  
HETATM   22  H   UNL     1     -14.744   6.427  72.185  1.00  0.00     0.000 HD 
HETATM   23  C   UNL     1     -11.811   7.392  71.031  1.00  0.00    -0.336 A  
HETATM   24  C   UNL     1     -13.159   7.456  71.410  1.00  0.00    -0.350 A  
HETATM   25  C   UNL     1     -13.305   9.792  70.809  1.00  0.00    -0.135 A  
HETATM   26  C   UNL     1     -11.075   6.078  71.117  1.00  0.00    -0.336 C  
HETATM   27  O   UNL     1     -13.831   6.383  71.928  1.00  0.00     0.014 OA 
HETATM   28  C   UNL     1     -13.902   8.629  71.285  1.00  0.00    -0.217 A  
ENDBRANCH  17  20
ENDBRANCH  15  16
BRANCH  15  29
HETATM   29  C   UNL     1      -7.858   8.413  67.141  1.00  0.00    -0.100 C  
BRANCH  29  30
HETATM   30  S   UNL     1      -6.179   8.517  66.420  1.00  0.00    -0.058 SA 
BRANCH  30  31
HETATM   31  C   UNL     1      -5.896   6.902  65.733  1.00  0.00    -0.035 A  
HETATM   32  C   UNL     1      -6.028   4.500  66.092  1.00  0.00    -0.023 A  
HETATM   33  C   UNL     1      -6.105   5.805  66.580  1.00  0.00    -0.026 A  
HETATM   34  C   UNL     1      -5.522   5.364  63.898  1.00  0.00    -0.013 A  
HETATM   35  C   UNL     1      -5.742   4.281  64.747  1.00  0.00    -0.014 A  
HETATM   36  C   UNL     1      -5.599   6.671  64.389  1.00  0.00    -0.030 A  
ENDBRANCH  30  31
ENDBRANCH  29  30
ENDBRANCH  15  29
ENDBRANCH  12  15
ENDBRANCH  11  12
ENDBRANCH   8  11
BRANCH   9  37
HETATM   37  C   UNL     1     -11.252  13.631  69.180  1.00  0.00    -0.261 C  
HETATM   38  C   UNL     1     -12.573  13.076  71.979  1.00  0.00    -0.020 C  
HETATM   39  O   UNL     1     -12.323  13.157  68.806  1.00  0.00    -0.146 OA 
HETATM   40  C   UNL     1     -11.605  15.302  72.534  1.00  0.00    -0.498 C  
HETATM   41  C   UNL     1     -12.171  14.437  71.395  1.00  0.00    -0.352 C  
HETATM   42  N   UNL     1     -11.109  14.292  70.389  1.00  0.00    -0.473 N  
HETATM   43  C   UNL     1     -13.407  15.140  70.816  1.00  0.00    -0.389 C  
HETATM   44  H   UNL     1     -10.201  14.707  70.597  1.00  0.00     0.000 HD 
ENDBRANCH   9  37
TORSDOF 9
ENDMDL
MODEL      159
REMARK 921   NORMALIZED FREE ENERGY PREDICTED BY IDOCK:   -4.73 KCAL/MOL
REMARK 922        TOTAL FREE ENERGY PREDICTED BY IDOCK:  -10.06 KCAL/MOL
REMARK 923 INTER-LIGAND FREE ENERGY PREDICTED BY IDOCK:   -8.43 KCAL/MOL
REMARK 924 INTRA-LIGAND FREE ENERGY PREDICTED BY IDOCK:   -1.63 KCAL/MOL
REMARK 927      BINDING AFFINITY PREDICTED BY RF-SCORE:    0.00 PKD
ROOT
HETATM    1  C   UNL     1     -10.049   7.766  73.034  1.00  0.00    -0.382 C  
HETATM    2  C   UNL     1      -9.700   7.145  74.390  1.00  0.00    -0.099 C  
HETATM    3  C   UNL     1      -9.577   5.629  74.305  1.00  0.00    -0.162 C  
HETATM    4  C   UNL     1     -10.867   5.007  73.786  1.00  0.00    -0.366 C  
HETATM    5  C   UNL     1     -11.326   5.604  72.456  1.00  0.00    -0.349 C  
HETATM    6  C   UNL     1     -11.302   7.141  72.417  1.00  0.00    -0.312 C  
HETATM    7  C   UNL     1     -11.494   7.711  71.001  1.00  0.00    -0.276 C  
HETATM    8  N   UNL     1     -10.424   7.364  70.060  1.00  0.00    -0.220 NA 
HETATM    9  C   UNL     1      -9.058   7.466  70.606  1.00  0.00    -0.156 C  
HETATM   10  C   UNL     1      -8.834   7.782  72.097  1.00  0.00    -0.176 C  
ENDROOT
BRANCH   8  11
HETATM   11  C   UNL     1     -10.588   8.098  68.779  1.00  0.00    -0.121 C  
BRANCH  11  12
HETATM   12  C   UNL     1     -10.721   9.658  68.797  1.00  0.00    -0.206 C  
HETATM   13  H   UNL     1     -10.142  11.172  69.955  1.00  0.00     0.000 HD 
HETATM   14  O   UNL     1     -10.062  10.225  69.945  1.00  0.00    -0.237 OA 
BRANCH  12  15
HETATM   15  C   UNL     1     -10.252  10.351  67.489  1.00  0.00    -0.210 C  
BRANCH  15  16
HETATM   16  N   UNL     1     -10.218  11.816  67.583  1.00  0.00    -0.197 N  
HETATM   17  C   UNL     1     -11.266  12.622  67.201  1.00  0.00    -0.300 C  
HETATM   18  O   UNL     1     -12.322  12.212  66.735  1.00  0.00    -0.429 OA 
HETATM   19  H   UNL     1      -9.375  12.258  67.950  1.00  0.00     0.000 HD 
BRANCH  17  20
HETATM   20  C   UNL     1     -11.054  14.084  67.324  1.00  0.00    -0.314 A  
HETATM   21  C   UNL     1     -11.274  14.669  68.584  1.00  0.00    -0.293 A  
HETATM   22  H   UNL     1     -10.315  18.073  65.515  1.00  0.00     0.000 HD 
HETATM   23  C   UNL     1     -10.710  14.873  66.205  1.00  0.00    -0.317 A  
HETATM   24  C   UNL     1     -10.632  16.259  66.401  1.00  0.00    -0.253 A  
HETATM   25  C   UNL     1     -11.139  16.041  68.753  1.00  0.00    -0.338 A  
HETATM   26  C   UNL     1     -10.421  14.297  64.841  1.00  0.00    -0.454 C  
HETATM   27  O   UNL     1     -10.368  17.133  65.382  1.00  0.00    -0.619 OA 
HETATM   28  C   UNL     1     -10.823  16.836  67.656  1.00  0.00    -0.252 A  
ENDBRANCH  17  20
ENDBRANCH  15  16
BRANCH  15  29
HETATM   29  C   UNL     1      -8.933   9.755  66.913  1.00  0.00    -0.138 C  
BRANCH  29  30
HETATM   30  S   UNL     1      -7.791  10.956  66.135  1.00  0.00    -0.111 SA 
BRANCH  30  31
HETATM   31  C   UNL     1      -7.041  11.800  67.508  1.00  0.00    -0.113 A  
HETATM   32  C   UNL     1      -6.659  13.937  68.603  1.00  0.00    -0.095 A  
HETATM   33  C   UNL     1      -7.110  13.200  67.508  1.00  0.00    -0.156 A  
HETATM   34  C   UNL     1      -6.052  11.887  69.718  1.00  0.00    -0.141 A  
HETATM   35  C   UNL     1      -6.135  13.279  69.712  1.00  0.00    -0.128 A  
HETATM   36  C   UNL     1      -6.503  11.149  68.619  1.00  0.00    -0.049 A  
ENDBRANCH  30  31
ENDBRANCH  29  30
ENDBRANCH  15  29
ENDBRANCH  12  15
ENDBRANCH  11  12
ENDBRANCH   8  11
BRANCH   9  37
HETATM   37  C   UNL     1      -8.270   6.164  70.254  1.00  0.00    -0.124 C  
HETATM   38  C   UNL     1      -5.599   4.544  70.617  1.00  0.00    -0.012 C  
HETATM   39  O   UNL     1      -8.150   5.718  69.115  1.00  0.00    -0.099 OA 
HETATM   40  C   UNL     1      -6.648   3.894  72.779  1.00  0.00    -0.039 C  
HETATM   41  C   UNL     1      -6.939   4.299  71.324  1.00  0.00    -0.036 C  
HETATM   42  N   UNL     1      -7.752   5.523  71.367  1.00  0.00    -0.106 N  
HETATM   43  C   UNL     1      -7.686   3.146  70.637  1.00  0.00    -0.043 C  
HETATM   44  H   UNL     1      -7.947   5.929  72.281  1.00  0.00     0.000 HD 
ENDBRANCH   9  37
TORSDOF 9
ENDMDL
MODEL      160
REMARK 921   NORMALIZED FREE ENERGY PREDICTED BY IDOCK:   -4.73 KCAL/MOL
REMARK 922        TOTAL FREE ENERGY PREDICTED BY IDOCK:  -10.05 KCAL/MOL
REMARK 923 INTER-LIGAND FREE ENERGY PREDICTED BY IDOCK:   -6.45 KCAL/MOL
REMARK 924 INTRA-LIGAND FREE ENERGY PREDICTED BY IDOCK:   -3.60 KCAL/MOL
REMARK 927      BINDING AFFINITY PREDICTED BY RF-SCORE:    0.00 PKD
ROOT
HETATM    1  C   UNL     1     -10.997   5.535  72.137  1.00  0.00    -0.291 C  
HETATM    2  C   UNL     1     -10.807   5.754  73.642  1.00  0.00    -0.228 C  
HETATM    3  C   UNL     1      -9.832   6.889  73.931  1.00  0.00    -0.340 C  
HETATM    4  C   UNL     1      -8.478   6.619  73.290  1.00  0.00    -0.128 C  
HETATM    5  C   UNL     1      -8.572   6.334  71.791  1.00  0.00    -0.133 C  
HETATM    6  C   UNL     1      -9.667   5.323  71.413  1.00  0.00    -0.219 C  
HETATM    7  C   UNL     1      -9.932   5.262  69.898  1.00  0.00    -0.239 C  
HETATM    8  N   UNL     1     -10.454   6.507  69.325  1.00  0.00    -0.201 NA 
HETATM    9  C   UNL     1     -11.498   7.171  70.127  1.00  0.00    -0.205 C  
HETATM   10  C   UNL     1     -11.876   6.630  71.519  1.00  0.00    -0.387 C  
ENDROOT
BRANCH   8  11
HETATM   11  C   UNL     1     -10.855   6.309  67.909  1.00  0.00    -0.333 C  
BRANCH  11  12
HETATM   12  C   UNL     1     -10.168   5.186  67.062  1.00  0.00    -0.223 C  
HETATM   13  H   UNL     1     -10.610   4.056  65.482  1.00  0.00     0.000 HD 
HETATM   14  O   UNL     1     -11.026   4.737  65.996  1.00  0.00    -0.213 OA 
BRANCH  12  15
HETATM   15  C   UNL     1      -8.763   5.564  66.522  1.00  0.00    -0.119 C  
BRANCH  15  16
HETATM   16  N   UNL     1      -8.193   6.758  67.159  1.00  0.00    -0.119 N  
HETATM   17  C   UNL     1      -7.104   7.434  66.659  1.00  0.00    -0.075 C  
HETATM   18  O   UNL     1      -6.492   7.111  65.648  1.00  0.00    -0.045 OA 
HETATM   19  H   UNL     1      -8.626   7.103  68.016  1.00  0.00     0.000 HD 
BRANCH  17  20
HETATM   20  C   UNL     1      -6.630   8.598  67.445  1.00  0.00    -0.058 A  
HETATM   21  C   UNL     1      -6.093   8.347  68.720  1.00  0.00    -0.044 A  
HETATM   22  H   UNL     1      -6.275  12.980  68.075  1.00  0.00     0.000 HD 
HETATM   23  C   UNL     1      -6.773   9.918  66.962  1.00  0.00    -0.075 A  
HETATM   24  C   UNL     1      -6.388  10.957  67.822  1.00  0.00    -0.062 A  
HETATM   25  C   UNL     1      -5.676   9.399  69.525  1.00  0.00    -0.034 A  
HETATM   26  C   UNL     1      -7.302  10.245  65.588  1.00  0.00    -0.149 C  
HETATM   27  O   UNL     1      -6.535  12.276  67.493  1.00  0.00    -0.105 OA 
HETATM   28  C   UNL     1      -5.830  10.706  69.074  1.00  0.00    -0.040 A  
ENDBRANCH  17  20
ENDBRANCH  15  16
BRANCH  15  29
HETATM   29  C   UNL     1      -7.769   4.365  66.494  1.00  0.00    -0.094 C  
BRANCH  29  30
HETATM   30  S   UNL     1      -8.183   2.964  67.598  1.00  0.00    -0.082 SA 
BRANCH  30  31
HETATM   31  C   UNL     1      -7.201   3.247  69.052  1.00  0.00    -0.049 A  
HETATM   32  C   UNL     1      -5.631   4.725  70.176  1.00  0.00    -0.015 A  
HETATM   33  C   UNL     1      -6.345   4.356  69.035  1.00  0.00    -0.032 A  
HETATM   34  C   UNL     1      -6.609   2.874  71.372  1.00  0.00    -0.023 A  
HETATM   35  C   UNL     1      -5.769   3.986  71.348  1.00  0.00    -0.012 A  
HETATM   36  C   UNL     1      -7.323   2.505  70.228  1.00  0.00    -0.036 A  
ENDBRANCH  30  31
ENDBRANCH  29  30
ENDBRANCH  15  29
ENDBRANCH  12  15
ENDBRANCH  11  12
ENDBRANCH   8  11
BRANCH   9  37
HETATM   37  C   UNL     1     -11.148   8.686  70.264  1.00  0.00    -0.217 C  
HETATM   38  C   UNL     1      -9.554  11.121  69.073  1.00  0.00    -0.099 C  
HETATM   39  O   UNL     1     -10.780   9.216  71.311  1.00  0.00    -0.275 OA 
HETATM   40  C   UNL     1     -11.485  11.221  67.504  1.00  0.00    -0.324 C  
HETATM   41  C   UNL     1     -11.055  10.832  68.928  1.00  0.00    -0.253 C  
HETATM   42  N   UNL     1     -11.339   9.399  69.092  1.00  0.00    -0.439 N  
HETATM   43  C   UNL     1     -11.848  11.685  69.928  1.00  0.00    -0.434 C  
HETATM   44  H   UNL     1     -11.702   8.893  68.285  1.00  0.00     0.000 HD 
ENDBRANCH   9  37
TORSDOF 9
ENDMDL
MODEL      161
REMARK 921   NORMALIZED FREE ENERGY PREDICTED BY IDOCK:   -4.71 KCAL/MOL
REMARK 922        TOTAL FREE ENERGY PREDICTED BY IDOCK:  -10.03 KCAL/MOL
REMARK 923 INTER-LIGAND FREE ENERGY PREDICTED BY IDOCK:   -9.39 KCAL/MOL
REMARK 924 INTRA-LIGAND FREE ENERGY PREDICTED BY IDOCK:   -0.64 KCAL/MOL
REMARK 927      BINDING AFFINITY PREDICTED BY RF-SCORE:    0.00 PKD
ROOT
HETATM    1  C   UNL     1     -10.089   8.424  68.514  1.00  0.00    -0.218 C  
HETATM    2  C   UNL     1      -9.273   7.229  69.020  1.00  0.00    -0.139 C  
HETATM    3  C   UNL     1      -7.923   7.127  68.320  1.00  0.00    -0.123 C  
HETATM    4  C   UNL     1      -8.099   7.010  66.812  1.00  0.00    -0.109 C  
HETATM    5  C   UNL     1      -8.949   8.134  66.221  1.00  0.00    -0.215 C  
HETATM    6  C   UNL     1     -10.250   8.409  66.993  1.00  0.00    -0.377 C  
HETATM    7  C   UNL     1     -10.946   9.711  66.556  1.00  0.00     0.307 C  
HETATM    8  N   UNL     1     -10.171  10.928  66.819  1.00  0.00    -0.223 NA 
HETATM    9  C   UNL     1      -9.510  10.971  68.137  1.00  0.00    -0.172 C  
HETATM   10  C   UNL     1      -9.548   9.747  69.071  1.00  0.00    -0.177 C  
ENDROOT
BRANCH   8  11
HETATM   11  C   UNL     1     -10.982  12.141  66.542  1.00  0.00    -0.284 C  
BRANCH  11  12
HETATM   12  C   UNL     1     -10.269  13.455  66.079  1.00  0.00    -0.300 C  
HETATM   13  H   UNL     1     -10.130  14.547  64.418  1.00  0.00     0.000 HD 
HETATM   14  O   UNL     1     -10.562  13.749  64.700  1.00  0.00    -0.406 OA 
BRANCH  12  15
HETATM   15  C   UNL     1     -10.554  14.686  66.981  1.00  0.00    -0.280 C  
BRANCH  15  16
HETATM   16  N   UNL     1     -11.501  14.408  68.069  1.00  0.00    -0.294 N  
HETATM   17  C   UNL     1     -11.153  14.436  69.399  1.00  0.00    -0.261 C  
HETATM   18  O   UNL     1     -10.026  14.682  69.816  1.00  0.00     0.033 OA 
HETATM   19  H   UNL     1     -12.465  14.182  67.825  1.00  0.00     0.000 HD 
BRANCH  17  20
HETATM   20  C   UNL     1     -12.219  14.094  70.369  1.00  0.00    -0.427 A  
HETATM   21  C   UNL     1     -12.995  15.149  70.884  1.00  0.00    -0.488 A  
HETATM   22  H   UNL     1     -14.264  11.190  73.037  1.00  0.00     0.000 HD 
HETATM   23  C   UNL     1     -12.409  12.767  70.814  1.00  0.00    -0.375 A  
HETATM   24  C   UNL     1     -13.376  12.559  71.808  1.00  0.00    -0.286 A  
HETATM   25  C   UNL     1     -13.978  14.899  71.832  1.00  0.00    -0.585 A  
HETATM   26  C   UNL     1     -11.638  11.592  70.267  1.00  0.00    -0.305 C  
HETATM   27  O   UNL     1     -13.609  11.331  72.363  1.00  0.00    -0.145 OA 
HETATM   28  C   UNL     1     -14.162  13.601  72.298  1.00  0.00    -0.521 A  
ENDBRANCH  17  20
ENDBRANCH  15  16
BRANCH  15  29
HETATM   29  C   UNL     1      -9.261  15.400  67.477  1.00  0.00    -0.199 C  
BRANCH  29  30
HETATM   30  S   UNL     1      -8.286  16.263  66.190  1.00  0.00    -0.072 SA 
BRANCH  30  31
HETATM   31  C   UNL     1      -8.862  17.944  66.259  1.00  0.00    -0.163 A  
HETATM   32  C   UNL     1     -10.767  19.439  66.045  1.00  0.00    -0.512 A  
HETATM   33  C   UNL     1     -10.197  18.174  65.902  1.00  0.00    -0.239 A  
HETATM   34  C   UNL     1      -8.671  20.273  66.897  1.00  0.00    -0.385 A  
HETATM   35  C   UNL     1     -10.004  20.489  66.550  1.00  0.00    -0.329 A  
HETATM   36  C   UNL     1      -8.101  19.005  66.752  1.00  0.00    -0.279 A  
ENDBRANCH  30  31
ENDBRANCH  29  30
ENDBRANCH  15  29
ENDBRANCH  12  15
ENDBRANCH  11  12
ENDBRANCH   8  11
BRANCH   9  37
HETATM   37  C   UNL     1      -8.021  11.400  67.945  1.00  0.00    -0.120 C  
HETATM   38  C   UNL     1      -6.003  13.796  67.668  1.00  0.00    -0.072 C  
HETATM   39  O   UNL     1      -7.275  10.936  67.086  1.00  0.00    -0.093 OA 
HETATM   40  C   UNL     1      -6.195  13.843  70.150  1.00  0.00    -0.123 C  
HETATM   41  C   UNL     1      -6.256  12.933  68.912  1.00  0.00    -0.085 C  
HETATM   42  N   UNL     1      -7.596  12.331  68.879  1.00  0.00    -0.298 N  
HETATM   43  C   UNL     1      -5.158  11.866  69.036  1.00  0.00    -0.051 C  
HETATM   44  H   UNL     1      -8.262  12.620  69.595  1.00  0.00     0.000 HD 
ENDBRANCH   9  37
TORSDOF 9
ENDMDL
MODEL      162
REMARK 921   NORMALIZED FREE ENERGY PREDICTED BY IDOCK:   -4.70 KCAL/MOL
REMARK 922        TOTAL FREE ENERGY PREDICTED BY IDOCK:  -10.01 KCAL/MOL
REMARK 923 INTER-LIGAND FREE ENERGY PREDICTED BY IDOCK:   -8.25 KCAL/MOL
REMARK 924 INTRA-LIGAND FREE ENERGY PREDICTED BY IDOCK:   -1.76 KCAL/MOL
REMARK 927      BINDING AFFINITY PREDICTED BY RF-SCORE:    0.00 PKD
ROOT
HETATM    1  C   UNL     1     -10.998  12.260  65.087  1.00  0.00    -0.344 C  
HETATM    2  C   UNL     1     -11.680  12.887  63.866  1.00  0.00    -0.526 C  
HETATM    3  C   UNL     1     -12.124  14.319  64.138  1.00  0.00    -0.423 C  
HETATM    4  C   UNL     1     -13.074  14.377  65.327  1.00  0.00     0.052 C  
HETATM    5  C   UNL     1     -12.500  13.723  66.583  1.00  0.00    -0.307 C  
HETATM    6  C   UNL     1     -11.870  12.342  66.341  1.00  0.00    -0.421 C  
HETATM    7  C   UNL     1     -11.058  11.831  67.543  1.00  0.00    -0.272 C  
HETATM    8  N   UNL     1      -9.885  12.648  67.872  1.00  0.00    -0.212 NA 
HETATM    9  C   UNL     1      -9.091  13.091  66.712  1.00  0.00    -0.210 C  
HETATM   10  C   UNL     1      -9.578  12.808  65.278  1.00  0.00     0.088 C  
ENDROOT
BRANCH   8  11
HETATM   11  C   UNL     1      -9.059  11.990  68.917  1.00  0.00     0.207 C  
BRANCH  11  12
HETATM   12  C   UNL     1      -7.916  11.009  68.491  1.00  0.00    -0.137 C  
HETATM   13  H   UNL     1      -5.925  10.960  68.540  1.00  0.00     0.000 HD 
HETATM   14  O   UNL     1      -6.619  11.555  68.799  1.00  0.00    -0.059 OA 
BRANCH  12  15
HETATM   15  C   UNL     1      -8.064   9.574  69.063  1.00  0.00    -0.101 C  
BRANCH  15  16
HETATM   16  N   UNL     1      -9.256   9.397  69.901  1.00  0.00    -0.191 N  
HETATM   17  C   UNL     1     -10.493   9.067  69.397  1.00  0.00    -0.222 C  
HETATM   18  O   UNL     1     -10.734   8.899  68.207  1.00  0.00    -0.180 OA 
HETATM   19  H   UNL     1      -9.162   9.525  70.909  1.00  0.00     0.000 HD 
BRANCH  17  20
HETATM   20  C   UNL     1     -11.600   8.965  70.376  1.00  0.00    -0.123 A  
HETATM   21  C   UNL     1     -12.097  10.161  70.925  1.00  0.00    -0.453 A  
HETATM   22  H   UNL     1     -14.249   6.567  73.015  1.00  0.00     0.000 HD 
HETATM   23  C   UNL     1     -12.096   7.711  70.796  1.00  0.00    -0.149 A  
HETATM   24  C   UNL     1     -13.074   7.715  71.801  1.00  0.00    -0.323 A  
HETATM   25  C   UNL     1     -13.101  10.129  71.883  1.00  0.00    -0.571 A  
HETATM   26  C   UNL     1     -11.633   6.399  70.213  1.00  0.00    -0.451 C  
HETATM   27  O   UNL     1     -13.587   6.564  72.334  1.00  0.00     0.130 OA 
HETATM   28  C   UNL     1     -13.585   8.902  72.324  1.00  0.00    -0.513 A  
ENDBRANCH  17  20
ENDBRANCH  15  16
BRANCH  15  29
HETATM   29  C   UNL     1      -7.919   8.461  67.981  1.00  0.00    -0.119 C  
BRANCH  29  30
HETATM   30  S   UNL     1      -6.342   8.457  67.051  1.00  0.00    -0.057 SA 
BRANCH  30  31
HETATM   31  C   UNL     1      -6.780   9.072  65.442  1.00  0.00    -0.072 A  
HETATM   32  C   UNL     1      -8.581   9.529  63.874  1.00  0.00    -0.226 A  
HETATM   33  C   UNL     1      -8.125   8.963  65.065  1.00  0.00    -0.137 A  
HETATM   34  C   UNL     1      -6.351  10.319  63.409  1.00  0.00    -0.122 A  
HETATM   35  C   UNL     1      -7.693  10.214  63.049  1.00  0.00    -0.149 A  
HETATM   36  C   UNL     1      -5.895   9.750  64.603  1.00  0.00    -0.089 A  
ENDBRANCH  30  31
ENDBRANCH  29  30
ENDBRANCH  15  29
ENDBRANCH  12  15
ENDBRANCH  11  12
ENDBRANCH   8  11
BRANCH   9  37
HETATM   37  C   UNL     1      -8.808  14.621  66.844  1.00  0.00    -0.242 C  
HETATM   38  C   UNL     1      -7.565  16.909  68.607  1.00  0.00    -0.232 C  
HETATM   39  O   UNL     1      -9.652  15.496  66.660  1.00  0.00    -0.229 OA 
HETATM   40  C   UNL     1      -5.437  16.119  67.585  1.00  0.00    -0.163 C  
HETATM   41  C   UNL     1      -6.951  16.260  67.359  1.00  0.00    -0.174 C  
HETATM   42  N   UNL     1      -7.487  14.908  67.144  1.00  0.00    -0.270 N  
HETATM   43  C   UNL     1      -7.181  17.161  66.138  1.00  0.00    -0.253 C  
HETATM   44  H   UNL     1      -6.839  14.124  67.222  1.00  0.00     0.000 HD 
ENDBRANCH   9  37
TORSDOF 9
ENDMDL
MODEL      163
REMARK 921   NORMALIZED FREE ENERGY PREDICTED BY IDOCK:   -4.68 KCAL/MOL
REMARK 922        TOTAL FREE ENERGY PREDICTED BY IDOCK:   -9.97 KCAL/MOL
REMARK 923 INTER-LIGAND FREE ENERGY PREDICTED BY IDOCK:   -6.42 KCAL/MOL
REMARK 924 INTRA-LIGAND FREE ENERGY PREDICTED BY IDOCK:   -3.55 KCAL/MOL
REMARK 927      BINDING AFFINITY PREDICTED BY RF-SCORE:    0.00 PKD
ROOT
HETATM    1  C   UNL     1     -12.038   6.592  71.033  1.00  0.00    -0.384 C  
HETATM    2  C   UNL     1     -12.606   7.845  71.707  1.00  0.00    -0.353 C  
HETATM    3  C   UNL     1     -11.596   8.986  71.728  1.00  0.00    -0.444 C  
HETATM    4  C   UNL     1     -10.318   8.569  72.443  1.00  0.00    -0.372 C  
HETATM    5  C   UNL     1      -9.704   7.291  71.872  1.00  0.00    -0.171 C  
HETATM    6  C   UNL     1     -10.713   6.151  71.658  1.00  0.00    -0.294 C  
HETATM    7  C   UNL     1     -10.140   4.986  70.833  1.00  0.00    -0.232 C  
HETATM    8  N   UNL     1      -9.781   5.341  69.455  1.00  0.00    -0.161 NA 
HETATM    9  C   UNL     1     -10.762   6.192  68.757  1.00  0.00    -0.308 C  
HETATM   10  C   UNL     1     -11.984   6.753  69.508  1.00  0.00     0.226 C  
ENDROOT
BRANCH   8  11
HETATM   11  C   UNL     1      -9.413   4.130  68.677  1.00  0.00    -0.156 C  
BRANCH  11  12
HETATM   12  C   UNL     1      -8.850   2.875  69.423  1.00  0.00    -0.094 C  
HETATM   13  H   UNL     1      -8.561   0.942  69.040  1.00  0.00     0.000 HD 
HETATM   14  O   UNL     1      -8.902   1.703  68.587  1.00  0.00    -0.067 OA 
BRANCH  12  15
HETATM   15  C   UNL     1      -7.429   3.071  70.015  1.00  0.00    -0.044 C  
BRANCH  15  16
HETATM   16  N   UNL     1      -7.270   4.331  70.753  1.00  0.00    -0.040 N  
HETATM   17  C   UNL     1      -6.164   5.140  70.637  1.00  0.00    -0.023 C  
HETATM   18  O   UNL     1      -5.197   4.896  69.924  1.00  0.00     0.000 OA 
HETATM   19  H   UNL     1      -8.018   4.620  71.383  1.00  0.00     0.000 HD 
BRANCH  17  20
HETATM   20  C   UNL     1      -6.144   6.358  71.481  1.00  0.00    -0.040 A  
HETATM   21  C   UNL     1      -6.127   6.183  72.877  1.00  0.00    -0.049 A  
HETATM   22  H   UNL     1      -6.470  10.762  71.963  1.00  0.00     0.000 HD 
HETATM   23  C   UNL     1      -6.208   7.649  70.911  1.00  0.00    -0.035 A  
HETATM   24  C   UNL     1      -6.288   8.734  71.795  1.00  0.00    -0.074 A  
HETATM   25  C   UNL     1      -6.156   7.284  73.722  1.00  0.00    -0.064 A  
HETATM   26  C   UNL     1      -6.187   7.899  69.424  1.00  0.00    -0.034 C  
HETATM   27  O   UNL     1      -6.416  10.026  71.365  1.00  0.00    -0.323 OA 
HETATM   28  C   UNL     1      -6.242   8.561  73.177  1.00  0.00    -0.107 A  
ENDBRANCH  17  20
ENDBRANCH  15  16
BRANCH  15  29
HETATM   29  C   UNL     1      -6.919   1.836  70.817  1.00  0.00    -0.032 C  
BRANCH  29  30
HETATM   30  S   UNL     1      -6.808   2.057  72.631  1.00  0.00    -0.023 SA 
BRANCH  30  31
HETATM   31  C   UNL     1      -8.488   2.328  73.144  1.00  0.00    -0.066 A  
HETATM   32  C   UNL     1     -10.045   3.823  74.264  1.00  0.00    -0.205 A  
HETATM   33  C   UNL     1      -8.741   3.466  73.922  1.00  0.00    -0.088 A  
HETATM   34  C   UNL     1     -10.873   1.904  73.060  1.00  0.00    -0.247 A  
HETATM   35  C   UNL     1     -11.113   3.044  73.826  1.00  0.00    -0.295 A  
HETATM   36  C   UNL     1      -9.564   1.546  72.720  1.00  0.00    -0.120 A  
ENDBRANCH  30  31
ENDBRANCH  29  30
ENDBRANCH  15  29
ENDBRANCH  12  15
ENDBRANCH  11  12
ENDBRANCH   8  11
BRANCH   9  37
HETATM   37  C   UNL     1     -10.012   7.381  68.078  1.00  0.00    -0.164 C  
HETATM   38  C   UNL     1     -10.211   9.798  66.075  1.00  0.00    -0.263 C  
HETATM   39  O   UNL     1      -8.913   7.284  67.537  1.00  0.00    -0.122 OA 
HETATM   40  C   UNL     1     -11.234  10.940  68.036  1.00  0.00    -0.378 C  
HETATM   41  C   UNL     1     -10.229   9.857  67.609  1.00  0.00    -0.208 C  
HETATM   42  N   UNL     1     -10.688   8.586  68.186  1.00  0.00    -0.439 N  
HETATM   43  C   UNL     1      -8.839  10.249  68.131  1.00  0.00    -0.123 C  
HETATM   44  H   UNL     1     -11.567   8.590  68.702  1.00  0.00     0.000 HD 
ENDBRANCH   9  37
TORSDOF 9
ENDMDL
MODEL      164
REMARK 921   NORMALIZED FREE ENERGY PREDICTED BY IDOCK:   -4.68 KCAL/MOL
REMARK 922        TOTAL FREE ENERGY PREDICTED BY IDOCK:   -9.97 KCAL/MOL
REMARK 923 INTER-LIGAND FREE ENERGY PREDICTED BY IDOCK:   -8.81 KCAL/MOL
REMARK 924 INTRA-LIGAND FREE ENERGY PREDICTED BY IDOCK:   -1.16 KCAL/MOL
REMARK 927      BINDING AFFINITY PREDICTED BY RF-SCORE:    0.00 PKD
ROOT
HETATM    1  C   UNL     1      -9.595   4.278  64.619  1.00  0.00    -0.160 C  
HETATM    2  C   UNL     1      -9.786   2.857  64.079  1.00  0.00    -0.154 C  
HETATM    3  C   UNL     1      -8.747   1.893  64.639  1.00  0.00    -0.103 C  
HETATM    4  C   UNL     1      -7.336   2.366  64.315  1.00  0.00    -0.058 C  
HETATM    5  C   UNL     1      -7.068   3.800  64.769  1.00  0.00    -0.065 C  
HETATM    6  C   UNL     1      -8.174   4.797  64.388  1.00  0.00    -0.116 C  
HETATM    7  C   UNL     1      -8.025   6.159  65.087  1.00  0.00    -0.117 C  
HETATM    8  N   UNL     1      -8.150   6.106  66.547  1.00  0.00    -0.108 NA 
HETATM    9  C   UNL     1      -9.244   5.252  67.047  1.00  0.00    -0.116 C  
HETATM   10  C   UNL     1     -10.072   4.394  66.072  1.00  0.00    -0.260 C  
ENDROOT
BRANCH   8  11
HETATM   11  C   UNL     1      -8.179   7.474  67.125  1.00  0.00    -0.114 C  
BRANCH  11  12
HETATM   12  C   UNL     1      -9.137   8.550  66.514  1.00  0.00    -0.176 C  
HETATM   13  H   UNL     1     -11.081   8.735  66.117  1.00  0.00     0.000 HD 
HETATM   14  O   UNL     1     -10.499   8.082  66.488  1.00  0.00    -0.240 OA 
BRANCH  12  15
HETATM   15  C   UNL     1      -9.042   9.944  67.188  1.00  0.00    -0.138 C  
BRANCH  15  16
HETATM   16  N   UNL     1      -9.886  10.963  66.550  1.00  0.00    -0.198 N  
HETATM   17  C   UNL     1      -9.551  12.296  66.494  1.00  0.00    -0.238 C  
HETATM   18  O   UNL     1      -8.530  12.774  66.975  1.00  0.00    -0.193 OA 
HETATM   19  H   UNL     1     -10.766  10.666  66.127  1.00  0.00     0.000 HD 
BRANCH  17  20
HETATM   20  C   UNL     1     -10.532  13.198  65.847  1.00  0.00    -0.288 A  
HETATM   21  C   UNL     1     -11.745  12.634  65.410  1.00  0.00    -0.428 A  
HETATM   22  H   UNL     1     -11.636  17.124  64.088  1.00  0.00     0.000 HD 
HETATM   23  C   UNL     1     -10.238  14.560  65.616  1.00  0.00    -0.379 A  
HETATM   24  C   UNL     1     -11.189  15.307  64.907  1.00  0.00    -0.415 A  
HETATM   25  C   UNL     1     -12.686  13.417  64.754  1.00  0.00    -0.310 A  
HETATM   26  C   UNL     1      -8.975  15.228  66.099  1.00  0.00    -0.251 C  
HETATM   27  O   UNL     1     -10.992  16.618  64.568  1.00  0.00    -0.885 OA 
HETATM   28  C   UNL     1     -12.402  14.754  64.498  1.00  0.00    -0.384 A  
ENDBRANCH  17  20
ENDBRANCH  15  16
BRANCH  15  29
HETATM   29  C   UNL     1      -9.224   9.896  68.735  1.00  0.00    -0.147 C  
BRANCH  29  30
HETATM   30  S   UNL     1     -10.944  10.072  69.338  1.00  0.00    -0.236 SA 
BRANCH  30  31
HETATM   31  C   UNL     1     -11.160   8.702  70.450  1.00  0.00    -0.230 A  
HETATM   32  C   UNL     1     -11.309   6.286  70.678  1.00  0.00    -0.409 A  
HETATM   33  C   UNL     1     -11.262   7.427  69.877  1.00  0.00    -0.155 A  
HETATM   34  C   UNL     1     -11.161   7.673  72.644  1.00  0.00    -0.419 A  
HETATM   35  C   UNL     1     -11.252   6.409  72.064  1.00  0.00    -0.324 A  
HETATM   36  C   UNL     1     -11.116   8.817  71.841  1.00  0.00    -0.434 A  
ENDBRANCH  30  31
ENDBRANCH  29  30
ENDBRANCH  15  29
ENDBRANCH  12  15
ENDBRANCH  11  12
ENDBRANCH   8  11
BRANCH   9  37
HETATM   37  C   UNL     1      -8.690   4.324  68.174  1.00  0.00    -0.102 C  
HETATM   38  C   UNL     1      -6.324   3.750  70.164  1.00  0.00    -0.028 C  
HETATM   39  O   UNL     1      -8.663   3.097  68.104  1.00  0.00    -0.090 OA 
HETATM   40  C   UNL     1      -7.437   5.523  71.513  1.00  0.00    -0.095 C  
HETATM   41  C   UNL     1      -7.676   4.400  70.489  1.00  0.00    -0.053 C  
HETATM   42  N   UNL     1      -8.271   5.019  69.296  1.00  0.00    -0.082 N  
HETATM   43  C   UNL     1      -8.615   3.360  71.117  1.00  0.00    -0.110 C  
HETATM   44  H   UNL     1      -8.383   6.032  69.295  1.00  0.00     0.000 HD 
ENDBRANCH   9  37
TORSDOF 9
ENDMDL
MODEL      165
REMARK 921   NORMALIZED FREE ENERGY PREDICTED BY IDOCK:   -4.67 KCAL/MOL
REMARK 922        TOTAL FREE ENERGY PREDICTED BY IDOCK:   -9.97 KCAL/MOL
REMARK 923 INTER-LIGAND FREE ENERGY PREDICTED BY IDOCK:   -8.04 KCAL/MOL
REMARK 924 INTRA-LIGAND FREE ENERGY PREDICTED BY IDOCK:   -1.93 KCAL/MOL
REMARK 927      BINDING AFFINITY PREDICTED BY RF-SCORE:    0.00 PKD
ROOT
HETATM    1  C   UNL     1     -10.784   9.596  68.857  1.00  0.00    -0.230 C  
HETATM    2  C   UNL     1     -10.574   8.109  68.556  1.00  0.00    -0.142 C  
HETATM    3  C   UNL     1      -9.519   7.891  67.478  1.00  0.00    -0.175 C  
HETATM    4  C   UNL     1      -9.900   8.613  66.192  1.00  0.00    -0.269 C  
HETATM    5  C   UNL     1     -10.183  10.100  66.403  1.00  0.00    -0.288 C  
HETATM    6  C   UNL     1     -11.105  10.400  67.596  1.00  0.00    -0.361 C  
HETATM    7  C   UNL     1     -11.152  11.894  67.960  1.00  0.00    -0.240 C  
HETATM    8  N   UNL     1      -9.871  12.446  68.416  1.00  0.00    -0.217 NA 
HETATM    9  C   UNL     1      -9.123  11.587  69.352  1.00  0.00     0.652 C  
HETATM   10  C   UNL     1      -9.625  10.169  69.684  1.00  0.00    -0.237 C  
ENDROOT
BRANCH   8  11
HETATM   11  C   UNL     1     -10.043  13.833  68.919  1.00  0.00    -0.066 C  
BRANCH  11  12
HETATM   12  C   UNL     1      -8.910  14.885  68.680  1.00  0.00    -0.179 C  
HETATM   13  H   UNL     1      -7.358  15.632  69.682  1.00  0.00     0.000 HD 
HETATM   14  O   UNL     1      -8.045  14.993  69.827  1.00  0.00    -0.140 OA 
BRANCH  12  15
HETATM   15  C   UNL     1      -8.086  14.651  67.385  1.00  0.00    -0.196 C  
BRANCH  15  16
HETATM   16  N   UNL     1      -8.754  13.772  66.417  1.00  0.00    -0.427 N  
HETATM   17  C   UNL     1      -9.729  14.206  65.549  1.00  0.00    -0.132 C  
HETATM   18  O   UNL     1     -10.149  15.356  65.498  1.00  0.00    -0.341 OA 
HETATM   19  H   UNL     1      -8.482  12.789  66.388  1.00  0.00     0.000 HD 
BRANCH  17  20
HETATM   20  C   UNL     1     -10.330  13.181  64.663  1.00  0.00    -0.381 A  
HETATM   21  C   UNL     1      -9.455  12.390  63.896  1.00  0.00     0.335 A  
HETATM   22  H   UNL     1     -13.854  11.310  62.710  1.00  0.00     0.000 HD 
HETATM   23  C   UNL     1     -11.730  13.045  64.540  1.00  0.00    -0.419 A  
HETATM   24  C   UNL     1     -12.202  12.117  63.601  1.00  0.00    -0.562 A  
HETATM   25  C   UNL     1      -9.957  11.445  63.011  1.00  0.00    -0.354 A  
HETATM   26  C   UNL     1     -12.714  13.834  65.366  1.00  0.00    -0.513 C  
HETATM   27  O   UNL     1     -13.534  11.939  63.347  1.00  0.00    -0.440 OA 
HETATM   28  C   UNL     1     -11.334  11.315  62.861  1.00  0.00     0.555 A  
ENDBRANCH  17  20
ENDBRANCH  15  16
BRANCH  15  29
HETATM   29  C   UNL     1      -7.563  15.969  66.739  1.00  0.00    -0.212 C  
BRANCH  29  30
HETATM   30  S   UNL     1      -7.220  17.341  67.901  1.00  0.00    -0.183 SA 
BRANCH  30  31
HETATM   31  C   UNL     1      -8.543  18.494  67.620  1.00  0.00    -0.264 A  
HETATM   32  C   UNL     1     -10.043  19.492  65.987  1.00  0.00    -0.521 A  
HETATM   33  C   UNL     1      -8.935  18.701  66.290  1.00  0.00    -0.228 A  
HETATM   34  C   UNL     1     -10.386  19.893  68.339  1.00  0.00    -0.507 A  
HETATM   35  C   UNL     1     -10.774  20.083  67.014  1.00  0.00    -0.366 A  
HETATM   36  C   UNL     1      -9.274  19.102  68.642  1.00  0.00    -0.429 A  
ENDBRANCH  30  31
ENDBRANCH  29  30
ENDBRANCH  15  29
ENDBRANCH  12  15
ENDBRANCH  11  12
ENDBRANCH   8  11
BRANCH   9  37
HETATM   37  C   UNL     1      -7.639  11.486  68.875  1.00  0.00    -0.102 C  
HETATM   38  C   UNL     1      -5.364   9.607  67.786  1.00  0.00    -0.036 C  
HETATM   39  O   UNL     1      -6.684  11.950  69.492  1.00  0.00    -0.112 OA 
HETATM   40  C   UNL     1      -6.537   9.956  65.618  1.00  0.00    -0.093 C  
HETATM   41  C   UNL     1      -6.220  10.595  66.980  1.00  0.00    -0.069 C  
HETATM   42  N   UNL     1      -7.503  10.857  67.648  1.00  0.00    -0.094 N  
HETATM   43  C   UNL     1      -5.431  11.890  66.740  1.00  0.00    -0.058 C  
HETATM   44  H   UNL     1      -8.353  10.553  67.175  1.00  0.00     0.000 HD 
ENDBRANCH   9  37
TORSDOF 9
ENDMDL
MODEL      166
REMARK 921   NORMALIZED FREE ENERGY PREDICTED BY IDOCK:   -4.55 KCAL/MOL
REMARK 922        TOTAL FREE ENERGY PREDICTED BY IDOCK:   -9.78 KCAL/MOL
REMARK 923 INTER-LIGAND FREE ENERGY PREDICTED BY IDOCK:   -8.88 KCAL/MOL
REMARK 924 INTRA-LIGAND FREE ENERGY PREDICTED BY IDOCK:   -0.91 KCAL/MOL
REMARK 927      BINDING AFFINITY PREDICTED BY RF-SCORE:    0.00 PKD
ROOT
HETATM    1  C   UNL     1      -9.646  12.808  66.790  1.00  0.00    -0.244 C  
HETATM    2  C   UNL     1      -9.954  14.308  66.858  1.00  0.00    -0.263 C  
HETATM    3  C   UNL     1     -11.442  14.574  67.048  1.00  0.00    -0.383 C  
HETATM    4  C   UNL     1     -12.255  13.946  65.924  1.00  0.00    -0.497 C  
HETATM    5  C   UNL     1     -11.974  12.455  65.744  1.00  0.00    -0.437 C  
HETATM    6  C   UNL     1     -10.480  12.096  65.723  1.00  0.00    -0.287 C  
HETATM    7  C   UNL     1     -10.222  10.582  65.823  1.00  0.00    -0.243 C  
HETATM    8  N   UNL     1     -10.666   9.975  67.083  1.00  0.00    -0.239 NA 
HETATM    9  C   UNL     1     -10.349  10.755  68.293  1.00  0.00    -0.173 C  
HETATM   10  C   UNL     1      -9.723  12.158  68.178  1.00  0.00    -0.208 C  
ENDROOT
BRANCH   8  11
HETATM   11  C   UNL     1     -10.218   8.562  67.175  1.00  0.00    -0.284 C  
BRANCH  11  12
HETATM   12  C   UNL     1      -8.859   8.228  67.876  1.00  0.00    -0.138 C  
HETATM   13  H   UNL     1      -8.006   8.528  69.651  1.00  0.00     0.000 HD 
HETATM   14  O   UNL     1      -8.831   8.730  69.226  1.00  0.00    -0.137 OA 
BRANCH  12  15
HETATM   15  C   UNL     1      -8.475   6.725  67.836  1.00  0.00    -0.119 C  
BRANCH  15  16
HETATM   16  N   UNL     1      -8.795   6.005  69.075  1.00  0.00    -0.121 N  
HETATM   17  C   UNL     1     -10.071   5.624  69.420  1.00  0.00    -0.223 C  
HETATM   18  O   UNL     1     -11.069   5.851  68.745  1.00  0.00    -0.297 OA 
HETATM   19  H   UNL     1      -8.032   5.776  69.713  1.00  0.00     0.000 HD 
BRANCH  17  20
HETATM   20  C   UNL     1     -10.227   4.939  70.724  1.00  0.00    -0.276 A  
HETATM   21  C   UNL     1     -10.835   5.658  71.769  1.00  0.00    -0.301 A  
HETATM   22  H   UNL     1      -9.398   1.532  73.452  1.00  0.00     0.000 HD 
HETATM   23  C   UNL     1      -9.725   3.635  70.935  1.00  0.00    -0.229 A  
HETATM   24  C   UNL     1      -9.830   3.112  72.231  1.00  0.00    -0.163 A  
HETATM   25  C   UNL     1     -10.967   5.089  73.029  1.00  0.00    -0.360 A  
HETATM   26  C   UNL     1      -9.104   2.801  69.843  1.00  0.00    -0.190 C  
HETATM   27  O   UNL     1      -9.327   1.887  72.574  1.00  0.00    -0.073 OA 
HETATM   28  C   UNL     1     -10.457   3.815  73.259  1.00  0.00    -0.258 A  
ENDBRANCH  17  20
ENDBRANCH  15  16
BRANCH  15  29
HETATM   29  C   UNL     1      -8.991   5.990  66.563  1.00  0.00    -0.133 C  
BRANCH  29  30
HETATM   30  S   UNL     1      -7.738   5.030  65.635  1.00  0.00    -0.088 SA 
BRANCH  30  31
HETATM   31  C   UNL     1      -8.684   3.809  64.755  1.00  0.00    -0.114 A  
HETATM   32  C   UNL     1     -10.708   3.345  63.490  1.00  0.00    -0.252 A  
HETATM   33  C   UNL     1      -9.950   4.196  64.295  1.00  0.00    -0.136 A  
HETATM   34  C   UNL     1      -8.951   1.698  63.597  1.00  0.00    -0.089 A  
HETATM   35  C   UNL     1     -10.204   2.097  63.136  1.00  0.00    -0.127 A  
HETATM   36  C   UNL     1      -8.192   2.551  64.405  1.00  0.00    -0.082 A  
ENDBRANCH  30  31
ENDBRANCH  29  30
ENDBRANCH  15  29
ENDBRANCH  12  15
ENDBRANCH  11  12
ENDBRANCH   8  11
BRANCH   9  37
HETATM   37  C   UNL     1     -11.628  10.857  69.183  1.00  0.00    -0.319 C  
HETATM   38  C   UNL     1     -13.882   9.286  70.714  1.00  0.00     0.230 C  
HETATM   39  O   UNL     1     -12.586  11.585  68.931  1.00  0.00    -0.203 OA 
HETATM   40  C   UNL     1     -12.113   9.056  72.451  1.00  0.00    -0.289 C  
HETATM   41  C   UNL     1     -12.639   9.954  71.318  1.00  0.00    -0.381 C  
HETATM   42  N   UNL     1     -11.563  10.075  70.325  1.00  0.00    -0.278 N  
HETATM   43  C   UNL     1     -13.019  11.317  71.913  1.00  0.00    -0.471 C  
HETATM   44  H   UNL     1     -10.707   9.546  70.487  1.00  0.00     0.000 HD 
ENDBRANCH   9  37
TORSDOF 9
ENDMDL
MODEL      167
REMARK 921   NORMALIZED FREE ENERGY PREDICTED BY IDOCK:   -4.55 KCAL/MOL
REMARK 922        TOTAL FREE ENERGY PREDICTED BY IDOCK:   -9.78 KCAL/MOL
REMARK 923 INTER-LIGAND FREE ENERGY PREDICTED BY IDOCK:   -7.08 KCAL/MOL
REMARK 924 INTRA-LIGAND FREE ENERGY PREDICTED BY IDOCK:   -2.70 KCAL/MOL
REMARK 927      BINDING AFFINITY PREDICTED BY RF-SCORE:    0.00 PKD
ROOT
HETATM    1  C   UNL     1     -10.251   8.113  72.397  1.00  0.00    -0.368 C  
HETATM    2  C   UNL     1     -10.626   6.911  73.271  1.00  0.00    -0.353 C  
HETATM    3  C   UNL     1     -11.539   5.938  72.536  1.00  0.00    -0.327 C  
HETATM    4  C   UNL     1     -12.811   6.634  72.069  1.00  0.00    -0.157 C  
HETATM    5  C   UNL     1     -12.536   7.881  71.231  1.00  0.00    -0.264 C  
HETATM    6  C   UNL     1     -11.483   8.824  71.834  1.00  0.00    -0.428 C  
HETATM    7  C   UNL     1     -11.020   9.916  70.855  1.00  0.00    -0.322 C  
HETATM    8  N   UNL     1     -10.330   9.409  69.665  1.00  0.00    -0.205 NA 
HETATM    9  C   UNL     1      -9.355   8.333  69.923  1.00  0.00    -0.159 C  
HETATM   10  C   UNL     1      -9.213   7.729  71.334  1.00  0.00    -0.156 C  
ENDROOT
BRANCH   8  11
HETATM   11  C   UNL     1      -9.757  10.524  68.869  1.00  0.00    -0.199 C  
BRANCH  11  12
HETATM   12  C   UNL     1      -8.324  10.378  68.256  1.00  0.00    -0.119 C  
HETATM   13  H   UNL     1      -7.498  10.314  66.444  1.00  0.00     0.000 HD 
HETATM   14  O   UNL     1      -8.367  10.403  66.817  1.00  0.00    -0.123 OA 
BRANCH  12  15
HETATM   15  C   UNL     1      -7.292  11.403  68.798  1.00  0.00    -0.114 C  
BRANCH  15  16
HETATM   16  N   UNL     1      -7.756  12.795  68.724  1.00  0.00    -0.297 N  
HETATM   17  C   UNL     1      -7.133  13.760  67.967  1.00  0.00    -0.133 C  
HETATM   18  O   UNL     1      -6.129  13.569  67.290  1.00  0.00    -0.327 OA 
HETATM   19  H   UNL     1      -8.581  13.059  69.263  1.00  0.00     0.000 HD 
BRANCH  17  20
HETATM   20  C   UNL     1      -7.705  15.125  68.035  1.00  0.00    -0.131 A  
HETATM   21  C   UNL     1      -7.071  16.056  68.877  1.00  0.00    -0.156 A  
HETATM   22  H   UNL     1     -10.923  18.043  67.105  1.00  0.00     0.000 HD 
HETATM   23  C   UNL     1      -8.883  15.464  67.332  1.00  0.00    -0.196 A  
HETATM   24  C   UNL     1      -9.403  16.749  67.540  1.00  0.00    -0.231 A  
HETATM   25  C   UNL     1      -7.587  17.337  69.020  1.00  0.00    -0.177 A  
HETATM   26  C   UNL     1      -9.580  14.522  66.383  1.00  0.00    -0.324 C  
HETATM   27  O   UNL     1     -10.570  17.172  66.964  1.00  0.00    -0.306 OA 
HETATM   28  C   UNL     1      -8.759  17.679  68.354  1.00  0.00    -0.284 A  
ENDBRANCH  17  20
ENDBRANCH  15  16
BRANCH  15  29
HETATM   29  C   UNL     1      -6.730  11.030  70.202  1.00  0.00    -0.025 C  
BRANCH  29  30
HETATM   30  S   UNL     1      -5.272   9.923  70.206  1.00  0.00    -0.040 SA 
BRANCH  30  31
HETATM   31  C   UNL     1      -5.705   8.631  71.346  1.00  0.00    -0.041 A  
HETATM   32  C   UNL     1      -5.828   6.234  71.734  1.00  0.00    -0.036 A  
HETATM   33  C   UNL     1      -5.627   7.313  70.874  1.00  0.00    -0.027 A  
HETATM   34  C   UNL     1      -6.200   7.768  73.556  1.00  0.00    -0.069 A  
HETATM   35  C   UNL     1      -6.109   6.462  73.079  1.00  0.00    -0.054 A  
HETATM   36  C   UNL     1      -5.999   8.850  72.693  1.00  0.00    -0.045 A  
ENDBRANCH  30  31
ENDBRANCH  29  30
ENDBRANCH  15  29
ENDBRANCH  12  15
ENDBRANCH  11  12
ENDBRANCH   8  11
BRANCH   9  37
HETATM   37  C   UNL     1      -9.601   7.169  68.912  1.00  0.00    -0.142 C  
HETATM   38  C   UNL     1      -8.467   5.540  66.472  1.00  0.00    -0.113 C  
HETATM   39  O   UNL     1     -10.639   7.022  68.269  1.00  0.00    -0.193 OA 
HETATM   40  C   UNL     1      -7.186   4.359  68.251  1.00  0.00    -0.060 C  
HETATM   41  C   UNL     1      -8.493   5.111  67.946  1.00  0.00    -0.104 C  
HETATM   42  N   UNL     1      -8.544   6.276  68.839  1.00  0.00    -0.125 N  
HETATM   43  C   UNL     1      -9.672   4.157  68.189  1.00  0.00    -0.152 C  
HETATM   44  H   UNL     1      -7.744   6.440  69.450  1.00  0.00     0.000 HD 
ENDBRANCH   9  37
TORSDOF 9
ENDMDL
MODEL      168
REMARK 921   NORMALIZED FREE ENERGY PREDICTED BY IDOCK:   -4.54 KCAL/MOL
REMARK 922        TOTAL FREE ENERGY PREDICTED BY IDOCK:   -9.76 KCAL/MOL
REMARK 923 INTER-LIGAND FREE ENERGY PREDICTED BY IDOCK:   -7.95 KCAL/MOL
REMARK 924 INTRA-LIGAND FREE ENERGY PREDICTED BY IDOCK:   -1.81 KCAL/MOL
REMARK 927      BINDING AFFINITY PREDICTED BY RF-SCORE:    0.00 PKD
ROOT
HETATM    1  C   UNL     1      -6.440   5.847  68.359  1.00  0.00    -0.046 C  
HETATM    2  C   UNL     1      -5.985   4.436  67.973  1.00  0.00    -0.027 C  
HETATM    3  C   UNL     1      -6.848   3.844  66.865  1.00  0.00    -0.051 C  
HETATM    4  C   UNL     1      -8.313   3.801  67.282  1.00  0.00    -0.098 C  
HETATM    5  C   UNL     1      -8.844   5.159  67.738  1.00  0.00    -0.106 C  
HETATM    6  C   UNL     1      -7.925   5.894  68.727  1.00  0.00    -0.103 C  
HETATM    7  C   UNL     1      -8.332   7.360  68.954  1.00  0.00    -0.129 C  
HETATM    8  N   UNL     1      -8.236   8.206  67.760  1.00  0.00    -0.127 NA 
HETATM    9  C   UNL     1      -7.021   8.003  66.950  1.00  0.00    -0.074 C  
HETATM   10  C   UNL     1      -6.028   6.878  67.301  1.00  0.00    -0.017 C  
ENDROOT
BRANCH   8  11
HETATM   11  C   UNL     1      -8.467   9.632  68.103  1.00  0.00    -0.118 C  
BRANCH  11  12
HETATM   12  C   UNL     1      -9.893  10.250  67.916  1.00  0.00    -0.157 C  
HETATM   13  H   UNL     1     -11.701  10.049  68.727  1.00  0.00     0.000 HD 
HETATM   14  O   UNL     1     -10.836   9.675  68.840  1.00  0.00    -0.221 OA 
BRANCH  12  15
HETATM   15  C   UNL     1      -9.929  11.800  67.981  1.00  0.00    -0.188 C  
BRANCH  15  16
HETATM   16  N   UNL     1     -10.519  12.321  69.220  1.00  0.00    -0.426 N  
HETATM   17  C   UNL     1     -11.642  13.116  69.246  1.00  0.00    -0.314 C  
HETATM   18  O   UNL     1     -12.257  13.480  68.251  1.00  0.00    -0.313 OA 
HETATM   19  H   UNL     1     -10.073  12.083  70.106  1.00  0.00     0.000 HD 
BRANCH  17  20
HETATM   20  C   UNL     1     -12.086  13.590  70.579  1.00  0.00    -0.409 A  
HETATM   21  C   UNL     1     -12.953  12.758  71.310  1.00  0.00    -0.310 A  
HETATM   22  H   UNL     1     -12.394  16.760  73.675  1.00  0.00     0.000 HD 
HETATM   23  C   UNL     1     -11.708  14.858  71.070  1.00  0.00    -0.376 A  
HETATM   24  C   UNL     1     -12.260  15.259  72.295  1.00  0.00    -0.383 A  
HETATM   25  C   UNL     1     -13.441  13.166  72.544  1.00  0.00    -0.579 A  
HETATM   26  C   UNL     1     -10.749  15.774  70.351  1.00  0.00    -0.305 C  
HETATM   27  O   UNL     1     -12.019  16.488  72.845  1.00  0.00    -0.536 OA 
HETATM   28  C   UNL     1     -13.097  14.422  73.032  1.00  0.00    -0.581 A  
ENDBRANCH  17  20
ENDBRANCH  15  16
BRANCH  15  29
HETATM   29  C   UNL     1      -8.561  12.464  67.641  1.00  0.00    -0.172 C  
BRANCH  29  30
HETATM   30  S   UNL     1      -8.603  14.271  67.352  1.00  0.00    -0.224 SA 
BRANCH  30  31
HETATM   31  C   UNL     1      -7.313  14.911  68.393  1.00  0.00    -0.114 A  
HETATM   32  C   UNL     1      -6.131  16.893  69.162  1.00  0.00    -0.184 A  
HETATM   33  C   UNL     1      -7.039  16.283  68.297  1.00  0.00    -0.138 A  
HETATM   34  C   UNL     1      -5.743  14.768  70.234  1.00  0.00    -0.139 A  
HETATM   35  C   UNL     1      -5.487  16.134  70.137  1.00  0.00    -0.167 A  
HETATM   36  C   UNL     1      -6.653  14.157  69.365  1.00  0.00    -0.121 A  
ENDBRANCH  30  31
ENDBRANCH  29  30
ENDBRANCH  15  29
ENDBRANCH  12  15
ENDBRANCH  11  12
ENDBRANCH   8  11
BRANCH   9  37
HETATM   37  C   UNL     1      -7.427   7.853  65.450  1.00  0.00    -0.080 C  
HETATM   38  C   UNL     1      -8.868   9.172  62.986  1.00  0.00    -0.113 C  
HETATM   39  O   UNL     1      -7.972   6.857  64.980  1.00  0.00    -0.116 OA 
HETATM   40  C   UNL     1      -6.713  10.400  62.774  1.00  0.00    -0.123 C  
HETATM   41  C   UNL     1      -7.357   9.085  63.242  1.00  0.00    -0.097 C  
HETATM   42  N   UNL     1      -7.067   8.944  64.676  1.00  0.00    -0.087 N  
HETATM   43  C   UNL     1      -6.758   7.930  62.426  1.00  0.00    -0.085 C  
HETATM   44  H   UNL     1      -6.565   9.704  65.134  1.00  0.00     0.000 HD 
ENDBRANCH   9  37
TORSDOF 9
ENDMDL
MODEL      169
REMARK 921   NORMALIZED FREE ENERGY PREDICTED BY IDOCK:   -4.51 KCAL/MOL
REMARK 922        TOTAL FREE ENERGY PREDICTED BY IDOCK:   -9.72 KCAL/MOL
REMARK 923 INTER-LIGAND FREE ENERGY PREDICTED BY IDOCK:   -8.60 KCAL/MOL
REMARK 924 INTRA-LIGAND FREE ENERGY PREDICTED BY IDOCK:   -1.12 KCAL/MOL
REMARK 927      BINDING AFFINITY PREDICTED BY RF-SCORE:    0.00 PKD
ROOT
HETATM    1  C   UNL     1      -8.040   5.383  73.575  1.00  0.00    -0.113 C  
HETATM    2  C   UNL     1      -6.812   4.650  74.125  1.00  0.00    -0.070 C  
HETATM    3  C   UNL     1      -6.503   3.387  73.330  1.00  0.00    -0.029 C  
HETATM    4  C   UNL     1      -7.694   2.438  73.331  1.00  0.00    -0.043 C  
HETATM    5  C   UNL     1      -8.984   3.099  72.847  1.00  0.00    -0.102 C  
HETATM    6  C   UNL     1      -9.264   4.470  73.484  1.00  0.00    -0.115 C  
HETATM    7  C   UNL     1     -10.402   5.236  72.787  1.00  0.00    -0.196 C  
HETATM    8  N   UNL     1     -10.124   5.597  71.393  1.00  0.00    -0.193 NA 
HETATM    9  C   UNL     1      -8.765   6.113  71.145  1.00  0.00    -0.132 C  
HETATM   10  C   UNL     1      -7.714   6.121  72.271  1.00  0.00    -0.100 C  
ENDROOT
BRANCH   8  11
HETATM   11  C   UNL     1     -11.184   6.488  70.856  1.00  0.00    -0.311 C  
BRANCH  11  12
HETATM   12  C   UNL     1     -11.298   7.957  71.383  1.00  0.00    -0.252 C  
HETATM   13  H   UNL     1     -10.572   9.041  72.888  1.00  0.00     0.000 HD 
HETATM   14  O   UNL     1     -10.503   8.150  72.568  1.00  0.00    -0.291 OA 
BRANCH  12  15
HETATM   15  C   UNL     1     -10.979   9.041  70.318  1.00  0.00    -0.244 C  
BRANCH  15  16
HETATM   16  N   UNL     1     -11.285  10.407  70.763  1.00  0.00    -0.381 N  
HETATM   17  C   UNL     1     -12.463  11.052  70.466  1.00  0.00    -0.344 C  
HETATM   18  O   UNL     1     -13.368  10.569  69.795  1.00  0.00     0.092 OA 
HETATM   19  H   UNL     1     -10.589  10.901  71.322  1.00  0.00     0.000 HD 
BRANCH  17  20
HETATM   20  C   UNL     1     -12.598  12.443  70.959  1.00  0.00    -0.349 A  
HETATM   21  C   UNL     1     -13.392  12.655  72.101  1.00  0.00    -0.570 A  
HETATM   22  H   UNL     1     -11.995  16.817  70.475  1.00  0.00     0.000 HD 
HETATM   23  C   UNL     1     -12.007  13.527  70.273  1.00  0.00    -0.386 A  
HETATM   24  C   UNL     1     -12.276  14.814  70.759  1.00  0.00    -0.314 A  
HETATM   25  C   UNL     1     -13.596  13.940  72.585  1.00  0.00    -0.626 A  
HETATM   26  C   UNL     1     -11.113  13.357  69.070  1.00  0.00    -0.293 C  
HETATM   27  O   UNL     1     -11.813  15.945  70.145  1.00  0.00    -0.340 OA 
HETATM   28  C   UNL     1     -13.040  15.020  71.907  1.00  0.00    -0.437 A  
ENDBRANCH  17  20
ENDBRANCH  15  16
BRANCH  15  29
HETATM   29  C   UNL     1      -9.548   8.912  69.715  1.00  0.00    -0.171 C  
BRANCH  29  30
HETATM   30  S   UNL     1      -9.457   8.197  68.032  1.00  0.00    -0.145 SA 
BRANCH  30  31
HETATM   31  C   UNL     1      -9.772   9.574  66.954  1.00  0.00    -0.182 A  
HETATM   32  C   UNL     1      -9.158  10.712  64.894  1.00  0.00    -0.231 A  
HETATM   33  C   UNL     1      -8.912   9.735  65.859  1.00  0.00    -0.189 A  
HETATM   34  C   UNL     1     -11.129  11.394  66.105  1.00  0.00    -0.259 A  
HETATM   35  C   UNL     1     -10.273  11.538  65.015  1.00  0.00    -0.328 A  
HETATM   36  C   UNL     1     -10.880  10.415  67.073  1.00  0.00    -0.269 A  
ENDBRANCH  30  31
ENDBRANCH  29  30
ENDBRANCH  15  29
ENDBRANCH  12  15
ENDBRANCH  11  12
ENDBRANCH   8  11
BRANCH   9  37
HETATM   37  C   UNL     1      -8.159   5.376  69.909  1.00  0.00    -0.088 C  
HETATM   38  C   UNL     1      -7.085   2.656  68.753  1.00  0.00    -0.044 C  
HETATM   39  O   UNL     1      -7.209   5.798  69.252  1.00  0.00    -0.063 OA 
HETATM   40  C   UNL     1      -9.510   2.184  68.444  1.00  0.00    -0.226 C  
HETATM   41  C   UNL     1      -8.454   3.301  68.494  1.00  0.00    -0.083 C  
HETATM   42  N   UNL     1      -8.830   4.208  69.587  1.00  0.00    -0.079 N  
HETATM   43  C   UNL     1      -8.440   4.020  67.138  1.00  0.00    -0.100 C  
HETATM   44  H   UNL     1      -9.645   3.961  70.148  1.00  0.00     0.000 HD 
ENDBRANCH   9  37
TORSDOF 9
ENDMDL
MODEL      170
REMARK 921   NORMALIZED FREE ENERGY PREDICTED BY IDOCK:   -4.50 KCAL/MOL
REMARK 922        TOTAL FREE ENERGY PREDICTED BY IDOCK:   -9.71 KCAL/MOL
REMARK 923 INTER-LIGAND FREE ENERGY PREDICTED BY IDOCK:   -8.25 KCAL/MOL
REMARK 924 INTRA-LIGAND FREE ENERGY PREDICTED BY IDOCK:   -1.46 KCAL/MOL
REMARK 927      BINDING AFFINITY PREDICTED BY RF-SCORE:    0.00 PKD
ROOT
HETATM    1  C   UNL     1     -12.340  13.789  70.448  1.00  0.00    -0.423 C  
HETATM    2  C   UNL     1     -12.401  12.344  70.954  1.00  0.00    -0.358 C  
HETATM    3  C   UNL     1     -11.464  11.431  70.174  1.00  0.00    -0.302 C  
HETATM    4  C   UNL     1     -11.793  11.455  68.687  1.00  0.00    -0.377 C  
HETATM    5  C   UNL     1     -11.810  12.867  68.102  1.00  0.00    -0.380 C  
HETATM    6  C   UNL     1     -12.596  13.885  68.943  1.00  0.00     0.408 C  
HETATM    7  C   UNL     1     -12.370  15.339  68.494  1.00  0.00     0.236 C  
HETATM    8  N   UNL     1     -10.990  15.813  68.651  1.00  0.00    -0.288 NA 
HETATM    9  C   UNL     1     -10.342  15.431  69.919  1.00  0.00    -0.285 C  
HETATM   10  C   UNL     1     -11.055  14.490  70.908  1.00  0.00     0.173 C  
ENDROOT
BRANCH   8  11
HETATM   11  C   UNL     1     -10.896  17.269  68.372  1.00  0.00    -0.273 C  
BRANCH  11  12
HETATM   12  C   UNL     1     -10.147  17.762  67.090  1.00  0.00    -0.338 C  
HETATM   13  H   UNL     1      -9.251  19.424  66.456  1.00  0.00     0.000 HD 
HETATM   14  O   UNL     1      -9.705  19.125  67.234  1.00  0.00    -0.305 OA 
BRANCH  12  15
HETATM   15  C   UNL     1      -8.977  16.844  66.644  1.00  0.00    -0.252 C  
BRANCH  15  16
HETATM   16  N   UNL     1      -9.419  15.554  66.100  1.00  0.00    -0.314 N  
HETATM   17  C   UNL     1     -10.356  15.437  65.099  1.00  0.00    -0.374 C  
HETATM   18  O   UNL     1     -10.925  16.384  64.568  1.00  0.00    -0.750 OA 
HETATM   19  H   UNL     1      -9.011  14.701  66.483  1.00  0.00     0.000 HD 
BRANCH  17  20
HETATM   20  C   UNL     1     -10.719  14.059  64.691  1.00  0.00    -0.416 A  
HETATM   21  C   UNL     1      -9.680  13.210  64.268  1.00  0.00     0.410 A  
HETATM   22  H   UNL     1     -13.751  10.971  63.692  1.00  0.00     0.000 HD 
HETATM   23  C   UNL     1     -12.065  13.632  64.662  1.00  0.00    -0.449 A  
HETATM   24  C   UNL     1     -12.316  12.346  64.164  1.00  0.00    -0.467 A  
HETATM   25  C   UNL     1      -9.961  11.924  63.828  1.00  0.00    -0.379 A  
HETATM   26  C   UNL     1     -13.214  14.483  65.142  1.00  0.00     0.437 C  
HETATM   27  O   UNL     1     -13.581  11.842  64.029  1.00  0.00    -0.492 OA 
HETATM   28  C   UNL     1     -11.283  11.495  63.772  1.00  0.00    -0.456 A  
ENDBRANCH  17  20
ENDBRANCH  15  16
BRANCH  15  29
HETATM   29  C   UNL     1      -7.945  17.563  65.724  1.00  0.00     0.164 C  
BRANCH  29  30
HETATM   30  S   UNL     1      -7.514  19.277  66.201  1.00  0.00    -0.279 SA 
BRANCH  30  31
HETATM   31  C   UNL     1      -6.593  19.094  67.711  1.00  0.00    -0.215 A  
HETATM   32  C   UNL     1      -6.173  19.965  69.942  1.00  0.00    -0.388 A  
HETATM   33  C   UNL     1      -6.759  20.091  68.682  1.00  0.00    -0.344 A  
HETATM   34  C   UNL     1      -5.236  17.843  69.281  1.00  0.00    -0.183 A  
HETATM   35  C   UNL     1      -5.416  18.835  70.244  1.00  0.00    -0.232 A  
HETATM   36  C   UNL     1      -5.823  17.971  68.018  1.00  0.00    -0.163 A  
ENDBRANCH  30  31
ENDBRANCH  29  30
ENDBRANCH  15  29
ENDBRANCH  12  15
ENDBRANCH  11  12
ENDBRANCH   8  11
BRANCH   9  37
HETATM   37  C   UNL     1      -8.928  14.845  69.612  1.00  0.00     0.114 C  
HETATM   38  C   UNL     1      -7.127  12.268  69.523  1.00  0.00     0.219 C  
HETATM   39  O   UNL     1      -7.878  15.320  70.040  1.00  0.00    -0.067 OA 
HETATM   40  C   UNL     1      -8.269  11.920  67.338  1.00  0.00    -0.164 C  
HETATM   41  C   UNL     1      -7.784  12.986  68.335  1.00  0.00    -0.137 C  
HETATM   42  N   UNL     1      -8.963  13.753  68.761  1.00  0.00    -0.374 N  
HETATM   43  C   UNL     1      -6.751  13.878  67.631  1.00  0.00    -0.189 C  
HETATM   44  H   UNL     1      -9.872  13.459  68.406  1.00  0.00     0.000 HD 
ENDBRANCH   9  37
TORSDOF 9
ENDMDL
MODEL      171
REMARK 921   NORMALIZED FREE ENERGY PREDICTED BY IDOCK:   -4.50 KCAL/MOL
REMARK 922        TOTAL FREE ENERGY PREDICTED BY IDOCK:   -9.70 KCAL/MOL
REMARK 923 INTER-LIGAND FREE ENERGY PREDICTED BY IDOCK:   -8.26 KCAL/MOL
REMARK 924 INTRA-LIGAND FREE ENERGY PREDICTED BY IDOCK:   -1.44 KCAL/MOL
REMARK 927      BINDING AFFINITY PREDICTED BY RF-SCORE:    0.00 PKD
ROOT
HETATM    1  C   UNL     1      -9.721  16.461  68.530  1.00  0.00    -0.228 C  
HETATM    2  C   UNL     1      -8.887  17.633  68.002  1.00  0.00    -0.257 C  
HETATM    3  C   UNL     1      -8.097  17.251  66.756  1.00  0.00    -0.280 C  
HETATM    4  C   UNL     1      -7.178  16.070  67.035  1.00  0.00    -0.249 C  
HETATM    5  C   UNL     1      -7.915  14.865  67.618  1.00  0.00    -0.184 C  
HETATM    6  C   UNL     1      -8.871  15.211  68.771  1.00  0.00    -0.196 C  
HETATM    7  C   UNL     1      -9.801  14.047  69.153  1.00  0.00     0.121 C  
HETATM    8  N   UNL     1     -10.732  13.644  68.093  1.00  0.00    -0.242 NA 
HETATM    9  C   UNL     1     -11.373  14.758  67.372  1.00  0.00    -0.351 C  
HETATM   10  C   UNL     1     -10.957  16.215  67.655  1.00  0.00    -0.268 C  
ENDROOT
BRANCH   8  11
HETATM   11  C   UNL     1     -11.711  12.648  68.600  1.00  0.00    -0.325 C  
BRANCH  11  12
HETATM   12  C   UNL     1     -11.310  11.707  69.784  1.00  0.00    -0.200 C  
HETATM   13  H   UNL     1     -12.226  10.700  71.239  1.00  0.00     0.000 HD 
HETATM   14  O   UNL     1     -12.469  11.271  70.520  1.00  0.00    -0.321 OA 
BRANCH  12  15
HETATM   15  C   UNL     1     -10.431  10.497  69.367  1.00  0.00    -0.240 C  
BRANCH  15  16
HETATM   16  N   UNL     1     -10.381   9.433  70.378  1.00  0.00    -0.242 N  
HETATM   17  C   UNL     1      -9.247   9.119  71.089  1.00  0.00    -0.231 C  
HETATM   18  O   UNL     1      -8.165   9.678  70.951  1.00  0.00    -0.290 OA 
HETATM   19  H   UNL     1     -11.231   8.899  70.561  1.00  0.00     0.000 HD 
BRANCH  17  20
HETATM   20  C   UNL     1      -9.356   7.991  72.045  1.00  0.00    -0.237 A  
HETATM   21  C   UNL     1      -9.347   8.298  73.418  1.00  0.00    -0.186 A  
HETATM   22  H   UNL     1      -9.379   3.641  72.940  1.00  0.00     0.000 HD 
HETATM   23  C   UNL     1      -9.400   6.652  71.599  1.00  0.00    -0.149 A  
HETATM   24  C   UNL     1      -9.400   5.652  72.581  1.00  0.00    -0.140 A  
HETATM   25  C   UNL     1      -9.399   7.283  74.363  1.00  0.00    -0.126 A  
HETATM   26  C   UNL     1      -9.455   6.266  70.142  1.00  0.00    -0.172 C  
HETATM   27  O   UNL     1      -9.380   4.319  72.274  1.00  0.00    -0.119 OA 
HETATM   28  C   UNL     1      -9.419   5.957  73.941  1.00  0.00    -0.140 A  
ENDBRANCH  17  20
ENDBRANCH  15  16
BRANCH  15  29
HETATM   29  C   UNL     1     -10.759   9.959  67.942  1.00  0.00    -0.265 C  
BRANCH  29  30
HETATM   30  S   UNL     1     -10.308   8.212  67.630  1.00  0.00    -0.243 SA 
BRANCH  30  31
HETATM   31  C   UNL     1      -9.303   8.275  66.165  1.00  0.00    -0.188 A  
HETATM   32  C   UNL     1      -7.843   7.043  64.660  1.00  0.00    -0.123 A  
HETATM   33  C   UNL     1      -8.561   7.127  65.854  1.00  0.00    -0.157 A  
HETATM   34  C   UNL     1      -8.588   9.258  64.069  1.00  0.00    -0.204 A  
HETATM   35  C   UNL     1      -7.863   8.108  63.764  1.00  0.00    -0.147 A  
HETATM   36  C   UNL     1      -9.307   9.342  65.266  1.00  0.00    -0.303 A  
ENDBRANCH  30  31
ENDBRANCH  29  30
ENDBRANCH  15  29
ENDBRANCH  12  15
ENDBRANCH  11  12
ENDBRANCH   8  11
BRANCH   9  37
HETATM   37  C   UNL     1     -11.260  14.503  65.836  1.00  0.00    -0.331 C  
HETATM   38  C   UNL     1     -10.468  12.467  63.574  1.00  0.00    -0.430 C  
HETATM   39  O   UNL     1     -10.727  15.279  65.046  1.00  0.00    -0.400 OA 
HETATM   40  C   UNL     1     -12.730  11.538  64.044  1.00  0.00     0.167 C  
HETATM   41  C   UNL     1     -11.883  12.822  64.052  1.00  0.00    -0.435 C  
HETATM   42  N   UNL     1     -11.869  13.326  65.432  1.00  0.00    -0.341 N  
HETATM   43  C   UNL     1     -12.520  13.832  63.086  1.00  0.00     0.391 C  
HETATM   44  H   UNL     1     -12.340  12.768  66.144  1.00  0.00     0.000 HD 
ENDBRANCH   9  37
TORSDOF 9
ENDMDL
MODEL      172
REMARK 921   NORMALIZED FREE ENERGY PREDICTED BY IDOCK:   -4.49 KCAL/MOL
REMARK 922        TOTAL FREE ENERGY PREDICTED BY IDOCK:   -9.69 KCAL/MOL
REMARK 923 INTER-LIGAND FREE ENERGY PREDICTED BY IDOCK:   -7.36 KCAL/MOL
REMARK 924 INTRA-LIGAND FREE ENERGY PREDICTED BY IDOCK:   -2.33 KCAL/MOL
REMARK 927      BINDING AFFINITY PREDICTED BY RF-SCORE:    0.00 PKD
ROOT
HETATM    1  C   UNL     1     -11.001  12.459  65.108  1.00  0.00    -0.339 C  
HETATM    2  C   UNL     1     -11.928  13.627  64.752  1.00  0.00    -0.426 C  
HETATM    3  C   UNL     1     -11.987  14.664  65.867  1.00  0.00    -0.242 C  
HETATM    4  C   UNL     1     -12.455  14.033  67.172  1.00  0.00    -0.075 C  
HETATM    5  C   UNL     1     -11.621  12.821  67.583  1.00  0.00    -0.412 C  
HETATM    6  C   UNL     1     -11.371  11.816  66.446  1.00  0.00    -0.361 C  
HETATM    7  C   UNL     1     -10.310  10.760  66.798  1.00  0.00    -0.243 C  
HETATM    8  N   UNL     1      -8.967  11.304  67.025  1.00  0.00    -0.151 NA 
HETATM    9  C   UNL     1      -8.542  12.334  66.059  1.00  0.00     0.342 C  
HETATM   10  C   UNL     1      -9.525  12.862  64.997  1.00  0.00     0.341 C  
ENDROOT
BRANCH   8  11
HETATM   11  C   UNL     1      -7.972  10.212  67.175  1.00  0.00    -0.109 C  
BRANCH  11  12
HETATM   12  C   UNL     1      -7.877   9.436  68.531  1.00  0.00    -0.089 C  
HETATM   13  H   UNL     1      -7.866   9.867  70.476  1.00  0.00     0.000 HD 
HETATM   14  O   UNL     1      -7.923  10.337  69.653  1.00  0.00    -0.160 OA 
BRANCH  12  15
HETATM   15  C   UNL     1      -8.923   8.300  68.689  1.00  0.00    -0.137 C  
BRANCH  15  16
HETATM   16  N   UNL     1      -8.595   7.091  67.922  1.00  0.00    -0.127 N  
HETATM   17  C   UNL     1      -9.352   6.637  66.866  1.00  0.00    -0.148 C  
HETATM   18  O   UNL     1     -10.375   7.178  66.464  1.00  0.00    -0.170 OA 
HETATM   19  H   UNL     1      -7.765   6.561  68.186  1.00  0.00     0.000 HD 
BRANCH  17  20
HETATM   20  C   UNL     1      -8.903   5.379  66.224  1.00  0.00    -0.131 A  
HETATM   21  C   UNL     1      -8.226   5.481  64.996  1.00  0.00    -0.139 A  
HETATM   22  H   UNL     1      -8.856   0.945  65.970  1.00  0.00     0.000 HD 
HETATM   23  C   UNL     1      -9.202   4.119  66.789  1.00  0.00    -0.169 A  
HETATM   24  C   UNL     1      -8.824   2.986  66.055  1.00  0.00    -0.142 A  
HETATM   25  C   UNL     1      -7.823   4.337  64.321  1.00  0.00    -0.085 A  
HETATM   26  C   UNL     1      -9.886   3.950  68.122  1.00  0.00    -0.039 C  
HETATM   27  O   UNL     1      -9.112   1.713  66.467  1.00  0.00    -0.112 OA 
HETATM   28  C   UNL     1      -8.129   3.088  64.851  1.00  0.00    -0.086 A  
ENDBRANCH  17  20
ENDBRANCH  15  16
BRANCH  15  29
HETATM   29  C   UNL     1      -9.280   7.992  70.174  1.00  0.00    -0.152 C  
BRANCH  29  30
HETATM   30  S   UNL     1     -11.003   7.454  70.483  1.00  0.00    -0.256 SA 
BRANCH  30  31
HETATM   31  C   UNL     1     -11.864   8.956  70.886  1.00  0.00    -0.240 A  
HETATM   32  C   UNL     1     -13.535  10.011  72.303  1.00  0.00    -0.346 A  
HETATM   33  C   UNL     1     -12.890   8.865  71.836  1.00  0.00    -0.437 A  
HETATM   34  C   UNL     1     -12.145  11.363  70.871  1.00  0.00    -0.383 A  
HETATM   35  C   UNL     1     -13.156  11.262  71.824  1.00  0.00    -0.527 A  
HETATM   36  C   UNL     1     -11.500  10.214  70.402  1.00  0.00    -0.400 A  
ENDBRANCH  30  31
ENDBRANCH  29  30
ENDBRANCH  15  29
ENDBRANCH  12  15
ENDBRANCH  11  12
ENDBRANCH   8  11
BRANCH   9  37
HETATM   37  C   UNL     1      -7.959  13.554  66.840  1.00  0.00     0.195 C  
HETATM   38  C   UNL     1      -6.905  16.512  66.662  1.00  0.00    -0.161 C  
HETATM   39  O   UNL     1      -7.022  13.481  67.632  1.00  0.00    -0.147 OA 
HETATM   40  C   UNL     1      -9.335  17.054  66.684  1.00  0.00    -0.274 C  
HETATM   41  C   UNL     1      -8.278  16.043  67.161  1.00  0.00    -0.195 C  
HETATM   42  N   UNL     1      -8.635  14.737  66.590  1.00  0.00    -0.426 N  
HETATM   43  C   UNL     1      -8.291  16.012  68.697  1.00  0.00    -0.203 C  
HETATM   44  H   UNL     1      -9.439  14.698  65.963  1.00  0.00     0.000 HD 
ENDBRANCH   9  37
TORSDOF 9
ENDMDL
MODEL      173
REMARK 921   NORMALIZED FREE ENERGY PREDICTED BY IDOCK:   -4.49 KCAL/MOL
REMARK 922        TOTAL FREE ENERGY PREDICTED BY IDOCK:   -9.69 KCAL/MOL
REMARK 923 INTER-LIGAND FREE ENERGY PREDICTED BY IDOCK:   -7.82 KCAL/MOL
REMARK 924 INTRA-LIGAND FREE ENERGY PREDICTED BY IDOCK:   -1.87 KCAL/MOL
REMARK 927      BINDING AFFINITY PREDICTED BY RF-SCORE:    0.00 PKD
ROOT
HETATM    1  C   UNL     1     -10.883  11.616  65.317  1.00  0.00    -0.340 C  
HETATM    2  C   UNL     1     -11.116  12.726  64.288  1.00  0.00    -0.410 C  
HETATM    3  C   UNL     1     -10.799  14.104  64.857  1.00  0.00    -0.423 C  
HETATM    4  C   UNL     1     -11.638  14.386  66.096  1.00  0.00    -0.372 C  
HETATM    5  C   UNL     1     -11.512  13.299  67.163  1.00  0.00    -0.380 C  
HETATM    6  C   UNL     1     -11.645  11.868  66.620  1.00  0.00    -0.337 C  
HETATM    7  C   UNL     1     -11.241  10.794  67.645  1.00  0.00    -0.299 C  
HETATM    8  N   UNL     1      -9.830  10.840  68.045  1.00  0.00    -0.162 NA 
HETATM    9  C   UNL     1      -8.878  11.054  66.939  1.00  0.00    -0.149 C  
HETATM   10  C   UNL     1      -9.387  11.340  65.514  1.00  0.00    -0.243 C  
ENDROOT
BRANCH   8  11
HETATM   11  C   UNL     1      -9.481   9.667  68.886  1.00  0.00    -0.157 C  
BRANCH  11  12
HETATM   12  C   UNL     1      -8.835   8.407  68.222  1.00  0.00    -0.139 C  
HETATM   13  H   UNL     1      -7.489   7.017  68.700  1.00  0.00     0.000 HD 
HETATM   14  O   UNL     1      -7.881   7.782  69.103  1.00  0.00    -0.109 OA 
BRANCH  12  15
HETATM   15  C   UNL     1      -9.861   7.370  67.691  1.00  0.00    -0.154 C  
BRANCH  15  16
HETATM   16  N   UNL     1      -9.239   6.211  67.039  1.00  0.00    -0.120 N  
HETATM   17  C   UNL     1      -8.657   6.267  65.793  1.00  0.00    -0.150 C  
HETATM   18  O   UNL     1      -8.606   7.274  65.097  1.00  0.00    -0.070 OA 
HETATM   19  H   UNL     1      -9.239   5.319  67.534  1.00  0.00     0.000 HD 
BRANCH  17  20
HETATM   20  C   UNL     1      -8.108   4.997  65.262  1.00  0.00    -0.117 A  
HETATM   21  C   UNL     1      -8.974   4.174  64.520  1.00  0.00    -0.142 A  
HETATM   22  H   UNL     1      -4.890   1.944  65.035  1.00  0.00     0.000 HD 
HETATM   23  C   UNL     1      -6.785   4.593  65.545  1.00  0.00    -0.052 A  
HETATM   24  C   UNL     1      -6.391   3.328  65.084  1.00  0.00    -0.031 A  
HETATM   25  C   UNL     1      -8.534   2.949  64.035  1.00  0.00    -0.086 A  
HETATM   26  C   UNL     1      -5.800   5.451  66.299  1.00  0.00    -0.018 C  
HETATM   27  O   UNL     1      -5.157   2.800  65.347  1.00  0.00    -0.007 OA 
HETATM   28  C   UNL     1      -7.241   2.526  64.325  1.00  0.00    -0.054 A  
ENDBRANCH  17  20
ENDBRANCH  15  16
BRANCH  15  29
HETATM   29  C   UNL     1     -10.930   6.963  68.749  1.00  0.00    -0.157 C  
BRANCH  29  30
HETATM   30  S   UNL     1     -10.557   5.452  69.714  1.00  0.00    -0.198 SA 
BRANCH  30  31
HETATM   31  C   UNL     1     -10.581   5.996  71.406  1.00  0.00    -0.246 A  
HETATM   32  C   UNL     1     -10.529   5.331  73.745  1.00  0.00    -0.304 A  
HETATM   33  C   UNL     1     -10.631   5.002  72.393  1.00  0.00    -0.275 A  
HETATM   34  C   UNL     1     -10.332   7.660  73.150  1.00  0.00    -0.411 A  
HETATM   35  C   UNL     1     -10.372   6.663  74.123  1.00  0.00    -0.347 A  
HETATM   36  C   UNL     1     -10.436   7.328  71.795  1.00  0.00    -0.218 A  
ENDBRANCH  30  31
ENDBRANCH  29  30
ENDBRANCH  15  29
ENDBRANCH  12  15
ENDBRANCH  11  12
ENDBRANCH   8  11
BRANCH   9  37
HETATM   37  C   UNL     1      -7.876  12.182  67.341  1.00  0.00    -0.168 C  
HETATM   38  C   UNL     1      -7.307  15.274  67.403  1.00  0.00    -0.241 C  
HETATM   39  O   UNL     1      -6.679  12.171  67.066  1.00  0.00    -0.140 OA 
HETATM   40  C   UNL     1      -8.762  15.191  69.422  1.00  0.00    -0.173 C  
HETATM   41  C   UNL     1      -7.762  14.389  68.572  1.00  0.00    -0.135 C  
HETATM   42  N   UNL     1      -8.461  13.190  68.091  1.00  0.00    -0.167 N  
HETATM   43  C   UNL     1      -6.555  14.028  69.450  1.00  0.00    -0.118 C  
HETATM   44  H   UNL     1      -9.449  13.092  68.325  1.00  0.00     0.000 HD 
ENDBRANCH   9  37
TORSDOF 9
ENDMDL
MODEL      174
REMARK 921   NORMALIZED FREE ENERGY PREDICTED BY IDOCK:   -4.49 KCAL/MOL
REMARK 922        TOTAL FREE ENERGY PREDICTED BY IDOCK:   -9.69 KCAL/MOL
REMARK 923 INTER-LIGAND FREE ENERGY PREDICTED BY IDOCK:   -7.28 KCAL/MOL
REMARK 924 INTRA-LIGAND FREE ENERGY PREDICTED BY IDOCK:   -2.41 KCAL/MOL
REMARK 927      BINDING AFFINITY PREDICTED BY RF-SCORE:    0.00 PKD
ROOT
HETATM    1  C   UNL     1     -11.456  13.164  66.958  1.00  0.00    -0.379 C  
HETATM    2  C   UNL     1     -10.975  14.233  65.971  1.00  0.00    -0.312 C  
HETATM    3  C   UNL     1      -9.464  14.194  65.784  1.00  0.00    -0.070 C  
HETATM    4  C   UNL     1      -8.746  14.382  67.114  1.00  0.00    -0.243 C  
HETATM    5  C   UNL     1      -9.201  13.390  68.184  1.00  0.00    -0.215 C  
HETATM    6  C   UNL     1     -10.727  13.249  68.301  1.00  0.00    -0.267 C  
HETATM    7  C   UNL     1     -11.157  12.058  69.174  1.00  0.00    -0.215 C  
HETATM    8  N   UNL     1     -10.768  10.747  68.642  1.00  0.00    -0.193 NA 
HETATM    9  C   UNL     1     -10.974  10.579  67.191  1.00  0.00    -0.228 C  
HETATM   10  C   UNL     1     -11.434  11.767  66.325  1.00  0.00    -0.296 C  
ENDROOT
BRANCH   8  11
HETATM   11  C   UNL     1     -11.376   9.652  69.440  1.00  0.00     0.002 C  
BRANCH  11  12
HETATM   12  C   UNL     1     -11.143   9.603  70.986  1.00  0.00    -0.368 C  
HETATM   13  H   UNL     1     -12.112  10.148  72.639  1.00  0.00     0.000 HD 
HETATM   14  O   UNL     1     -12.254  10.177  71.701  1.00  0.00    -0.382 OA 
BRANCH  12  15
HETATM   15  C   UNL     1     -10.800   8.192  71.534  1.00  0.00    -0.238 C  
BRANCH  15  16
HETATM   16  N   UNL     1     -10.467   7.221  70.484  1.00  0.00    -0.214 N  
HETATM   17  C   UNL     1     -10.698   5.870  70.603  1.00  0.00    -0.285 C  
HETATM   18  O   UNL     1     -11.190   5.335  71.590  1.00  0.00    -0.073 OA 
HETATM   19  H   UNL     1     -10.042   7.566  69.624  1.00  0.00     0.000 HD 
BRANCH  17  20
HETATM   20  C   UNL     1     -10.267   5.023  69.466  1.00  0.00    -0.286 A  
HETATM   21  C   UNL     1      -9.625   3.808  69.767  1.00  0.00    -0.253 A  
HETATM   22  H   UNL     1      -9.582   4.397  65.122  1.00  0.00     0.000 HD 
HETATM   23  C   UNL     1     -10.432   5.447  68.129  1.00  0.00    -0.188 A  
HETATM   24  C   UNL     1      -9.900   4.623  67.127  1.00  0.00    -0.195 A  
HETATM   25  C   UNL     1      -9.154   2.992  68.746  1.00  0.00    -0.211 A  
HETATM   26  C   UNL     1     -11.150   6.717  67.746  1.00  0.00    -0.285 C  
HETATM   27  O   UNL     1      -9.943   4.955  65.801  1.00  0.00    -0.182 OA 
HETATM   28  C   UNL     1      -9.289   3.406  67.425  1.00  0.00    -0.243 A  
ENDBRANCH  17  20
ENDBRANCH  15  16
BRANCH  15  29
HETATM   29  C   UNL     1      -9.752   8.215  72.687  1.00  0.00    -0.290 C  
BRANCH  29  30
HETATM   30  S   UNL     1      -8.051   8.687  72.205  1.00  0.00     0.029 SA 
BRANCH  30  31
HETATM   31  C   UNL     1      -7.327   7.176  71.612  1.00  0.00    -0.085 A  
HETATM   32  C   UNL     1      -6.771   4.864  72.122  1.00  0.00    -0.051 A  
HETATM   33  C   UNL     1      -7.211   6.123  72.530  1.00  0.00    -0.085 A  
HETATM   34  C   UNL     1      -6.546   5.687  69.867  1.00  0.00    -0.046 A  
HETATM   35  C   UNL     1      -6.444   4.645  70.786  1.00  0.00    -0.030 A  
HETATM   36  C   UNL     1      -6.986   6.950  70.277  1.00  0.00    -0.066 A  
ENDBRANCH  30  31
ENDBRANCH  29  30
ENDBRANCH  15  29
ENDBRANCH  12  15
ENDBRANCH  11  12
ENDBRANCH   8  11
BRANCH   9  37
HETATM   37  C   UNL     1      -9.679   9.980  66.559  1.00  0.00    -0.200 C  
HETATM   38  C   UNL     1      -7.070  10.555  64.900  1.00  0.00     0.028 C  
HETATM   39  O   UNL     1      -9.657   8.967  65.863  1.00  0.00    -0.251 OA 
HETATM   40  C   UNL     1      -6.208  11.328  67.105  1.00  0.00    -0.096 C  
HETATM   41  C   UNL     1      -7.181  10.355  66.418  1.00  0.00    -0.119 C  
HETATM   42  N   UNL     1      -8.532  10.678  66.900  1.00  0.00    -0.126 N  
HETATM   43  C   UNL     1      -6.776   8.920  66.785  1.00  0.00    -0.072 C  
HETATM   44  H   UNL     1      -8.632  11.473  67.530  1.00  0.00     0.000 HD 
ENDBRANCH   9  37
TORSDOF 9
ENDMDL
MODEL      175
REMARK 921   NORMALIZED FREE ENERGY PREDICTED BY IDOCK:   -4.47 KCAL/MOL
REMARK 922        TOTAL FREE ENERGY PREDICTED BY IDOCK:   -9.66 KCAL/MOL
REMARK 923 INTER-LIGAND FREE ENERGY PREDICTED BY IDOCK:   -7.60 KCAL/MOL
REMARK 924 INTRA-LIGAND FREE ENERGY PREDICTED BY IDOCK:   -2.06 KCAL/MOL
REMARK 927      BINDING AFFINITY PREDICTED BY RF-SCORE:    0.00 PKD
ROOT
HETATM    1  C   UNL     1     -10.954  11.621  65.346  1.00  0.00    -0.328 C  
HETATM    2  C   UNL     1     -11.156  12.407  64.046  1.00  0.00    -0.452 C  
HETATM    3  C   UNL     1     -11.143  13.912  64.286  1.00  0.00    -0.250 C  
HETATM    4  C   UNL     1     -12.221  14.312  65.286  1.00  0.00    -0.414 C  
HETATM    5  C   UNL     1     -12.134  13.537  66.600  1.00  0.00    -0.447 C  
HETATM    6  C   UNL     1     -11.964  12.020  66.424  1.00  0.00    -0.096 C  
HETATM    7  C   UNL     1     -11.600  11.298  67.733  1.00  0.00    -0.230 C  
HETATM    8  N   UNL     1     -10.304  11.688  68.299  1.00  0.00    -0.193 NA 
HETATM    9  C   UNL     1      -9.210  11.814  67.318  1.00  0.00    -0.173 C  
HETATM   10  C   UNL     1      -9.493  11.671  65.810  1.00  0.00    -0.244 C  
ENDROOT
BRANCH   8  11
HETATM   11  C   UNL     1      -9.947  10.821  69.450  1.00  0.00    -0.110 C  
BRANCH  11  12
HETATM   12  C   UNL     1      -8.652   9.944  69.383  1.00  0.00    -0.174 C  
HETATM   13  H   UNL     1      -6.846   9.919  70.224  1.00  0.00     0.000 HD 
HETATM   14  O   UNL     1      -7.632  10.451  70.265  1.00  0.00    -0.180 OA 
BRANCH  12  15
HETATM   15  C   UNL     1      -8.894   8.431  69.627  1.00  0.00    -0.141 C  
BRANCH  15  16
HETATM   16  N   UNL     1      -8.543   7.589  68.476  1.00  0.00    -0.129 N  
HETATM   17  C   UNL     1      -9.318   7.495  67.343  1.00  0.00    -0.140 C  
HETATM   18  O   UNL     1     -10.379   8.087  67.178  1.00  0.00    -0.267 OA 
HETATM   19  H   UNL     1      -7.681   7.045  68.519  1.00  0.00     0.000 HD 
BRANCH  17  20
HETATM   20  C   UNL     1      -8.840   6.569  66.289  1.00  0.00    -0.154 A  
HETATM   21  C   UNL     1      -7.683   6.935  65.578  1.00  0.00    -0.101 A  
HETATM   22  H   UNL     1      -9.395   3.003  63.701  1.00  0.00     0.000 HD 
HETATM   23  C   UNL     1      -9.555   5.396  65.963  1.00  0.00    -0.149 A  
HETATM   24  C   UNL     1      -9.078   4.638  64.883  1.00  0.00    -0.154 A  
HETATM   25  C   UNL     1      -7.211   6.134  64.547  1.00  0.00    -0.064 A  
HETATM   26  C   UNL     1     -10.775   4.932  66.717  1.00  0.00    -0.020 C  
HETATM   27  O   UNL     1      -9.718   3.516  64.432  1.00  0.00    -0.152 OA 
HETATM   28  C   UNL     1      -7.916   4.987  64.197  1.00  0.00    -0.105 A  
ENDBRANCH  17  20
ENDBRANCH  15  16
BRANCH  15  29
HETATM   29  C   UNL     1      -8.277   7.914  70.960  1.00  0.00    -0.100 C  
BRANCH  29  30
HETATM   30  S   UNL     1      -7.669   6.187  70.939  1.00  0.00    -0.100 SA 
BRANCH  30  31
HETATM   31  C   UNL     1      -8.853   5.294  71.918  1.00  0.00    -0.135 A  
HETATM   32  C   UNL     1     -10.718   5.444  73.471  1.00  0.00    -0.331 A  
HETATM   33  C   UNL     1      -9.681   6.048  72.761  1.00  0.00    -0.164 A  
HETATM   34  C   UNL     1     -10.116   3.314  72.516  1.00  0.00    -0.229 A  
HETATM   35  C   UNL     1     -10.940   4.076  73.342  1.00  0.00    -0.342 A  
HETATM   36  C   UNL     1      -9.075   3.920  71.805  1.00  0.00    -0.169 A  
ENDBRANCH  30  31
ENDBRANCH  29  30
ENDBRANCH  15  29
ENDBRANCH  12  15
ENDBRANCH  11  12
ENDBRANCH   8  11
BRANCH   9  37
HETATM   37  C   UNL     1      -8.466  13.166  67.555  1.00  0.00    -0.198 C  
HETATM   38  C   UNL     1      -7.791  15.456  69.601  1.00  0.00    -0.149 C  
HETATM   39  O   UNL     1      -8.542  14.135  66.803  1.00  0.00    -0.181 OA 
HETATM   40  C   UNL     1      -6.078  13.828  70.387  1.00  0.00    -0.128 C  
HETATM   41  C   UNL     1      -6.878  14.303  69.162  1.00  0.00    -0.120 C  
HETATM   42  N   UNL     1      -7.662  13.156  68.683  1.00  0.00    -0.244 N  
HETATM   43  C   UNL     1      -5.890  14.799  68.096  1.00  0.00    -0.142 C  
HETATM   44  H   UNL     1      -7.611  12.290  69.219  1.00  0.00     0.000 HD 
ENDBRANCH   9  37
TORSDOF 9
ENDMDL
MODEL      176
REMARK 921   NORMALIZED FREE ENERGY PREDICTED BY IDOCK:   -4.43 KCAL/MOL
REMARK 922        TOTAL FREE ENERGY PREDICTED BY IDOCK:   -9.59 KCAL/MOL
REMARK 923 INTER-LIGAND FREE ENERGY PREDICTED BY IDOCK:   -8.35 KCAL/MOL
REMARK 924 INTRA-LIGAND FREE ENERGY PREDICTED BY IDOCK:   -1.24 KCAL/MOL
REMARK 927      BINDING AFFINITY PREDICTED BY RF-SCORE:    0.00 PKD
ROOT
HETATM    1  C   UNL     1      -6.868   5.974  72.964  1.00  0.00    -0.079 C  
HETATM    2  C   UNL     1      -5.616   5.148  73.280  1.00  0.00    -0.022 C  
HETATM    3  C   UNL     1      -5.698   3.747  72.687  1.00  0.00    -0.007 C  
HETATM    4  C   UNL     1      -6.927   3.009  73.202  1.00  0.00    -0.039 C  
HETATM    5  C   UNL     1      -8.225   3.784  72.979  1.00  0.00    -0.090 C  
HETATM    6  C   UNL     1      -8.152   5.263  73.394  1.00  0.00    -0.111 C  
HETATM    7  C   UNL     1      -9.359   6.085  72.909  1.00  0.00    -0.147 C  
HETATM    8  N   UNL     1      -9.478   6.181  71.450  1.00  0.00    -0.156 NA 
HETATM    9  C   UNL     1      -8.211   6.432  70.739  1.00  0.00    -0.125 C  
HETATM   10  C   UNL     1      -6.874   6.445  71.504  1.00  0.00    -0.067 C  
ENDROOT
BRANCH   8  11
HETATM   11  C   UNL     1     -10.550   7.135  71.069  1.00  0.00    -0.221 C  
BRANCH  11  12
HETATM   12  C   UNL     1     -10.363   8.662  71.360  1.00  0.00    -0.261 C  
HETATM   13  H   UNL     1      -9.123   9.820  72.403  1.00  0.00     0.000 HD 
HETATM   14  O   UNL     1      -9.237   8.894  72.227  1.00  0.00    -0.376 OA 
BRANCH  12  15
HETATM   15  C   UNL     1     -10.275   9.546  70.087  1.00  0.00    -0.246 C  
BRANCH  15  16
HETATM   16  N   UNL     1     -10.684  10.938  70.311  1.00  0.00    -0.390 N  
HETATM   17  C   UNL     1     -11.753  11.524  69.672  1.00  0.00    -0.351 C  
HETATM   18  O   UNL     1     -12.463  10.959  68.849  1.00  0.00    -0.431 OA 
HETATM   19  H   UNL     1     -10.149  11.499  70.974  1.00  0.00     0.000 HD 
BRANCH  17  20
HETATM   20  C   UNL     1     -12.008  12.950  69.983  1.00  0.00    -0.380 A  
HETATM   21  C   UNL     1     -11.421  13.914  69.143  1.00  0.00    -0.345 A  
HETATM   22  H   UNL     1     -13.570  16.127  72.666  1.00  0.00     0.000 HD 
HETATM   23  C   UNL     1     -12.756  13.332  71.118  1.00  0.00    -0.404 A  
HETATM   24  C   UNL     1     -12.856  14.705  71.384  1.00  0.00    -0.330 A  
HETATM   25  C   UNL     1     -11.583  15.268  69.409  1.00  0.00    -0.347 A  
HETATM   26  C   UNL     1     -13.443  12.345  72.029  1.00  0.00    -0.460 C  
HETATM   27  O   UNL     1     -13.502  15.197  72.486  1.00  0.00    -0.383 OA 
HETATM   28  C   UNL     1     -12.298  15.661  70.536  1.00  0.00    -0.443 A  
ENDBRANCH  17  20
ENDBRANCH  15  16
BRANCH  15  29
HETATM   29  C   UNL     1      -8.906   9.433  69.351  1.00  0.00    -0.159 C  
BRANCH  29  30
HETATM   30  S   UNL     1      -8.792  10.306  67.746  1.00  0.00    -0.124 SA 
BRANCH  30  31
HETATM   31  C   UNL     1      -7.938  11.817  68.129  1.00  0.00    -0.146 A  
HETATM   32  C   UNL     1      -6.051  12.839  69.274  1.00  0.00    -0.099 A  
HETATM   33  C   UNL     1      -6.854  11.728  69.014  1.00  0.00    -0.106 A  
HETATM   34  C   UNL     1      -7.406  14.154  67.774  1.00  0.00    -0.177 A  
HETATM   35  C   UNL     1      -6.324  14.052  68.647  1.00  0.00    -0.089 A  
HETATM   36  C   UNL     1      -8.211  13.040  67.515  1.00  0.00    -0.181 A  
ENDBRANCH  30  31
ENDBRANCH  29  30
ENDBRANCH  15  29
ENDBRANCH  12  15
ENDBRANCH  11  12
ENDBRANCH   8  11
BRANCH   9  37
HETATM   37  C   UNL     1      -8.089   5.429  69.548  1.00  0.00    -0.096 C  
HETATM   38  C   UNL     1      -9.521   3.214  67.836  1.00  0.00    -0.215 C  
HETATM   39  O   UNL     1      -7.147   4.656  69.393  1.00  0.00    -0.049 OA 
HETATM   40  C   UNL     1     -10.532   5.183  66.696  1.00  0.00    -0.328 C  
HETATM   41  C   UNL     1      -9.289   4.682  67.451  1.00  0.00    -0.143 C  
HETATM   42  N   UNL     1      -9.133   5.527  68.643  1.00  0.00    -0.116 N  
HETATM   43  C   UNL     1      -8.075   4.788  66.517  1.00  0.00    -0.107 C  
HETATM   44  H   UNL     1      -9.845   6.236  68.816  1.00  0.00     0.000 HD 
ENDBRANCH   9  37
TORSDOF 9
ENDMDL
MODEL      177
REMARK 921   NORMALIZED FREE ENERGY PREDICTED BY IDOCK:   -4.39 KCAL/MOL
REMARK 922        TOTAL FREE ENERGY PREDICTED BY IDOCK:   -9.54 KCAL/MOL
REMARK 923 INTER-LIGAND FREE ENERGY PREDICTED BY IDOCK:   -7.66 KCAL/MOL
REMARK 924 INTRA-LIGAND FREE ENERGY PREDICTED BY IDOCK:   -1.88 KCAL/MOL
REMARK 927      BINDING AFFINITY PREDICTED BY RF-SCORE:    0.00 PKD
ROOT
HETATM    1  C   UNL     1     -10.578  17.247  67.060  1.00  0.00    -0.231 C  
HETATM    2  C   UNL     1     -11.014  18.675  66.715  1.00  0.00    -0.041 C  
HETATM    3  C   UNL     1     -10.033  19.712  67.250  1.00  0.00    -0.518 C  
HETATM    4  C   UNL     1      -9.878  19.587  68.759  1.00  0.00    -0.532 C  
HETATM    5  C   UNL     1      -9.495  18.176  69.205  1.00  0.00     0.101 C  
HETATM    6  C   UNL     1     -10.336  17.064  68.559  1.00  0.00    -0.359 C  
HETATM    7  C   UNL     1      -9.761  15.657  68.799  1.00  0.00    -0.212 C  
HETATM    8  N   UNL     1      -8.443  15.432  68.198  1.00  0.00    -0.145 NA 
HETATM    9  C   UNL     1      -8.286  15.957  66.829  1.00  0.00    -0.271 C  
HETATM   10  C   UNL     1      -9.407  16.792  66.179  1.00  0.00    -0.288 C  
ENDROOT
BRANCH   8  11
HETATM   11  C   UNL     1      -8.044  14.006  68.316  1.00  0.00    -0.148 C  
BRANCH  11  12
HETATM   12  C   UNL     1      -7.376  13.289  67.096  1.00  0.00     0.094 C  
HETATM   13  H   UNL     1      -5.533  12.903  66.443  1.00  0.00     0.000 HD 
HETATM   14  O   UNL     1      -5.939  13.338  67.184  1.00  0.00    -0.304 OA 
BRANCH  12  15
HETATM   15  C   UNL     1      -7.868  11.835  66.864  1.00  0.00    -0.141 C  
BRANCH  15  16
HETATM   16  N   UNL     1      -7.664  10.956  68.024  1.00  0.00    -0.099 N  
HETATM   17  C   UNL     1      -6.931   9.794  67.971  1.00  0.00    -0.077 C  
HETATM   18  O   UNL     1      -6.385   9.363  66.962  1.00  0.00    -0.064 OA 
HETATM   19  H   UNL     1      -8.089  11.222  68.912  1.00  0.00     0.000 HD 
BRANCH  17  20
HETATM   20  C   UNL     1      -6.856   9.002  69.222  1.00  0.00    -0.050 A  
HETATM   21  C   UNL     1      -7.316   7.674  69.181  1.00  0.00    -0.089 A  
HETATM   22  H   UNL     1      -6.154   8.702  73.598  1.00  0.00     0.000 HD 
HETATM   23  C   UNL     1      -6.402   9.578  70.429  1.00  0.00    -0.073 A  
HETATM   24  C   UNL     1      -6.464   8.779  71.580  1.00  0.00    -0.075 A  
HETATM   25  C   UNL     1      -7.316   6.896  70.330  1.00  0.00    -0.081 A  
HETATM   26  C   UNL     1      -5.858  10.981  70.525  1.00  0.00    -0.134 C  
HETATM   27  O   UNL     1      -6.112   9.243  72.818  1.00  0.00    -0.292 OA 
HETATM   28  C   UNL     1      -6.895   7.454  71.533  1.00  0.00    -0.054 A  
ENDBRANCH  17  20
ENDBRANCH  15  16
BRANCH  15  29
HETATM   29  C   UNL     1      -9.316  11.756  66.297  1.00  0.00    -0.225 C  
BRANCH  29  30
HETATM   30  S   UNL     1     -10.640  11.481  67.533  1.00  0.00    -0.217 SA 
BRANCH  30  31
HETATM   31  C   UNL     1     -10.618   9.727  67.815  1.00  0.00    -0.266 A  
HETATM   32  C   UNL     1     -10.193   7.530  66.862  1.00  0.00    -0.359 A  
HETATM   33  C   UNL     1     -10.351   8.908  66.709  1.00  0.00    -0.317 A  
HETATM   34  C   UNL     1     -10.573   7.761  69.231  1.00  0.00    -0.199 A  
HETATM   35  C   UNL     1     -10.297   6.958  68.127  1.00  0.00    -0.223 A  
HETATM   36  C   UNL     1     -10.733   9.142  69.077  1.00  0.00    -0.176 A  
ENDBRANCH  30  31
ENDBRANCH  29  30
ENDBRANCH  15  29
ENDBRANCH  12  15
ENDBRANCH  11  12
ENDBRANCH   8  11
BRANCH   9  37
HETATM   37  C   UNL     1      -6.954  16.767  66.743  1.00  0.00    -0.234 C  
HETATM   38  C   UNL     1      -5.126  18.615  64.974  1.00  0.00    -0.204 C  
HETATM   39  O   UNL     1      -5.854  16.319  67.056  1.00  0.00    -0.304 OA 
HETATM   40  C   UNL     1      -6.709  20.383  65.728  1.00  0.00    -0.271 C  
HETATM   41  C   UNL     1      -6.054  19.047  66.118  1.00  0.00    -0.175 C  
HETATM   42  N   UNL     1      -7.137  18.074  66.321  1.00  0.00    -0.248 N  
HETATM   43  C   UNL     1      -5.235  19.260  67.399  1.00  0.00    -0.160 C  
HETATM   44  H   UNL     1      -8.091  18.383  66.137  1.00  0.00     0.000 HD 
ENDBRANCH   9  37
TORSDOF 9
ENDMDL
MODEL      178
REMARK 921   NORMALIZED FREE ENERGY PREDICTED BY IDOCK:   -4.38 KCAL/MOL
REMARK 922        TOTAL FREE ENERGY PREDICTED BY IDOCK:   -9.52 KCAL/MOL
REMARK 923 INTER-LIGAND FREE ENERGY PREDICTED BY IDOCK:   -8.31 KCAL/MOL
REMARK 924 INTRA-LIGAND FREE ENERGY PREDICTED BY IDOCK:   -1.21 KCAL/MOL
REMARK 927      BINDING AFFINITY PREDICTED BY RF-SCORE:    0.00 PKD
ROOT
HETATM    1  C   UNL     1      -6.173   7.284  72.297  1.00  0.00    -0.043 C  
HETATM    2  C   UNL     1      -6.447   6.221  73.366  1.00  0.00    -0.065 C  
HETATM    3  C   UNL     1      -7.898   5.758  73.348  1.00  0.00    -0.109 C  
HETATM    4  C   UNL     1      -8.846   6.932  73.556  1.00  0.00    -0.161 C  
HETATM    5  C   UNL     1      -8.612   8.072  72.565  1.00  0.00    -0.227 C  
HETATM    6  C   UNL     1      -7.136   8.468  72.403  1.00  0.00    -0.079 C  
HETATM    7  C   UNL     1      -6.893   9.411  71.211  1.00  0.00     0.025 C  
HETATM    8  N   UNL     1      -7.197   8.821  69.903  1.00  0.00    -0.050 NA 
HETATM    9  C   UNL     1      -6.730   7.435  69.722  1.00  0.00    -0.044 C  
HETATM   10  C   UNL     1      -6.100   6.663  70.897  1.00  0.00    -0.028 C  
ENDROOT
BRANCH   8  11
HETATM   11  C   UNL     1      -6.764   9.722  68.804  1.00  0.00    -0.050 C  
BRANCH  11  12
HETATM   12  C   UNL     1      -7.807  10.189  67.734  1.00  0.00    -0.098 C  
HETATM   13  H   UNL     1      -8.830   9.383  66.226  1.00  0.00     0.000 HD 
HETATM   14  O   UNL     1      -8.198   9.100  66.876  1.00  0.00    -0.114 OA 
BRANCH  12  15
HETATM   15  C   UNL     1      -9.051  10.902  68.326  1.00  0.00    -0.158 C  
BRANCH  15  16
HETATM   16  N   UNL     1      -9.712  11.810  67.380  1.00  0.00    -0.178 N  
HETATM   17  C   UNL     1      -9.166  13.005  66.972  1.00  0.00    -0.232 C  
HETATM   18  O   UNL     1      -8.088  13.442  67.358  1.00  0.00    -0.167 OA 
HETATM   19  H   UNL     1     -10.622  11.541  67.006  1.00  0.00     0.000 HD 
BRANCH  17  20
HETATM   20  C   UNL     1      -9.981  13.821  66.041  1.00  0.00    -0.319 A  
HETATM   21  C   UNL     1      -9.910  15.220  66.169  1.00  0.00    -0.333 A  
HETATM   22  H   UNL     1     -13.124  14.190  62.924  1.00  0.00     0.000 HD 
HETATM   23  C   UNL     1     -10.849  13.219  65.104  1.00  0.00    -0.323 A  
HETATM   24  C   UNL     1     -11.654  14.075  64.338  1.00  0.00    -0.369 A  
HETATM   25  C   UNL     1     -10.686  16.039  65.359  1.00  0.00    -0.399 A  
HETATM   26  C   UNL     1     -10.936  11.729  64.893  1.00  0.00    -0.358 C  
HETATM   27  O   UNL     1     -12.578  13.611  63.442  1.00  0.00    -0.799 OA 
HETATM   28  C   UNL     1     -11.563  15.462  64.447  1.00  0.00    -0.265 A  
ENDBRANCH  17  20
ENDBRANCH  15  16
BRANCH  15  29
HETATM   29  C   UNL     1     -10.049   9.928  69.021  1.00  0.00    -0.189 C  
BRANCH  29  30
HETATM   30  S   UNL     1     -11.383  10.717  69.996  1.00  0.00    -0.314 SA 
BRANCH  30  31
HETATM   31  C   UNL     1     -12.180   9.362  70.825  1.00  0.00    -0.162 A  
HETATM   32  C   UNL     1     -14.134   8.620  72.067  1.00  0.00    -0.523 A  
HETATM   33  C   UNL     1     -13.378   9.643  71.496  1.00  0.00    -0.468 A  
HETATM   34  C   UNL     1     -12.503   7.011  71.315  1.00  0.00    -0.430 A  
HETATM   35  C   UNL     1     -13.698   7.300  71.970  1.00  0.00    -0.212 A  
HETATM   36  C   UNL     1     -11.745   8.038  70.743  1.00  0.00    -0.215 A  
ENDBRANCH  30  31
ENDBRANCH  29  30
ENDBRANCH  15  29
ENDBRANCH  12  15
ENDBRANCH  11  12
ENDBRANCH   8  11
BRANCH   9  37
HETATM   37  C   UNL     1      -7.896   6.577  69.137  1.00  0.00    -0.110 C  
HETATM   38  C   UNL     1      -9.175   5.313  66.557  1.00  0.00    -0.139 C  
HETATM   39  O   UNL     1      -9.084   6.766  69.389  1.00  0.00    -0.143 OA 
HETATM   40  C   UNL     1      -7.440   3.566  66.925  1.00  0.00    -0.075 C  
HETATM   41  C   UNL     1      -8.341   4.597  67.627  1.00  0.00    -0.103 C  
HETATM   42  N   UNL     1      -7.459   5.537  68.333  1.00  0.00    -0.076 N  
HETATM   43  C   UNL     1      -9.269   3.852  68.598  1.00  0.00    -0.211 C  
HETATM   44  H   UNL     1      -6.452   5.415  68.223  1.00  0.00     0.000 HD 
ENDBRANCH   9  37
TORSDOF 9
ENDMDL
MODEL      179
REMARK 921   NORMALIZED FREE ENERGY PREDICTED BY IDOCK:   -4.35 KCAL/MOL
REMARK 922        TOTAL FREE ENERGY PREDICTED BY IDOCK:   -9.47 KCAL/MOL
REMARK 923 INTER-LIGAND FREE ENERGY PREDICTED BY IDOCK:   -6.96 KCAL/MOL
REMARK 924 INTRA-LIGAND FREE ENERGY PREDICTED BY IDOCK:   -2.51 KCAL/MOL
REMARK 927      BINDING AFFINITY PREDICTED BY RF-SCORE:    0.00 PKD
ROOT
HETATM    1  C   UNL     1     -11.459  11.321  67.408  1.00  0.00    -0.300 C  
HETATM    2  C   UNL     1     -11.797  12.480  66.465  1.00  0.00    -0.434 C  
HETATM    3  C   UNL     1     -11.268  13.810  66.988  1.00  0.00    -0.326 C  
HETATM    4  C   UNL     1     -11.827  14.111  68.372  1.00  0.00    -0.388 C  
HETATM    5  C   UNL     1     -11.585  12.983  69.373  1.00  0.00    -0.360 C  
HETATM    6  C   UNL     1     -11.934  11.584  68.839  1.00  0.00    -0.364 C  
HETATM    7  C   UNL     1     -11.427  10.449  69.745  1.00  0.00    -0.280 C  
HETATM    8  N   UNL     1      -9.966  10.377  69.864  1.00  0.00    -0.133 NA 
HETATM    9  C   UNL     1      -9.231  10.556  68.599  1.00  0.00    -0.172 C  
HETATM   10  C   UNL     1      -9.980  10.928  67.305  1.00  0.00    -0.216 C  
ENDROOT
BRANCH   8  11
HETATM   11  C   UNL     1      -9.556   9.153  70.599  1.00  0.00    -0.255 C  
BRANCH  11  12
HETATM   12  C   UNL     1      -9.792   7.749  69.951  1.00  0.00    -0.177 C  
HETATM   13  H   UNL     1     -10.519   7.017  68.247  1.00  0.00     0.000 HD 
HETATM   14  O   UNL     1     -10.376   7.869  68.640  1.00  0.00    -0.203 OA 
BRANCH  12  15
HETATM   15  C   UNL     1      -8.530   6.845  69.915  1.00  0.00    -0.140 C  
BRANCH  15  16
HETATM   16  N   UNL     1      -8.563   5.837  68.847  1.00  0.00    -0.106 N  
HETATM   17  C   UNL     1      -9.290   4.672  68.930  1.00  0.00    -0.141 C  
HETATM   18  O   UNL     1      -9.972   4.347  69.895  1.00  0.00    -0.222 OA 
HETATM   19  H   UNL     1      -8.018   6.009  68.002  1.00  0.00     0.000 HD 
BRANCH  17  20
HETATM   20  C   UNL     1      -9.183   3.743  67.780  1.00  0.00    -0.216 A  
HETATM   21  C   UNL     1      -8.419   2.575  67.956  1.00  0.00    -0.097 A  
HETATM   22  H   UNL     1      -9.825   2.768  63.494  1.00  0.00     0.000 HD 
HETATM   23  C   UNL     1      -9.770   4.047  66.532  1.00  0.00    -0.211 A  
HETATM   24  C   UNL     1      -9.527   3.155  65.478  1.00  0.00    -0.077 A  
HETATM   25  C   UNL     1      -8.241   1.688  66.902  1.00  0.00    -0.077 A  
HETATM   26  C   UNL     1     -10.634   5.261  66.297  1.00  0.00    -0.308 C  
HETATM   27  O   UNL     1      -9.989   3.372  64.209  1.00  0.00    -0.164 OA 
HETATM   28  C   UNL     1      -8.793   1.984  65.660  1.00  0.00    -0.121 A  
ENDBRANCH  17  20
ENDBRANCH  15  16
BRANCH  15  29
HETATM   29  C   UNL     1      -7.195   7.647  69.943  1.00  0.00    -0.072 C  
BRANCH  29  30
HETATM   30  S   UNL     1      -6.026   7.294  68.579  1.00  0.00    -0.027 SA 
BRANCH  30  31
HETATM   31  C   UNL     1      -6.639   8.255  67.216  1.00  0.00    -0.058 A  
HETATM   32  C   UNL     1      -6.303  10.206  65.804  1.00  0.00    -0.102 A  
HETATM   33  C   UNL     1      -5.969   9.452  66.929  1.00  0.00    -0.059 A  
HETATM   34  C   UNL     1      -7.993   8.584  65.234  1.00  0.00    -0.120 A  
HETATM   35  C   UNL     1      -7.312   9.767  64.952  1.00  0.00    -0.129 A  
HETATM   36  C   UNL     1      -7.658   7.830  66.362  1.00  0.00    -0.092 A  
ENDBRANCH  30  31
ENDBRANCH  29  30
ENDBRANCH  15  29
ENDBRANCH  12  15
ENDBRANCH  11  12
ENDBRANCH   8  11
BRANCH   9  37
HETATM   37  C   UNL     1      -8.084  11.593  68.819  1.00  0.00    -0.072 C  
HETATM   38  C   UNL     1      -5.933  13.443  67.463  1.00  0.00    -0.050 C  
HETATM   39  O   UNL     1      -7.157  11.437  69.612  1.00  0.00    -0.080 OA 
HETATM   40  C   UNL     1      -7.884  14.955  67.141  1.00  0.00    -0.203 C  
HETATM   41  C   UNL     1      -7.287  13.866  68.048  1.00  0.00    -0.141 C  
HETATM   42  N   UNL     1      -8.235  12.744  68.063  1.00  0.00    -0.157 N  
HETATM   43  C   UNL     1      -7.085  14.457  69.451  1.00  0.00    -0.113 C  
HETATM   44  H   UNL     1      -9.065  12.817  67.474  1.00  0.00     0.000 HD 
ENDBRANCH   9  37
TORSDOF 9
ENDMDL
MODEL      180
REMARK 921   NORMALIZED FREE ENERGY PREDICTED BY IDOCK:   -4.30 KCAL/MOL
REMARK 922        TOTAL FREE ENERGY PREDICTED BY IDOCK:   -9.40 KCAL/MOL
REMARK 923 INTER-LIGAND FREE ENERGY PREDICTED BY IDOCK:   -7.58 KCAL/MOL
REMARK 924 INTRA-LIGAND FREE ENERGY PREDICTED BY IDOCK:   -1.82 KCAL/MOL
REMARK 927      BINDING AFFINITY PREDICTED BY RF-SCORE:    0.00 PKD
ROOT
HETATM    1  C   UNL     1     -10.964  12.204  64.595  1.00  0.00    -0.359 C  
HETATM    2  C   UNL     1     -11.692  13.169  63.654  1.00  0.00    -0.505 C  
HETATM    3  C   UNL     1     -12.104  14.452  64.366  1.00  0.00    -0.491 C  
HETATM    4  C   UNL     1     -12.999  14.147  65.560  1.00  0.00    -0.303 C  
HETATM    5  C   UNL     1     -12.377  13.146  66.532  1.00  0.00    -0.252 C  
HETATM    6  C   UNL     1     -11.778  11.903  65.855  1.00  0.00    -0.208 C  
HETATM    7  C   UNL     1     -10.919  11.053  66.807  1.00  0.00    -0.217 C  
HETATM    8  N   UNL     1      -9.722  11.734  67.312  1.00  0.00    -0.178 NA 
HETATM    9  C   UNL     1      -8.975  12.508  66.304  1.00  0.00    -0.003 C  
HETATM   10  C   UNL     1      -9.530  12.670  64.875  1.00  0.00     0.309 C  
ENDROOT
BRANCH   8  11
HETATM   11  C   UNL     1      -8.858  10.792  68.070  1.00  0.00    -0.132 C  
BRANCH  11  12
HETATM   12  C   UNL     1      -8.371   9.472  67.385  1.00  0.00    -0.125 C  
HETATM   13  H   UNL     1      -6.939   8.913  66.118  1.00  0.00     0.000 HD 
HETATM   14  O   UNL     1      -7.235   9.714  66.534  1.00  0.00    -0.088 OA 
BRANCH  12  15
HETATM   15  C   UNL     1      -8.086   8.310  68.374  1.00  0.00    -0.127 C  
BRANCH  15  16
HETATM   16  N   UNL     1      -9.057   8.223  69.472  1.00  0.00    -0.153 N  
HETATM   17  C   UNL     1     -10.383   7.907  69.285  1.00  0.00    -0.220 C  
HETATM   18  O   UNL     1     -10.894   7.677  68.195  1.00  0.00    -0.110 OA 
HETATM   19  H   UNL     1      -8.732   8.408  70.421  1.00  0.00     0.000 HD 
BRANCH  17  20
HETATM   20  C   UNL     1     -11.238   7.900  70.495  1.00  0.00    -0.259 A  
HETATM   21  C   UNL     1     -11.362   6.687  71.197  1.00  0.00    -0.355 A  
HETATM   22  H   UNL     1     -14.195   9.845  73.179  1.00  0.00     0.000 HD 
HETATM   23  C   UNL     1     -11.957   9.048  70.893  1.00  0.00    -0.274 A  
HETATM   24  C   UNL     1     -12.817   8.914  71.992  1.00  0.00    -0.397 A  
HETATM   25  C   UNL     1     -12.186   6.604  72.312  1.00  0.00    -0.185 A  
HETATM   26  C   UNL     1     -11.830  10.385  70.205  1.00  0.00    -0.399 C  
HETATM   27  O   UNL     1     -13.611   9.936  72.435  1.00  0.00    -0.378 OA 
HETATM   28  C   UNL     1     -12.919   7.720  72.704  1.00  0.00     0.292 A  
ENDBRANCH  17  20
ENDBRANCH  15  16
BRANCH  15  29
HETATM   29  C   UNL     1      -7.854   6.941  67.667  1.00  0.00    -0.112 C  
BRANCH  29  30
HETATM   30  S   UNL     1      -6.481   5.927  68.329  1.00  0.00    -0.048 SA 
BRANCH  30  31
HETATM   31  C   UNL     1      -7.292   4.572  69.146  1.00  0.00    -0.052 A  
HETATM   32  C   UNL     1      -9.354   3.311  69.408  1.00  0.00    -0.232 A  
HETATM   33  C   UNL     1      -8.664   4.416  68.909  1.00  0.00    -0.114 A  
HETATM   34  C   UNL     1      -7.313   2.500  70.401  1.00  0.00    -0.033 A  
HETATM   35  C   UNL     1      -8.675   2.348  70.150  1.00  0.00    -0.121 A  
HETATM   36  C   UNL     1      -6.622   3.608  69.901  1.00  0.00    -0.033 A  
ENDBRANCH  30  31
ENDBRANCH  29  30
ENDBRANCH  15  29
ENDBRANCH  12  15
ENDBRANCH  11  12
ENDBRANCH   8  11
BRANCH   9  37
HETATM   37  C   UNL     1      -8.666  13.927  66.877  1.00  0.00    -0.158 C  
HETATM   38  C   UNL     1      -7.968  16.921  66.215  1.00  0.00    -0.350 C  
HETATM   39  O   UNL     1      -7.855  14.146  67.774  1.00  0.00    -0.139 OA 
HETATM   40  C   UNL     1     -10.423  17.087  65.833  1.00  0.00    -0.282 C  
HETATM   41  C   UNL     1      -9.332  16.355  66.633  1.00  0.00    -0.259 C  
HETATM   42  N   UNL     1      -9.439  14.926  66.307  1.00  0.00    -0.297 N  
HETATM   43  C   UNL     1      -9.566  16.615  68.128  1.00  0.00    -0.228 C  
HETATM   44  H   UNL     1     -10.131  14.650  65.611  1.00  0.00     0.000 HD 
ENDBRANCH   9  37
TORSDOF 9
ENDMDL
MODEL      181
REMARK 921   NORMALIZED FREE ENERGY PREDICTED BY IDOCK:   -4.29 KCAL/MOL
REMARK 922        TOTAL FREE ENERGY PREDICTED BY IDOCK:   -9.39 KCAL/MOL
REMARK 923 INTER-LIGAND FREE ENERGY PREDICTED BY IDOCK:   -7.37 KCAL/MOL
REMARK 924 INTRA-LIGAND FREE ENERGY PREDICTED BY IDOCK:   -2.02 KCAL/MOL
REMARK 927      BINDING AFFINITY PREDICTED BY RF-SCORE:    0.00 PKD
ROOT
HETATM    1  C   UNL     1      -5.867   5.741  68.953  1.00  0.00    -0.016 C  
HETATM    2  C   UNL     1      -5.565   5.051  67.619  1.00  0.00    -0.013 C  
HETATM    3  C   UNL     1      -6.544   5.468  66.530  1.00  0.00    -0.056 C  
HETATM    4  C   UNL     1      -7.978   5.158  66.939  1.00  0.00    -0.104 C  
HETATM    5  C   UNL     1      -8.357   5.762  68.290  1.00  0.00    -0.107 C  
HETATM    6  C   UNL     1      -7.316   5.528  69.397  1.00  0.00    -0.066 C  
HETATM    7  C   UNL     1      -7.576   6.372  70.657  1.00  0.00    -0.103 C  
HETATM    8  N   UNL     1      -7.479   7.820  70.446  1.00  0.00    -0.076 NA 
HETATM    9  C   UNL     1      -6.338   8.252  69.617  1.00  0.00    -0.036 C  
HETATM   10  C   UNL     1      -5.430   7.211  68.934  1.00  0.00    -0.018 C  
ENDROOT
BRANCH   8  11
HETATM   11  C   UNL     1      -7.559   8.549  71.738  1.00  0.00    -0.114 C  
BRANCH  11  12
HETATM   12  C   UNL     1      -8.577   8.075  72.828  1.00  0.00    -0.192 C  
HETATM   13  H   UNL     1      -8.756   8.158  74.811  1.00  0.00     0.000 HD 
HETATM   14  O   UNL     1      -8.138   8.446  74.149  1.00  0.00    -0.294 OA 
BRANCH  12  15
HETATM   15  C   UNL     1     -10.038   8.539  72.580  1.00  0.00    -0.249 C  
BRANCH  15  16
HETATM   16  N   UNL     1     -10.220   9.239  71.302  1.00  0.00    -0.319 N  
HETATM   17  C   UNL     1     -11.390   9.870  70.946  1.00  0.00    -0.370 C  
HETATM   18  O   UNL     1     -12.397   9.907  71.643  1.00  0.00    -0.372 OA 
HETATM   19  H   UNL     1      -9.441   9.257  70.644  1.00  0.00     0.000 HD 
BRANCH  17  20
HETATM   20  C   UNL     1     -11.421  10.496  69.603  1.00  0.00    -0.349 A  
HETATM   21  C   UNL     1     -10.977   9.724  68.514  1.00  0.00    -0.195 A  
HETATM   22  H   UNL     1     -11.946  14.038  66.974  1.00  0.00     0.000 HD 
HETATM   23  C   UNL     1     -11.819  11.840  69.428  1.00  0.00    -0.398 A  
HETATM   24  C   UNL     1     -11.718  12.372  68.135  1.00  0.00    -0.353 A  
HETATM   25  C   UNL     1     -10.937  10.269  67.238  1.00  0.00    -0.277 A  
HETATM   26  C   UNL     1     -12.344  12.701  70.549  1.00  0.00    -0.350 C  
HETATM   27  O   UNL     1     -12.015  13.677  67.850  1.00  0.00    -0.358 OA 
HETATM   28  C   UNL     1     -11.304  11.598  67.052  1.00  0.00    -0.373 A  
ENDBRANCH  17  20
ENDBRANCH  15  16
BRANCH  15  29
HETATM   29  C   UNL     1     -11.089   7.412  72.804  1.00  0.00    -0.346 C  
BRANCH  29  30
HETATM   30  S   UNL     1     -10.970   5.976  71.673  1.00  0.00    -0.272 SA 
BRANCH  30  31
HETATM   31  C   UNL     1     -10.342   4.665  72.696  1.00  0.00    -0.196 A  
HETATM   32  C   UNL     1      -8.365   3.519  73.528  1.00  0.00    -0.079 A  
HETATM   33  C   UNL     1      -8.959   4.442  72.667  1.00  0.00    -0.127 A  
HETATM   34  C   UNL     1     -10.531   3.015  74.460  1.00  0.00    -0.207 A  
HETATM   35  C   UNL     1      -9.153   2.809  74.431  1.00  0.00    -0.093 A  
HETATM   36  C   UNL     1     -11.125   3.940  73.596  1.00  0.00    -0.328 A  
ENDBRANCH  30  31
ENDBRANCH  29  30
ENDBRANCH  15  29
ENDBRANCH  12  15
ENDBRANCH  11  12
ENDBRANCH   8  11
BRANCH   9  37
HETATM   37  C   UNL     1      -6.848   9.250  68.531  1.00  0.00    -0.062 C  
HETATM   38  C   UNL     1      -7.837  12.173  67.922  1.00  0.00    -0.147 C  
HETATM   39  O   UNL     1      -7.742   8.996  67.726  1.00  0.00    -0.095 OA 
HETATM   40  C   UNL     1      -5.397  12.667  67.913  1.00  0.00    -0.098 C  
HETATM   41  C   UNL     1      -6.451  11.582  67.634  1.00  0.00    -0.067 C  
HETATM   42  N   UNL     1      -6.157  10.451  68.526  1.00  0.00    -0.044 N  
HETATM   43  C   UNL     1      -6.355  11.178  66.155  1.00  0.00    -0.056 C  
HETATM   44  H   UNL     1      -5.391  10.558  69.189  1.00  0.00     0.000 HD 
ENDBRANCH   9  37
TORSDOF 9
ENDMDL
MODEL      182
REMARK 921   NORMALIZED FREE ENERGY PREDICTED BY IDOCK:   -4.28 KCAL/MOL
REMARK 922        TOTAL FREE ENERGY PREDICTED BY IDOCK:   -9.37 KCAL/MOL
REMARK 923 INTER-LIGAND FREE ENERGY PREDICTED BY IDOCK:   -7.41 KCAL/MOL
REMARK 924 INTRA-LIGAND FREE ENERGY PREDICTED BY IDOCK:   -1.97 KCAL/MOL
REMARK 927      BINDING AFFINITY PREDICTED BY RF-SCORE:    0.00 PKD
ROOT
HETATM    1  C   UNL     1      -9.589  13.447  65.436  1.00  0.00     0.089 C  
HETATM    2  C   UNL     1     -10.518  14.290  64.557  1.00  0.00    -0.172 C  
HETATM    3  C   UNL     1     -11.975  14.162  64.985  1.00  0.00    -0.412 C  
HETATM    4  C   UNL     1     -12.428  12.709  64.942  1.00  0.00    -0.564 C  
HETATM    5  C   UNL     1     -11.526  11.777  65.750  1.00  0.00    -0.258 C  
HETATM    6  C   UNL     1     -10.024  11.981  65.495  1.00  0.00    -0.267 C  
HETATM    7  C   UNL     1      -9.134  11.241  66.509  1.00  0.00    -0.184 C  
HETATM    8  N   UNL     1      -9.276  11.709  67.892  1.00  0.00    -0.165 NA 
HETATM    9  C   UNL     1      -9.336  13.174  68.049  1.00  0.00    -0.219 C  
HETATM   10  C   UNL     1      -9.382  14.092  66.812  1.00  0.00    -0.289 C  
ENDROOT
BRANCH   8  11
HETATM   11  C   UNL     1      -8.258  11.078  68.770  1.00  0.00    -0.146 C  
BRANCH  11  12
HETATM   12  C   UNL     1      -7.611   9.717  68.346  1.00  0.00    -0.080 C  
HETATM   13  H   UNL     1      -5.911   9.091  67.519  1.00  0.00     0.000 HD 
HETATM   14  O   UNL     1      -6.303   9.916  67.776  1.00  0.00    -0.055 OA 
BRANCH  12  15
HETATM   15  C   UNL     1      -7.567   8.654  69.476  1.00  0.00    -0.088 C  
BRANCH  15  16
HETATM   16  N   UNL     1      -8.897   8.228  69.931  1.00  0.00    -0.137 N  
HETATM   17  C   UNL     1      -9.365   8.445  71.207  1.00  0.00    -0.187 C  
HETATM   18  O   UNL     1      -8.726   8.999  72.094  1.00  0.00    -0.368 OA 
HETATM   19  H   UNL     1      -9.504   7.747  69.268  1.00  0.00     0.000 HD 
BRANCH  17  20
HETATM   20  C   UNL     1     -10.715   7.917  71.515  1.00  0.00    -0.267 A  
HETATM   21  C   UNL     1     -10.822   6.552  71.839  1.00  0.00    -0.273 A  
HETATM   22  H   UNL     1     -15.131   8.373  71.653  1.00  0.00     0.000 HD 
HETATM   23  C   UNL     1     -11.862   8.735  71.422  1.00  0.00    -0.369 A  
HETATM   24  C   UNL     1     -13.104   8.119  71.633  1.00  0.00    -0.335 A  
HETATM   25  C   UNL     1     -12.065   5.987  72.091  1.00  0.00    -0.201 A  
HETATM   26  C   UNL     1     -11.805  10.211  71.121  1.00  0.00    -0.472 C  
HETATM   27  O   UNL     1     -14.289   8.791  71.511  1.00  0.00    -0.377 OA 
HETATM   28  C   UNL     1     -13.207   6.773  71.981  1.00  0.00    -0.091 A  
ENDBRANCH  17  20
ENDBRANCH  15  16
BRANCH  15  29
HETATM   29  C   UNL     1      -6.628   7.453  69.157  1.00  0.00    -0.040 C  
BRANCH  29  30
HETATM   30  S   UNL     1      -6.420   6.227  70.501  1.00  0.00    -0.045 SA 
BRANCH  30  31
HETATM   31  C   UNL     1      -7.357   4.818  69.958  1.00  0.00    -0.054 A  
HETATM   32  C   UNL     1      -9.419   3.550  70.186  1.00  0.00    -0.252 A  
HETATM   33  C   UNL     1      -8.561   4.559  70.626  1.00  0.00    -0.118 A  
HETATM   34  C   UNL     1      -7.879   3.033  68.405  1.00  0.00    -0.059 A  
HETATM   35  C   UNL     1      -9.080   2.791  69.069  1.00  0.00    -0.202 A  
HETATM   36  C   UNL     1      -7.019   4.043  68.847  1.00  0.00    -0.047 A  
ENDBRANCH  30  31
ENDBRANCH  29  30
ENDBRANCH  15  29
ENDBRANCH  12  15
ENDBRANCH  11  12
ENDBRANCH   8  11
BRANCH   9  37
HETATM   37  C   UNL     1     -10.536  13.538  68.978  1.00  0.00    -0.098 C  
HETATM   38  C   UNL     1     -11.434  14.726  71.749  1.00  0.00    -0.139 C  
HETATM   39  O   UNL     1     -11.468  12.777  69.231  1.00  0.00    -0.274 OA 
HETATM   40  C   UNL     1     -11.055  16.898  70.592  1.00  0.00     0.429 C  
HETATM   41  C   UNL     1     -11.458  15.428  70.384  1.00  0.00    -0.330 C  
HETATM   42  N   UNL     1     -10.479  14.835  69.462  1.00  0.00    -0.368 N  
HETATM   43  C   UNL     1     -12.879  15.390  69.804  1.00  0.00     0.080 C  
HETATM   44  H   UNL     1      -9.701  15.419  69.157  1.00  0.00     0.000 HD 
ENDBRANCH   9  37
TORSDOF 9
ENDMDL
MODEL      183
REMARK 921   NORMALIZED FREE ENERGY PREDICTED BY IDOCK:   -4.26 KCAL/MOL
REMARK 922        TOTAL FREE ENERGY PREDICTED BY IDOCK:   -9.34 KCAL/MOL
REMARK 923 INTER-LIGAND FREE ENERGY PREDICTED BY IDOCK:   -7.96 KCAL/MOL
REMARK 924 INTRA-LIGAND FREE ENERGY PREDICTED BY IDOCK:   -1.38 KCAL/MOL
REMARK 927      BINDING AFFINITY PREDICTED BY RF-SCORE:    0.00 PKD
ROOT
HETATM    1  C   UNL     1      -8.304  17.328  68.790  1.00  0.00    -0.228 C  
HETATM    2  C   UNL     1      -8.980  18.698  68.896  1.00  0.00    -0.215 C  
HETATM    3  C   UNL     1      -9.818  19.014  67.663  1.00  0.00    -0.395 C  
HETATM    4  C   UNL     1      -8.966  18.973  66.401  1.00  0.00    -0.331 C  
HETATM    5  C   UNL     1      -8.207  17.657  66.237  1.00  0.00    -0.264 C  
HETATM    6  C   UNL     1      -7.481  17.188  67.508  1.00  0.00    -0.180 C  
HETATM    7  C   UNL     1      -6.963  15.743  67.408  1.00  0.00    -0.202 C  
HETATM    8  N   UNL     1      -8.016  14.731  67.265  1.00  0.00    -0.200 NA 
HETATM    9  C   UNL     1      -9.188  14.927  68.139  1.00  0.00    -0.186 C  
HETATM   10  C   UNL     1      -9.308  16.190  69.014  1.00  0.00    -0.248 C  
ENDROOT
BRANCH   8  11
HETATM   11  C   UNL     1      -7.450  13.362  67.361  1.00  0.00    -0.123 C  
BRANCH  11  12
HETATM   12  C   UNL     1      -8.209  12.270  68.186  1.00  0.00    -0.168 C  
HETATM   13  H   UNL     1      -9.652  10.931  67.879  1.00  0.00     0.000 HD 
HETATM   14  O   UNL     1      -9.191  11.593  67.378  1.00  0.00    -0.164 OA 
BRANCH  12  15
HETATM   15  C   UNL     1      -7.280  11.250  68.899  1.00  0.00    -0.112 C  
BRANCH  15  16
HETATM   16  N   UNL     1      -7.909   9.942  69.123  1.00  0.00    -0.096 N  
HETATM   17  C   UNL     1      -7.850   9.271  70.322  1.00  0.00    -0.141 C  
HETATM   18  O   UNL     1      -7.263   9.680  71.318  1.00  0.00    -0.329 OA 
HETATM   19  H   UNL     1      -8.415   9.510  68.350  1.00  0.00     0.000 HD 
BRANCH  17  20
HETATM   20  C   UNL     1      -8.505   7.943  70.370  1.00  0.00    -0.131 A  
HETATM   21  C   UNL     1      -7.881   6.936  71.129  1.00  0.00    -0.100 A  
HETATM   22  H   UNL     1     -11.583   5.072  68.951  1.00  0.00     0.000 HD 
HETATM   23  C   UNL     1      -9.676   7.674  69.628  1.00  0.00    -0.171 A  
HETATM   24  C   UNL     1     -10.163   6.360  69.657  1.00  0.00    -0.189 A  
HETATM   25  C   UNL     1      -8.420   5.657  71.175  1.00  0.00    -0.127 A  
HETATM   26  C   UNL     1     -10.411   8.723  68.831  1.00  0.00    -0.229 C  
HETATM   27  O   UNL     1     -11.253   5.962  68.931  1.00  0.00    -0.291 OA 
HETATM   28  C   UNL     1      -9.560   5.370  70.431  1.00  0.00    -0.233 A  
ENDBRANCH  17  20
ENDBRANCH  15  16
BRANCH  15  29
HETATM   29  C   UNL     1      -5.871  11.136  68.243  1.00  0.00    -0.045 C  
BRANCH  29  30
HETATM   30  S   UNL     1      -5.844  10.512  66.522  1.00  0.00    -0.085 SA 
BRANCH  30  31
HETATM   31  C   UNL     1      -6.232   8.785  66.675  1.00  0.00    -0.058 A  
HETATM   32  C   UNL     1      -7.774   6.998  66.087  1.00  0.00    -0.095 A  
HETATM   33  C   UNL     1      -7.446   8.354  66.122  1.00  0.00    -0.088 A  
HETATM   34  C   UNL     1      -5.682   6.477  67.167  1.00  0.00    -0.013 A  
HETATM   35  C   UNL     1      -6.887   6.058  66.605  1.00  0.00    -0.062 A  
HETATM   36  C   UNL     1      -5.355   7.836  67.203  1.00  0.00    -0.031 A  
ENDBRANCH  30  31
ENDBRANCH  29  30
ENDBRANCH  15  29
ENDBRANCH  12  15
ENDBRANCH  11  12
ENDBRANCH   8  11
BRANCH   9  37
HETATM   37  C   UNL     1     -10.488  14.794  67.285  1.00  0.00    -0.264 C  
HETATM   38  C   UNL     1     -11.819  15.206  64.465  1.00  0.00    -0.335 C  
HETATM   39  O   UNL     1     -11.592  15.199  67.642  1.00  0.00    -0.336 OA 
HETATM   40  C   UNL     1     -10.695  13.043  63.960  1.00  0.00    -0.387 C  
HETATM   41  C   UNL     1     -11.329  13.887  65.078  1.00  0.00    -0.334 C  
HETATM   42  N   UNL     1     -10.288  14.123  66.089  1.00  0.00    -0.291 N  
HETATM   43  C   UNL     1     -12.519  13.110  65.660  1.00  0.00    -0.485 C  
HETATM   44  H   UNL     1      -9.352  13.768  65.896  1.00  0.00     0.000 HD 
ENDBRANCH   9  37
TORSDOF 9
ENDMDL
MODEL      184
REMARK 921   NORMALIZED FREE ENERGY PREDICTED BY IDOCK:   -4.21 KCAL/MOL
REMARK 922        TOTAL FREE ENERGY PREDICTED BY IDOCK:   -9.27 KCAL/MOL
REMARK 923 INTER-LIGAND FREE ENERGY PREDICTED BY IDOCK:   -8.39 KCAL/MOL
REMARK 924 INTRA-LIGAND FREE ENERGY PREDICTED BY IDOCK:   -0.88 KCAL/MOL
REMARK 927      BINDING AFFINITY PREDICTED BY RF-SCORE:    0.00 PKD
ROOT
HETATM    1  C   UNL     1      -9.975   7.780  67.775  1.00  0.00    -0.220 C  
HETATM    2  C   UNL     1     -10.854   6.545  67.551  1.00  0.00    -0.433 C  
HETATM    3  C   UNL     1     -10.619   5.481  68.616  1.00  0.00    -0.215 C  
HETATM    4  C   UNL     1      -9.157   5.056  68.647  1.00  0.00    -0.139 C  
HETATM    5  C   UNL     1      -8.196   6.232  68.813  1.00  0.00    -0.120 C  
HETATM    6  C   UNL     1      -8.492   7.420  67.884  1.00  0.00    -0.122 C  
HETATM    7  C   UNL     1      -7.702   8.687  68.255  1.00  0.00    -0.101 C  
HETATM    8  N   UNL     1      -8.031   9.240  69.573  1.00  0.00    -0.091 NA 
HETATM    9  C   UNL     1      -9.470   9.273  69.892  1.00  0.00    -0.197 C  
HETATM   10  C   UNL     1     -10.497   8.635  68.937  1.00  0.00    -0.211 C  
ENDROOT
BRANCH   8  11
HETATM   11  C   UNL     1      -7.367  10.553  69.776  1.00  0.00    -0.134 C  
BRANCH  11  12
HETATM   12  C   UNL     1      -7.199  11.528  68.563  1.00  0.00    -0.096 C  
HETATM   13  H   UNL     1      -6.575  11.432  66.674  1.00  0.00     0.000 HD 
HETATM   14  O   UNL     1      -6.677  10.841  67.410  1.00  0.00    -0.072 OA 
BRANCH  12  15
HETATM   15  C   UNL     1      -8.482  12.323  68.202  1.00  0.00    -0.176 C  
BRANCH  15  16
HETATM   16  N   UNL     1      -8.265  13.772  68.103  1.00  0.00    -0.150 N  
HETATM   17  C   UNL     1      -8.881  14.686  68.927  1.00  0.00    -0.136 C  
HETATM   18  O   UNL     1      -9.676  14.396  69.813  1.00  0.00     0.300 OA 
HETATM   19  H   UNL     1      -7.626  14.118  67.388  1.00  0.00     0.000 HD 
BRANCH  17  20
HETATM   20  C   UNL     1      -8.582  16.114  68.669  1.00  0.00    -0.210 A  
HETATM   21  C   UNL     1      -7.251  16.540  68.826  1.00  0.00    -0.197 A  
HETATM   22  H   UNL     1      -9.900  20.282  67.880  1.00  0.00     0.000 HD 
HETATM   23  C   UNL     1      -9.605  17.032  68.343  1.00  0.00    -0.277 A  
HETATM   24  C   UNL     1      -9.239  18.379  68.217  1.00  0.00    -0.316 A  
HETATM   25  C   UNL     1      -6.915  17.875  68.645  1.00  0.00    -0.252 A  
HETATM   26  C   UNL     1     -11.041  16.626  68.120  1.00  0.00    -0.285 C  
HETATM   27  O   UNL     1     -10.149  19.369  67.965  1.00  0.00    -0.363 OA 
HETATM   28  C   UNL     1      -7.915  18.795  68.346  1.00  0.00    -0.365 A  
ENDBRANCH  17  20
ENDBRANCH  15  16
BRANCH  15  29
HETATM   29  C   UNL     1      -9.241  11.743  66.971  1.00  0.00    -0.187 C  
BRANCH  29  30
HETATM   30  S   UNL     1     -11.061  11.639  67.137  1.00  0.00    -0.312 SA 
BRANCH  30  31
HETATM   31  C   UNL     1     -11.679  12.343  65.626  1.00  0.00    -0.414 A  
HETATM   32  C   UNL     1     -12.175  14.384  64.401  1.00  0.00    -0.481 A  
HETATM   33  C   UNL     1     -11.816  13.737  65.583  1.00  0.00    -0.383 A  
HETATM   34  C   UNL     1     -12.276  12.252  63.279  1.00  0.00    -0.528 A  
HETATM   35  C   UNL     1     -12.399  13.639  63.245  1.00  0.00    -0.037 A  
HETATM   36  C   UNL     1     -11.918  11.604  64.466  1.00  0.00    -0.091 A  
ENDBRANCH  30  31
ENDBRANCH  29  30
ENDBRANCH  15  29
ENDBRANCH  12  15
ENDBRANCH  11  12
ENDBRANCH   8  11
BRANCH   9  37
HETATM   37  C   UNL     1      -9.689   8.680  71.320  1.00  0.00    -0.237 C  
HETATM   38  C   UNL     1      -9.994   6.071  73.050  1.00  0.00    -0.186 C  
HETATM   39  O   UNL     1     -10.566   9.055  72.095  1.00  0.00    -0.324 OA 
HETATM   40  C   UNL     1      -7.508   6.054  72.905  1.00  0.00    -0.094 C  
HETATM   41  C   UNL     1      -8.750   6.962  72.921  1.00  0.00    -0.122 C  
HETATM   42  N   UNL     1      -8.759   7.710  71.656  1.00  0.00    -0.114 N  
HETATM   43  C   UNL     1      -8.654   7.899  74.134  1.00  0.00    -0.296 C  
HETATM   44  H   UNL     1      -8.028   7.499  70.977  1.00  0.00     0.000 HD 
ENDBRANCH   9  37
TORSDOF 9
ENDMDL
MODEL      185
REMARK 921   NORMALIZED FREE ENERGY PREDICTED BY IDOCK:   -4.21 KCAL/MOL
REMARK 922        TOTAL FREE ENERGY PREDICTED BY IDOCK:   -9.26 KCAL/MOL
REMARK 923 INTER-LIGAND FREE ENERGY PREDICTED BY IDOCK:   -7.69 KCAL/MOL
REMARK 924 INTRA-LIGAND FREE ENERGY PREDICTED BY IDOCK:   -1.56 KCAL/MOL
REMARK 927      BINDING AFFINITY PREDICTED BY RF-SCORE:    0.00 PKD
ROOT
HETATM    1  C   UNL     1     -10.780  12.127  64.638  1.00  0.00    -0.346 C  
HETATM    2  C   UNL     1     -11.469  13.135  63.712  1.00  0.00    -0.426 C  
HETATM    3  C   UNL     1     -11.917  14.381  64.464  1.00  0.00    -0.487 C  
HETATM    4  C   UNL     1     -12.863  14.020  65.602  1.00  0.00    -0.442 C  
HETATM    5  C   UNL     1     -12.281  12.974  66.553  1.00  0.00    -0.316 C  
HETATM    6  C   UNL     1     -11.648  11.766  65.845  1.00  0.00    -0.200 C  
HETATM    7  C   UNL     1     -10.829  10.873  66.793  1.00  0.00    -0.224 C  
HETATM    8  N   UNL     1      -9.658  11.531  67.383  1.00  0.00    -0.168 NA 
HETATM    9  C   UNL     1      -8.870  12.352  66.446  1.00  0.00    -0.046 C  
HETATM   10  C   UNL     1      -9.361  12.581  65.004  1.00  0.00     0.383 C  
ENDROOT
BRANCH   8  11
HETATM   11  C   UNL     1      -8.826  10.556  68.133  1.00  0.00    -0.134 C  
BRANCH  11  12
HETATM   12  C   UNL     1      -7.909   9.560  67.347  1.00  0.00    -0.102 C  
HETATM   13  H   UNL     1      -5.973   9.367  66.920  1.00  0.00     0.000 HD 
HETATM   14  O   UNL     1      -6.529   9.971  67.396  1.00  0.00    -0.066 OA 
BRANCH  12  15
HETATM   15  C   UNL     1      -8.062   8.077  67.780  1.00  0.00    -0.128 C  
BRANCH  15  16
HETATM   16  N   UNL     1      -8.708   7.913  69.089  1.00  0.00    -0.138 N  
HETATM   17  C   UNL     1      -8.222   7.083  70.073  1.00  0.00    -0.133 C  
HETATM   18  O   UNL     1      -7.217   6.390  69.962  1.00  0.00    -0.075 OA 
HETATM   19  H   UNL     1      -9.560   8.440  69.277  1.00  0.00     0.000 HD 
BRANCH  17  20
HETATM   20  C   UNL     1      -9.016   7.002  71.321  1.00  0.00    -0.137 A  
HETATM   21  C   UNL     1      -8.551   7.723  72.436  1.00  0.00    -0.176 A  
HETATM   22  H   UNL     1     -12.288   5.223  73.742  1.00  0.00     0.000 HD 
HETATM   23  C   UNL     1     -10.162   6.181  71.412  1.00  0.00    -0.248 A  
HETATM   24  C   UNL     1     -10.786   6.093  72.665  1.00  0.00    -0.245 A  
HETATM   25  C   UNL     1      -9.224   7.651  73.649  1.00  0.00    -0.339 A  
HETATM   26  C   UNL     1     -10.731   5.421  70.241  1.00  0.00    -0.286 C  
HETATM   27  O   UNL     1     -11.865   5.284  72.894  1.00  0.00    -0.271 OA 
HETATM   28  C   UNL     1     -10.340   6.828  73.761  1.00  0.00    -0.397 A  
ENDBRANCH  17  20
ENDBRANCH  15  16
BRANCH  15  29
HETATM   29  C   UNL     1      -8.695   7.175  66.679  1.00  0.00    -0.128 C  
BRANCH  29  30
HETATM   30  S   UNL     1      -7.660   6.886  65.197  1.00  0.00    -0.109 SA 
BRANCH  30  31
HETATM   31  C   UNL     1      -8.046   5.220  64.711  1.00  0.00    -0.124 A  
HETATM   32  C   UNL     1      -8.930   3.064  65.407  1.00  0.00    -0.143 A  
HETATM   33  C   UNL     1      -8.488   4.350  65.718  1.00  0.00    -0.114 A  
HETATM   34  C   UNL     1      -8.488   3.488  63.075  1.00  0.00    -0.089 A  
HETATM   35  C   UNL     1      -8.936   2.635  64.082  1.00  0.00    -0.108 A  
HETATM   36  C   UNL     1      -8.044   4.777  63.388  1.00  0.00    -0.097 A  
ENDBRANCH  30  31
ENDBRANCH  29  30
ENDBRANCH  15  29
ENDBRANCH  12  15
ENDBRANCH  11  12
ENDBRANCH   8  11
BRANCH   9  37
HETATM   37  C   UNL     1      -8.592  13.743  67.099  1.00  0.00    -0.198 C  
HETATM   38  C   UNL     1      -9.258  16.817  67.091  1.00  0.00    -0.233 C  
HETATM   39  O   UNL     1      -7.468  14.192  67.311  1.00  0.00    -0.167 OA 
HETATM   40  C   UNL     1     -11.251  16.075  68.387  1.00  0.00    -0.364 C  
HETATM   41  C   UNL     1      -9.780  15.754  68.069  1.00  0.00    -0.212 C  
HETATM   42  N   UNL     1      -9.747  14.414  67.467  1.00  0.00    -0.213 N  
HETATM   43  C   UNL     1      -8.975  15.810  69.375  1.00  0.00    -0.247 C  
HETATM   44  H   UNL     1     -10.638  13.944  67.308  1.00  0.00     0.000 HD 
ENDBRANCH   9  37
TORSDOF 9
ENDMDL
MODEL      186
REMARK 921   NORMALIZED FREE ENERGY PREDICTED BY IDOCK:   -4.15 KCAL/MOL
REMARK 922        TOTAL FREE ENERGY PREDICTED BY IDOCK:   -9.16 KCAL/MOL
REMARK 923 INTER-LIGAND FREE ENERGY PREDICTED BY IDOCK:   -7.12 KCAL/MOL
REMARK 924 INTRA-LIGAND FREE ENERGY PREDICTED BY IDOCK:   -2.04 KCAL/MOL
REMARK 927      BINDING AFFINITY PREDICTED BY RF-SCORE:    0.00 PKD
ROOT
HETATM    1  C   UNL     1     -11.216  12.120  66.088  1.00  0.00    -0.386 C  
HETATM    2  C   UNL     1     -12.061  13.359  65.774  1.00  0.00    -0.481 C  
HETATM    3  C   UNL     1     -11.987  14.394  66.891  1.00  0.00    -0.425 C  
HETATM    4  C   UNL     1     -12.445  13.798  68.216  1.00  0.00     0.275 C  
HETATM    5  C   UNL     1     -11.693  12.521  68.588  1.00  0.00    -0.368 C  
HETATM    6  C   UNL     1     -11.576  11.504  67.442  1.00  0.00    -0.307 C  
HETATM    7  C   UNL     1     -10.587  10.365  67.745  1.00  0.00    -0.250 C  
HETATM    8  N   UNL     1      -9.196  10.799  67.912  1.00  0.00    -0.148 NA 
HETATM    9  C   UNL     1      -8.734  11.796  66.928  1.00  0.00    -0.189 C  
HETATM   10  C   UNL     1      -9.719  12.404  65.911  1.00  0.00    -0.237 C  
ENDROOT
BRANCH   8  11
HETATM   11  C   UNL     1      -8.286   9.630  68.017  1.00  0.00    -0.117 C  
BRANCH  11  12
HETATM   12  C   UNL     1      -8.035   8.972  69.415  1.00  0.00    -0.100 C  
HETATM   13  H   UNL     1      -7.800   9.567  71.301  1.00  0.00     0.000 HD 
HETATM   14  O   UNL     1      -7.952   9.966  70.453  1.00  0.00    -0.190 OA 
BRANCH  12  15
HETATM   15  C   UNL     1      -9.054   7.863  69.788  1.00  0.00    -0.146 C  
BRANCH  15  16
HETATM   16  N   UNL     1      -8.676   6.531  69.299  1.00  0.00    -0.130 N  
HETATM   17  C   UNL     1      -9.592   5.555  68.979  1.00  0.00    -0.136 C  
HETATM   18  O   UNL     1     -10.806   5.685  69.079  1.00  0.00    -0.265 OA 
HETATM   19  H   UNL     1      -7.684   6.319  69.190  1.00  0.00     0.000 HD 
BRANCH  17  20
HETATM   20  C   UNL     1      -9.042   4.252  68.536  1.00  0.00    -0.175 A  
HETATM   21  C   UNL     1      -9.426   3.106  69.256  1.00  0.00    -0.179 A  
HETATM   22  H   UNL     1      -6.258   1.851  66.045  1.00  0.00     0.000 HD 
HETATM   23  C   UNL     1      -8.116   4.169  67.474  1.00  0.00    -0.095 A  
HETATM   24  C   UNL     1      -7.576   2.905  67.196  1.00  0.00    -0.070 A  
HETATM   25  C   UNL     1      -8.908   1.862  68.920  1.00  0.00    -0.135 A  
HETATM   26  C   UNL     1      -7.701   5.356  66.641  1.00  0.00    -0.100 C  
HETATM   27  O   UNL     1      -6.624   2.707  66.233  1.00  0.00    -0.031 OA 
HETATM   28  C   UNL     1      -7.977   1.765  67.891  1.00  0.00    -0.060 A  
ENDBRANCH  17  20
ENDBRANCH  15  16
BRANCH  15  29
HETATM   29  C   UNL     1      -9.439   7.862  71.298  1.00  0.00    -0.157 C  
BRANCH  29  30
HETATM   30  S   UNL     1      -8.257   7.025  72.419  1.00  0.00    -0.105 SA 
BRANCH  30  31
HETATM   31  C   UNL     1      -8.930   5.393  72.626  1.00  0.00    -0.132 A  
HETATM   32  C   UNL     1      -8.472   3.005  72.654  1.00  0.00    -0.077 A  
HETATM   33  C   UNL     1      -8.065   4.315  72.396  1.00  0.00    -0.096 A  
HETATM   34  C   UNL     1     -10.622   3.827  73.370  1.00  0.00    -0.279 A  
HETATM   35  C   UNL     1      -9.751   2.762  73.148  1.00  0.00    -0.155 A  
HETATM   36  C   UNL     1     -10.214   5.139  73.110  1.00  0.00    -0.214 A  
ENDBRANCH  30  31
ENDBRANCH  29  30
ENDBRANCH  15  29
ENDBRANCH  12  15
ENDBRANCH  11  12
ENDBRANCH   8  11
BRANCH   9  37
HETATM   37  C   UNL     1      -8.021  12.962  67.682  1.00  0.00    -0.167 C  
HETATM   38  C   UNL     1      -6.037  15.393  67.461  1.00  0.00    -0.095 C  
HETATM   39  O   UNL     1      -7.423  12.830  68.747  1.00  0.00    -0.111 OA 
HETATM   40  C   UNL     1      -8.052  16.561  66.580  1.00  0.00    -0.341 C  
HETATM   41  C   UNL     1      -7.570  15.446  67.524  1.00  0.00    -0.181 C  
HETATM   42  N   UNL     1      -8.167  14.188  67.054  1.00  0.00    -0.374 N  
HETATM   43  C   UNL     1      -8.020  15.789  68.952  1.00  0.00    -0.197 C  
HETATM   44  H   UNL     1      -8.728  14.220  66.203  1.00  0.00     0.000 HD 
ENDBRANCH   9  37
TORSDOF 9
ENDMDL
MODEL      187
REMARK 921   NORMALIZED FREE ENERGY PREDICTED BY IDOCK:   -4.14 KCAL/MOL
REMARK 922        TOTAL FREE ENERGY PREDICTED BY IDOCK:   -9.16 KCAL/MOL
REMARK 923 INTER-LIGAND FREE ENERGY PREDICTED BY IDOCK:   -6.94 KCAL/MOL
REMARK 924 INTRA-LIGAND FREE ENERGY PREDICTED BY IDOCK:   -2.22 KCAL/MOL
REMARK 927      BINDING AFFINITY PREDICTED BY RF-SCORE:    0.00 PKD
ROOT
HETATM    1  C   UNL     1      -5.761   6.397  64.998  1.00  0.00    -0.022 C  
HETATM    2  C   UNL     1      -5.870   5.001  64.374  1.00  0.00    -0.017 C  
HETATM    3  C   UNL     1      -6.748   4.075  65.206  1.00  0.00    -0.048 C  
HETATM    4  C   UNL     1      -6.212   3.948  66.626  1.00  0.00    -0.032 C  
HETATM    5  C   UNL     1      -6.017   5.298  67.314  1.00  0.00    -0.026 C  
HETATM    6  C   UNL     1      -5.290   6.343  66.452  1.00  0.00    -0.013 C  
HETATM    7  C   UNL     1      -5.352   7.761  67.045  1.00  0.00    -0.031 C  
HETATM    8  N   UNL     1      -6.704   8.323  67.131  1.00  0.00    -0.062 NA 
HETATM    9  C   UNL     1      -7.549   8.093  65.944  1.00  0.00    -0.082 C  
HETATM   10  C   UNL     1      -7.048   7.205  64.788  1.00  0.00    -0.068 C  
ENDROOT
BRANCH   8  11
HETATM   11  C   UNL     1      -6.659   9.750  67.537  1.00  0.00    -0.069 C  
BRANCH  11  12
HETATM   12  C   UNL     1      -6.907  10.135  69.033  1.00  0.00    -0.056 C  
HETATM   13  H   UNL     1      -6.374  11.588  70.288  1.00  0.00     0.000 HD 
HETATM   14  O   UNL     1      -6.224  11.355  69.380  1.00  0.00    -0.070 OA 
BRANCH  12  15
HETATM   15  C   UNL     1      -8.405  10.206  69.432  1.00  0.00    -0.168 C  
BRANCH  15  16
HETATM   16  N   UNL     1      -9.284  10.628  68.334  1.00  0.00    -0.152 N  
HETATM   17  C   UNL     1      -9.304  11.909  67.831  1.00  0.00    -0.187 C  
HETATM   18  O   UNL     1      -8.607  12.827  68.247  1.00  0.00    -0.177 OA 
HETATM   19  H   UNL     1      -9.913   9.937  67.924  1.00  0.00     0.000 HD 
BRANCH  17  20
HETATM   20  C   UNL     1     -10.278  12.179  66.748  1.00  0.00    -0.224 A  
HETATM   21  C   UNL     1     -11.456  12.868  67.089  1.00  0.00    -0.388 A  
HETATM   22  H   UNL     1     -11.728  11.607  62.589  1.00  0.00     0.000 HD 
HETATM   23  C   UNL     1     -10.067  11.706  65.435  1.00  0.00    -0.299 A  
HETATM   24  C   UNL     1     -11.093  11.924  64.504  1.00  0.00    -0.325 A  
HETATM   25  C   UNL     1     -12.430  13.110  66.130  1.00  0.00    -0.274 A  
HETATM   26  C   UNL     1      -8.806  11.000  65.001  1.00  0.00    -0.093 C  
HETATM   27  O   UNL     1     -11.033  11.460  63.219  1.00  0.00    -0.336 OA 
HETATM   28  C   UNL     1     -12.248  12.630  64.837  1.00  0.00    -0.531 A  
ENDBRANCH  17  20
ENDBRANCH  15  16
BRANCH  15  29
HETATM   29  C   UNL     1      -8.915   8.920  70.150  1.00  0.00    -0.172 C  
BRANCH  29  30
HETATM   30  S   UNL     1     -10.444   9.114  71.137  1.00  0.00    -0.338 SA 
BRANCH  30  31
HETATM   31  C   UNL     1     -10.486   7.667  72.169  1.00  0.00    -0.221 A  
HETATM   32  C   UNL     1     -11.580   5.546  72.634  1.00  0.00    -0.293 A  
HETATM   33  C   UNL     1     -11.538   6.765  71.958  1.00  0.00    -0.327 A  
HETATM   34  C   UNL     1      -9.521   6.110  73.755  1.00  0.00    -0.152 A  
HETATM   35  C   UNL     1     -10.566   5.216  73.530  1.00  0.00    -0.306 A  
HETATM   36  C   UNL     1      -9.480   7.332  73.077  1.00  0.00    -0.212 A  
ENDBRANCH  30  31
ENDBRANCH  29  30
ENDBRANCH  15  29
ENDBRANCH  12  15
ENDBRANCH  11  12
ENDBRANCH   8  11
BRANCH   9  37
HETATM   37  C   UNL     1      -8.942   7.561  66.406  1.00  0.00    -0.167 C  
HETATM   38  C   UNL     1     -11.095   5.285  66.134  1.00  0.00     0.123 C  
HETATM   39  O   UNL     1      -9.963   8.245  66.444  1.00  0.00    -0.252 OA 
HETATM   40  C   UNL     1      -9.584   4.090  67.712  1.00  0.00    -0.204 C  
HETATM   41  C   UNL     1     -10.084   5.477  67.273  1.00  0.00    -0.183 C  
HETATM   42  N   UNL     1      -8.912   6.240  66.821  1.00  0.00    -0.122 N  
HETATM   43  C   UNL     1     -10.772   6.149  68.470  1.00  0.00    -0.365 C  
HETATM   44  H   UNL     1      -8.011   5.762  66.813  1.00  0.00     0.000 HD 
ENDBRANCH   9  37
TORSDOF 9
ENDMDL
MODEL      188
REMARK 921   NORMALIZED FREE ENERGY PREDICTED BY IDOCK:   -4.12 KCAL/MOL
REMARK 922        TOTAL FREE ENERGY PREDICTED BY IDOCK:   -9.12 KCAL/MOL
REMARK 923 INTER-LIGAND FREE ENERGY PREDICTED BY IDOCK:   -7.70 KCAL/MOL
REMARK 924 INTRA-LIGAND FREE ENERGY PREDICTED BY IDOCK:   -1.42 KCAL/MOL
REMARK 927      BINDING AFFINITY PREDICTED BY RF-SCORE:    0.00 PKD
ROOT
HETATM    1  C   UNL     1      -9.202   3.907  65.200  1.00  0.00    -0.150 C  
HETATM    2  C   UNL     1      -9.376   2.545  64.520  1.00  0.00    -0.139 C  
HETATM    3  C   UNL     1      -8.522   1.469  65.179  1.00  0.00    -0.089 C  
HETATM    4  C   UNL     1      -7.049   1.855  65.156  1.00  0.00    -0.048 C  
HETATM    5  C   UNL     1      -6.782   3.230  65.768  1.00  0.00    -0.041 C  
HETATM    6  C   UNL     1      -7.734   4.331  65.274  1.00  0.00    -0.085 C  
HETATM    7  C   UNL     1      -7.634   5.627  66.098  1.00  0.00    -0.091 C  
HETATM    8  N   UNL     1      -8.034   5.483  67.502  1.00  0.00    -0.101 NA 
HETATM    9  C   UNL     1      -9.252   4.682  67.722  1.00  0.00    -0.126 C  
HETATM   10  C   UNL     1      -9.935   3.958  66.546  1.00  0.00    -0.023 C  
ENDROOT
BRANCH   8  11
HETATM   11  C   UNL     1      -8.086   6.806  68.175  1.00  0.00    -0.115 C  
BRANCH  11  12
HETATM   12  C   UNL     1      -9.203   7.829  67.779  1.00  0.00    -0.136 C  
HETATM   13  H   UNL     1     -11.132   8.129  68.176  1.00  0.00     0.000 HD 
HETATM   14  O   UNL     1     -10.454   7.508  68.416  1.00  0.00    -0.194 OA 
BRANCH  12  15
HETATM   15  C   UNL     1      -8.821   9.314  68.023  1.00  0.00    -0.128 C  
BRANCH  15  16
HETATM   16  N   UNL     1      -9.800  10.266  67.483  1.00  0.00    -0.169 N  
HETATM   17  C   UNL     1      -9.449  11.380  66.756  1.00  0.00    -0.182 C  
HETATM   18  O   UNL     1      -8.297  11.701  66.492  1.00  0.00    -0.170 OA 
HETATM   19  H   UNL     1     -10.790  10.093  67.657  1.00  0.00     0.000 HD 
BRANCH  17  20
HETATM   20  C   UNL     1     -10.559  12.259  66.317  1.00  0.00    -0.282 A  
HETATM   21  C   UNL     1     -11.080  13.167  67.257  1.00  0.00    -0.305 A  
HETATM   22  H   UNL     1     -13.651  13.435  63.354  1.00  0.00     0.000 HD 
HETATM   23  C   UNL     1     -11.119  12.147  65.026  1.00  0.00    -0.368 A  
HETATM   24  C   UNL     1     -12.231  12.952  64.740  1.00  0.00    -0.445 A  
HETATM   25  C   UNL     1     -12.151  13.985  66.923  1.00  0.00    -0.465 A  
HETATM   26  C   UNL     1     -10.575  11.224  63.964  1.00  0.00    -0.450 C  
HETATM   27  O   UNL     1     -12.898  12.890  63.547  1.00  0.00    -0.677 OA 
HETATM   28  C   UNL     1     -12.729  13.871  65.663  1.00  0.00    -0.534 A  
ENDBRANCH  17  20
ENDBRANCH  15  16
BRANCH  15  29
HETATM   29  C   UNL     1      -8.438   9.618  69.502  1.00  0.00    -0.159 C  
BRANCH  29  30
HETATM   30  S   UNL     1      -9.685   9.151  70.758  1.00  0.00    -0.287 SA 
BRANCH  30  31
HETATM   31  C   UNL     1      -8.776   8.182  71.939  1.00  0.00    -0.154 A  
HETATM   32  C   UNL     1      -8.477   7.609  74.283  1.00  0.00    -0.282 A  
HETATM   33  C   UNL     1      -9.051   8.408  73.294  1.00  0.00    -0.185 A  
HETATM   34  C   UNL     1      -7.333   6.344  72.579  1.00  0.00    -0.087 A  
HETATM   35  C   UNL     1      -7.622   6.571  73.923  1.00  0.00    -0.083 A  
HETATM   36  C   UNL     1      -7.908   7.146  71.589  1.00  0.00    -0.097 A  
ENDBRANCH  30  31
ENDBRANCH  29  30
ENDBRANCH  15  29
ENDBRANCH  12  15
ENDBRANCH  11  12
ENDBRANCH   8  11
BRANCH   9  37
HETATM   37  C   UNL     1      -8.978   3.639  68.851  1.00  0.00    -0.126 C  
HETATM   38  C   UNL     1      -7.786   3.140  71.718  1.00  0.00    -0.057 C  
HETATM   39  O   UNL     1      -8.458   2.541  68.664  1.00  0.00    -0.062 OA 
HETATM   40  C   UNL     1      -9.975   4.071  72.455  1.00  0.00    -0.229 C  
HETATM   41  C   UNL     1      -9.266   3.284  71.339  1.00  0.00    -0.121 C  
HETATM   42  N   UNL     1      -9.426   4.051  70.096  1.00  0.00    -0.172 N  
HETATM   43  C   UNL     1      -9.914   1.895  71.235  1.00  0.00    -0.089 C  
HETATM   44  H   UNL     1      -9.899   4.952  70.154  1.00  0.00     0.000 HD 
ENDBRANCH   9  37
TORSDOF 9
ENDMDL
MODEL      189
REMARK 921   NORMALIZED FREE ENERGY PREDICTED BY IDOCK:   -4.10 KCAL/MOL
REMARK 922        TOTAL FREE ENERGY PREDICTED BY IDOCK:   -9.10 KCAL/MOL
REMARK 923 INTER-LIGAND FREE ENERGY PREDICTED BY IDOCK:   -7.87 KCAL/MOL
REMARK 924 INTRA-LIGAND FREE ENERGY PREDICTED BY IDOCK:   -1.23 KCAL/MOL
REMARK 927      BINDING AFFINITY PREDICTED BY RF-SCORE:    0.00 PKD
ROOT
HETATM    1  C   UNL     1      -9.263   5.104  65.493  1.00  0.00    -0.144 C  
HETATM    2  C   UNL     1      -8.972   3.706  64.939  1.00  0.00    -0.126 C  
HETATM    3  C   UNL     1      -7.822   3.031  65.677  1.00  0.00    -0.085 C  
HETATM    4  C   UNL     1      -6.556   3.875  65.598  1.00  0.00    -0.041 C  
HETATM    5  C   UNL     1      -6.763   5.309  66.081  1.00  0.00    -0.057 C  
HETATM    6  C   UNL     1      -8.016   5.990  65.507  1.00  0.00    -0.115 C  
HETATM    7  C   UNL     1      -8.358   7.315  66.211  1.00  0.00    -0.129 C  
HETATM    8  N   UNL     1      -8.709   7.173  67.628  1.00  0.00    -0.121 NA 
HETATM    9  C   UNL     1      -9.600   6.040  67.938  1.00  0.00    -0.116 C  
HETATM   10  C   UNL     1      -9.992   5.031  66.841  1.00  0.00    -0.238 C  
ENDROOT
BRANCH   8  11
HETATM   11  C   UNL     1      -9.201   8.460  68.183  1.00  0.00    -0.137 C  
BRANCH  11  12
HETATM   12  C   UNL     1      -9.229   9.732  67.271  1.00  0.00    -0.134 C  
HETATM   13  H   UNL     1     -10.429  10.531  65.896  1.00  0.00     0.000 HD 
HETATM   14  O   UNL     1     -10.412   9.759  66.449  1.00  0.00    -0.204 OA 
BRANCH  12  15
HETATM   15  C   UNL     1      -9.056  11.070  68.038  1.00  0.00    -0.152 C  
BRANCH  15  16
HETATM   16  N   UNL     1      -9.609  12.229  67.327  1.00  0.00    -0.184 N  
HETATM   17  C   UNL     1      -8.870  13.347  67.015  1.00  0.00    -0.211 C  
HETATM   18  O   UNL     1      -7.689  13.500  67.304  1.00  0.00    -0.154 OA 
HETATM   19  H   UNL     1     -10.590  12.204  67.050  1.00  0.00     0.000 HD 
BRANCH  17  20
HETATM   20  C   UNL     1      -9.590  14.445  66.328  1.00  0.00    -0.321 A  
HETATM   21  C   UNL     1      -9.343  15.759  66.764  1.00  0.00    -0.264 A  
HETATM   22  H   UNL     1     -12.706  15.887  63.511  1.00  0.00     0.000 HD 
HETATM   23  C   UNL     1     -10.540  14.181  65.317  1.00  0.00    -0.387 A  
HETATM   24  C   UNL     1     -11.243  15.278  64.799  1.00  0.00    -0.396 A  
HETATM   25  C   UNL     1     -10.021  16.827  66.193  1.00  0.00    -0.345 A  
HETATM   26  C   UNL     1     -10.816  12.799  64.780  1.00  0.00    -0.335 C  
HETATM   27  O   UNL     1     -12.230  15.144  63.861  1.00  0.00    -0.592 OA 
HETATM   28  C   UNL     1     -10.977  16.583  65.213  1.00  0.00    -0.170 A  
ENDBRANCH  17  20
ENDBRANCH  15  16
BRANCH  15  29
HETATM   29  C   UNL     1      -9.526  10.995  69.522  1.00  0.00     0.307 C  
BRANCH  29  30
HETATM   30  S   UNL     1     -11.328  11.166  69.795  1.00  0.00    -0.266 SA 
BRANCH  30  31
HETATM   31  C   UNL     1     -11.712   9.906  70.988  1.00  0.00    -0.382 A  
HETATM   32  C   UNL     1     -13.466   8.722  72.186  1.00  0.00    -0.469 A  
HETATM   33  C   UNL     1     -13.058   9.764  71.352  1.00  0.00    -0.489 A  
HETATM   34  C   UNL     1     -11.186   7.948  72.316  1.00  0.00    -0.389 A  
HETATM   35  C   UNL     1     -12.529   7.809  72.663  1.00  0.00     0.027 A  
HETATM   36  C   UNL     1     -10.778   8.993  71.481  1.00  0.00    -0.421 A  
ENDBRANCH  30  31
ENDBRANCH  29  30
ENDBRANCH  15  29
ENDBRANCH  12  15
ENDBRANCH  11  12
ENDBRANCH   8  11
BRANCH   9  37
HETATM   37  C   UNL     1      -9.016   5.248  69.150  1.00  0.00    -0.103 C  
HETATM   38  C   UNL     1      -9.039   2.553  70.770  1.00  0.00    -0.187 C  
HETATM   39  O   UNL     1      -8.929   5.699  70.290  1.00  0.00    -0.135 OA 
HETATM   40  C   UNL     1      -7.531   1.797  68.939  1.00  0.00    -0.043 C  
HETATM   41  C   UNL     1      -7.986   3.019  69.755  1.00  0.00    -0.042 C  
HETATM   42  N   UNL     1      -8.552   3.989  68.807  1.00  0.00    -0.086 N  
HETATM   43  C   UNL     1      -6.768   3.592  70.494  1.00  0.00    -0.033 C  
HETATM   44  H   UNL     1      -8.608   3.715  67.826  1.00  0.00     0.000 HD 
ENDBRANCH   9  37
TORSDOF 9
ENDMDL
MODEL      190
REMARK 921   NORMALIZED FREE ENERGY PREDICTED BY IDOCK:   -4.09 KCAL/MOL
REMARK 922        TOTAL FREE ENERGY PREDICTED BY IDOCK:   -9.08 KCAL/MOL
REMARK 923 INTER-LIGAND FREE ENERGY PREDICTED BY IDOCK:   -8.02 KCAL/MOL
REMARK 924 INTRA-LIGAND FREE ENERGY PREDICTED BY IDOCK:   -1.06 KCAL/MOL
REMARK 927      BINDING AFFINITY PREDICTED BY RF-SCORE:    0.00 PKD
ROOT
HETATM    1  C   UNL     1     -11.058  12.393  64.521  1.00  0.00    -0.360 C  
HETATM    2  C   UNL     1     -11.876  13.198  63.505  1.00  0.00    -0.539 C  
HETATM    3  C   UNL     1     -12.395  14.501  64.099  1.00  0.00    -0.317 C  
HETATM    4  C   UNL     1     -13.250  14.235  65.331  1.00  0.00     0.109 C  
HETATM    5  C   UNL     1     -12.534  13.389  66.384  1.00  0.00    -0.297 C  
HETATM    6  C   UNL     1     -11.832  12.145  65.817  1.00  0.00    -0.342 C  
HETATM    7  C   UNL     1     -10.895  11.468  66.832  1.00  0.00    -0.284 C  
HETATM    8  N   UNL     1      -9.759  12.295  67.251  1.00  0.00    -0.193 NA 
HETATM    9  C   UNL     1      -9.091  13.032  66.162  1.00  0.00     0.094 C  
HETATM   10  C   UNL     1      -9.669  13.008  64.734  1.00  0.00     0.103 C  
ENDROOT
BRANCH   8  11
HETATM   11  C   UNL     1      -8.809  11.509  68.080  1.00  0.00    -0.158 C  
BRANCH  11  12
HETATM   12  C   UNL     1      -7.922  10.412  67.404  1.00  0.00    -0.107 C  
HETATM   13  H   UNL     1      -6.081  10.261  66.657  1.00  0.00     0.000 HD 
HETATM   14  O   UNL     1      -6.620  10.927  67.067  1.00  0.00    -0.076 OA 
BRANCH  12  15
HETATM   15  C   UNL     1      -7.803   9.097  68.222  1.00  0.00    -0.102 C  
BRANCH  15  16
HETATM   16  N   UNL     1      -8.806   8.978  69.288  1.00  0.00    -0.137 N  
HETATM   17  C   UNL     1     -10.105   8.583  69.063  1.00  0.00    -0.199 C  
HETATM   18  O   UNL     1     -10.564   8.304  67.962  1.00  0.00    -0.201 OA 
HETATM   19  H   UNL     1      -8.526   9.199  70.243  1.00  0.00     0.000 HD 
BRANCH  17  20
HETATM   20  C   UNL     1     -11.000   8.552  70.243  1.00  0.00    -0.245 A  
HETATM   21  C   UNL     1     -11.185   7.316  70.888  1.00  0.00    -0.298 A  
HETATM   22  H   UNL     1     -13.986  10.475  72.912  1.00  0.00     0.000 HD 
HETATM   23  C   UNL     1     -11.697   9.705  70.668  1.00  0.00    -0.353 A  
HETATM   24  C   UNL     1     -12.598   9.552  71.731  1.00  0.00    -0.405 A  
HETATM   25  C   UNL     1     -12.048   7.212  71.971  1.00  0.00    -0.329 A  
HETATM   26  C   UNL     1     -11.507  11.065  70.043  1.00  0.00    -0.398 C  
HETATM   27  O   UNL     1     -13.375  10.579  72.192  1.00  0.00    -0.437 OA 
HETATM   28  C   UNL     1     -12.759   8.332  72.387  1.00  0.00    -0.287 A  
ENDBRANCH  17  20
ENDBRANCH  15  16
BRANCH  15  29
HETATM   29  C   UNL     1      -7.718   7.822  67.331  1.00  0.00    -0.113 C  
BRANCH  29  30
HETATM   30  S   UNL     1      -8.179   8.048  65.573  1.00  0.00    -0.143 SA 
BRANCH  30  31
HETATM   31  C   UNL     1      -7.756   6.501  64.807  1.00  0.00    -0.106 A  
HETATM   32  C   UNL     1      -5.980   5.119  63.886  1.00  0.00    -0.021 A  
HETATM   33  C   UNL     1      -6.430   6.343  64.384  1.00  0.00    -0.034 A  
HETATM   34  C   UNL     1      -8.179   4.189  64.218  1.00  0.00    -0.096 A  
HETATM   35  C   UNL     1      -6.855   4.039  63.810  1.00  0.00    -0.044 A  
HETATM   36  C   UNL     1      -8.630   5.416  64.715  1.00  0.00    -0.117 A  
ENDBRANCH  30  31
ENDBRANCH  29  30
ENDBRANCH  15  29
ENDBRANCH  12  15
ENDBRANCH  11  12
ENDBRANCH   8  11
BRANCH   9  37
HETATM   37  C   UNL     1      -8.904  14.521  66.594  1.00  0.00    -0.184 C  
HETATM   38  C   UNL     1      -7.717  16.494  68.735  1.00  0.00    -0.226 C  
HETATM   39  O   UNL     1      -9.814  15.346  66.631  1.00  0.00    -0.239 OA 
HETATM   40  C   UNL     1      -5.603  16.095  67.481  1.00  0.00    -0.162 C  
HETATM   41  C   UNL     1      -7.135  16.160  67.355  1.00  0.00    -0.177 C  
HETATM   42  N   UNL     1      -7.590  14.842  66.889  1.00  0.00    -0.265 N  
HETATM   43  C   UNL     1      -7.495  17.270  66.356  1.00  0.00    -0.336 C  
HETATM   44  H   UNL     1      -6.887  14.112  66.776  1.00  0.00     0.000 HD 
ENDBRANCH   9  37
TORSDOF 9
ENDMDL
MODEL      191
REMARK 921   NORMALIZED FREE ENERGY PREDICTED BY IDOCK:   -4.05 KCAL/MOL
REMARK 922        TOTAL FREE ENERGY PREDICTED BY IDOCK:   -9.01 KCAL/MOL
REMARK 923 INTER-LIGAND FREE ENERGY PREDICTED BY IDOCK:   -6.80 KCAL/MOL
REMARK 924 INTRA-LIGAND FREE ENERGY PREDICTED BY IDOCK:   -2.22 KCAL/MOL
REMARK 927      BINDING AFFINITY PREDICTED BY RF-SCORE:    0.00 PKD
ROOT
HETATM    1  C   UNL     1      -7.555   5.760  69.181  1.00  0.00    -0.089 C  
HETATM    2  C   UNL     1      -7.965   4.459  69.879  1.00  0.00    -0.056 C  
HETATM    3  C   UNL     1      -9.204   3.840  69.244  1.00  0.00    -0.228 C  
HETATM    4  C   UNL     1     -10.375   4.814  69.275  1.00  0.00    -0.022 C  
HETATM    5  C   UNL     1     -10.043   6.167  68.646  1.00  0.00    -0.196 C  
HETATM    6  C   UNL     1      -8.707   6.766  69.114  1.00  0.00    -0.131 C  
HETATM    7  C   UNL     1      -8.260   7.974  68.273  1.00  0.00    -0.123 C  
HETATM    8  N   UNL     1      -7.980   7.661  66.867  1.00  0.00    -0.113 NA 
HETATM    9  C   UNL     1      -7.219   6.418  66.647  1.00  0.00    -0.077 C  
HETATM   10  C   UNL     1      -6.890   5.483  67.827  1.00  0.00    -0.064 C  
ENDROOT
BRANCH   8  11
HETATM   11  C   UNL     1      -7.382   8.831  66.175  1.00  0.00    -0.086 C  
BRANCH  11  12
HETATM   12  C   UNL     1      -8.317   9.944  65.593  1.00  0.00    -0.137 C  
HETATM   13  H   UNL     1     -10.250  10.165  65.161  1.00  0.00     0.000 HD 
HETATM   14  O   UNL     1      -9.682   9.490  65.514  1.00  0.00    -0.283 OA 
BRANCH  12  15
HETATM   15  C   UNL     1      -8.227  11.304  66.336  1.00  0.00    -0.150 C  
BRANCH  15  16
HETATM   16  N   UNL     1      -9.163  11.419  67.462  1.00  0.00    -0.159 N  
HETATM   17  C   UNL     1     -10.339  12.130  67.397  1.00  0.00    -0.205 C  
HETATM   18  O   UNL     1     -10.723  12.746  66.410  1.00  0.00    -0.258 OA 
HETATM   19  H   UNL     1      -8.929  10.949  68.336  1.00  0.00     0.000 HD 
BRANCH  17  20
HETATM   20  C   UNL     1     -11.152  12.179  68.635  1.00  0.00    -0.297 A  
HETATM   21  C   UNL     1     -11.599  10.957  69.169  1.00  0.00    -0.389 A  
HETATM   22  H   UNL     1     -13.432  14.440  71.705  1.00  0.00     0.000 HD 
HETATM   23  C   UNL     1     -11.521  13.408  69.224  1.00  0.00    -0.345 A  
HETATM   24  C   UNL     1     -12.376  13.353  70.334  1.00  0.00    -0.312 A  
HETATM   25  C   UNL     1     -12.403  10.938  70.301  1.00  0.00    -0.412 A  
HETATM   26  C   UNL     1     -11.038  14.746  68.721  1.00  0.00    -0.277 C  
HETATM   27  O   UNL     1     -12.853  14.477  70.952  1.00  0.00    -0.333 OA 
HETATM   28  C   UNL     1     -12.796  12.141  70.879  1.00  0.00    -0.190 A  
ENDBRANCH  17  20
ENDBRANCH  15  16
BRANCH  15  29
HETATM   29  C   UNL     1      -6.771  11.700  66.722  1.00  0.00    -0.087 C  
BRANCH  29  30
HETATM   30  S   UNL     1      -6.477  12.015  68.502  1.00  0.00    -0.063 SA 
BRANCH  30  31
HETATM   31  C   UNL     1      -6.598  13.781  68.661  1.00  0.00    -0.096 A  
HETATM   32  C   UNL     1      -7.319  15.860  67.625  1.00  0.00    -0.180 A  
HETATM   33  C   UNL     1      -7.075  14.488  67.548  1.00  0.00    -0.199 A  
HETATM   34  C   UNL     1      -6.606  15.846  69.928  1.00  0.00    -0.086 A  
HETATM   35  C   UNL     1      -7.090  16.538  68.820  1.00  0.00    -0.189 A  
HETATM   36  C   UNL     1      -6.360  14.471  69.850  1.00  0.00    -0.157 A  
ENDBRANCH  30  31
ENDBRANCH  29  30
ENDBRANCH  15  29
ENDBRANCH  12  15
ENDBRANCH  11  12
ENDBRANCH   8  11
BRANCH   9  37
HETATM   37  C   UNL     1      -7.926   5.579  65.536  1.00  0.00    -0.111 C  
HETATM   38  C   UNL     1      -7.840   2.979  63.768  1.00  0.00    -0.080 C  
HETATM   39  O   UNL     1      -8.333   6.045  64.474  1.00  0.00    -0.123 OA 
HETATM   40  C   UNL     1      -8.766   1.921  65.823  1.00  0.00    -0.119 C  
HETATM   41  C   UNL     1      -8.701   3.228  65.014  1.00  0.00    -0.115 C  
HETATM   42  N   UNL     1      -8.099   4.249  65.883  1.00  0.00    -0.098 N  
HETATM   43  C   UNL     1     -10.127   3.612  64.593  1.00  0.00    -0.162 C  
HETATM   44  H   UNL     1      -7.784   3.956  66.808  1.00  0.00     0.000 HD 
ENDBRANCH   9  37
TORSDOF 9
ENDMDL
MODEL      192
REMARK 921   NORMALIZED FREE ENERGY PREDICTED BY IDOCK:   -4.05 KCAL/MOL
REMARK 922        TOTAL FREE ENERGY PREDICTED BY IDOCK:   -9.01 KCAL/MOL
REMARK 923 INTER-LIGAND FREE ENERGY PREDICTED BY IDOCK:   -5.89 KCAL/MOL
REMARK 924 INTRA-LIGAND FREE ENERGY PREDICTED BY IDOCK:   -3.12 KCAL/MOL
REMARK 927      BINDING AFFINITY PREDICTED BY RF-SCORE:    0.00 PKD
ROOT
HETATM    1  C   UNL     1     -10.169   5.217  70.713  1.00  0.00    -0.317 C  
HETATM    2  C   UNL     1     -10.954   4.899  71.989  1.00  0.00    -0.024 C  
HETATM    3  C   UNL     1     -11.074   6.114  72.900  1.00  0.00    -0.281 C  
HETATM    4  C   UNL     1      -9.699   6.648  73.279  1.00  0.00    -0.189 C  
HETATM    5  C   UNL     1      -8.819   6.945  72.066  1.00  0.00    -0.135 C  
HETATM    6  C   UNL     1      -8.797   5.823  71.016  1.00  0.00    -0.143 C  
HETATM    7  C   UNL     1      -8.141   6.249  69.691  1.00  0.00    -0.120 C  
HETATM    8  N   UNL     1      -8.851   7.318  68.981  1.00  0.00    -0.132 NA 
HETATM    9  C   UNL     1     -10.318   7.173  68.946  1.00  0.00    -0.196 C  
HETATM   10  C   UNL     1     -11.010   6.041  69.729  1.00  0.00    -0.471 C  
ENDROOT
BRANCH   8  11
HETATM   11  C   UNL     1      -8.263   7.541  67.636  1.00  0.00    -0.118 C  
BRANCH  11  12
HETATM   12  C   UNL     1      -7.061   8.530  67.474  1.00  0.00    -0.080 C  
HETATM   13  H   UNL     1      -5.781   9.070  66.046  1.00  0.00     0.000 HD 
HETATM   14  O   UNL     1      -6.510   8.471  66.145  1.00  0.00    -0.052 OA 
BRANCH  12  15
HETATM   15  C   UNL     1      -7.382   9.994  67.876  1.00  0.00    -0.088 C  
BRANCH  15  16
HETATM   16  N   UNL     1      -8.488  10.583  67.110  1.00  0.00    -0.126 N  
HETATM   17  C   UNL     1      -8.645  11.937  66.928  1.00  0.00    -0.185 C  
HETATM   18  O   UNL     1      -7.896  12.790  67.390  1.00  0.00    -0.163 OA 
HETATM   19  H   UNL     1      -9.175   9.955  66.692  1.00  0.00     0.000 HD 
BRANCH  17  20
HETATM   20  C   UNL     1      -9.838  12.368  66.161  1.00  0.00    -0.263 A  
HETATM   21  C   UNL     1      -9.844  12.123  64.776  1.00  0.00    -0.157 A  
HETATM   22  H   UNL     1     -13.693  14.555  65.867  1.00  0.00     0.000 HD 
HETATM   23  C   UNL     1     -10.901  13.058  66.782  1.00  0.00    -0.285 A  
HETATM   24  C   UNL     1     -11.937  13.513  65.954  1.00  0.00    -0.406 A  
HETATM   25  C   UNL     1     -10.911  12.545  63.994  1.00  0.00    -0.446 A  
HETATM   26  C   UNL     1     -10.969  13.311  68.268  1.00  0.00    -0.280 C  
HETATM   27  O   UNL     1     -12.991  14.246  66.428  1.00  0.00    -0.031 OA 
HETATM   28  C   UNL     1     -11.956  13.246  64.586  1.00  0.00    -0.440 A  
ENDBRANCH  17  20
ENDBRANCH  15  16
BRANCH  15  29
HETATM   29  C   UNL     1      -7.544  10.191  69.413  1.00  0.00    -0.133 C  
BRANCH  29  30
HETATM   30  S   UNL     1      -6.011  10.593  70.330  1.00  0.00    -0.124 SA 
BRANCH  30  31
HETATM   31  C   UNL     1      -5.636   9.106  71.229  1.00  0.00    -0.051 A  
HETATM   32  C   UNL     1      -5.655   7.990  73.389  1.00  0.00    -0.048 A  
HETATM   33  C   UNL     1      -5.806   9.143  72.620  1.00  0.00     0.004 A  
HETATM   34  C   UNL     1      -5.150   6.738  71.392  1.00  0.00    -0.026 A  
HETATM   35  C   UNL     1      -5.333   6.784  72.772  1.00  0.00    -0.037 A  
HETATM   36  C   UNL     1      -5.301   7.895  70.621  1.00  0.00    -0.023 A  
ENDBRANCH  30  31
ENDBRANCH  29  30
ENDBRANCH  15  29
ENDBRANCH  12  15
ENDBRANCH  11  12
ENDBRANCH   8  11
BRANCH   9  37
HETATM   37  C   UNL     1     -10.974   8.529  69.356  1.00  0.00    -0.005 C  
HETATM   38  C   UNL     1     -13.634  10.022  70.123  1.00  0.00     0.804 C  
HETATM   39  O   UNL     1     -10.784   9.592  68.768  1.00  0.00    -0.222 OA 
HETATM   40  C   UNL     1     -13.192   9.015  72.357  1.00  0.00    -0.507 C  
HETATM   41  C   UNL     1     -12.528   9.544  71.074  1.00  0.00    -0.267 C  
HETATM   42  N   UNL     1     -11.765   8.432  70.489  1.00  0.00    -0.466 N  
HETATM   43  C   UNL     1     -11.617  10.722  71.447  1.00  0.00     0.339 C  
HETATM   44  H   UNL     1     -11.823   7.524  70.950  1.00  0.00     0.000 HD 
ENDBRANCH   9  37
TORSDOF 9
ENDMDL
MODEL      193
REMARK 921   NORMALIZED FREE ENERGY PREDICTED BY IDOCK:   -4.00 KCAL/MOL
REMARK 922        TOTAL FREE ENERGY PREDICTED BY IDOCK:   -8.94 KCAL/MOL
REMARK 923 INTER-LIGAND FREE ENERGY PREDICTED BY IDOCK:   -7.64 KCAL/MOL
REMARK 924 INTRA-LIGAND FREE ENERGY PREDICTED BY IDOCK:   -1.30 KCAL/MOL
REMARK 927      BINDING AFFINITY PREDICTED BY RF-SCORE:    0.00 PKD
ROOT
HETATM    1  C   UNL     1     -11.212   7.739  70.927  1.00  0.00    -0.284 C  
HETATM    2  C   UNL     1     -11.479   8.223  72.356  1.00  0.00    -0.463 C  
HETATM    3  C   UNL     1     -10.562   7.545  73.366  1.00  0.00    -0.409 C  
HETATM    4  C   UNL     1     -10.720   6.031  73.313  1.00  0.00    -0.284 C  
HETATM    5  C   UNL     1     -10.524   5.459  71.910  1.00  0.00    -0.283 C  
HETATM    6  C   UNL     1     -11.288   6.215  70.811  1.00  0.00    -0.364 C  
HETATM    7  C   UNL     1     -10.862   5.806  69.390  1.00  0.00    -0.323 C  
HETATM    8  N   UNL     1      -9.467   6.117  69.063  1.00  0.00    -0.127 NA 
HETATM    9  C   UNL     1      -9.007   7.447  69.506  1.00  0.00    -0.144 C  
HETATM   10  C   UNL     1      -9.920   8.344  70.364  1.00  0.00    -0.199 C  
ENDROOT
BRANCH   8  11
HETATM   11  C   UNL     1      -9.191   5.862  67.627  1.00  0.00    -0.104 C  
BRANCH  11  12
HETATM   12  C   UNL     1      -9.946   6.694  66.537  1.00  0.00    -0.084 C  
HETATM   13  H   UNL     1     -11.647   7.720  66.384  1.00  0.00     0.000 HD 
HETATM   14  O   UNL     1     -11.188   7.215  67.045  1.00  0.00    -0.277 OA 
BRANCH  12  15
HETATM   15  C   UNL     1      -9.094   7.820  65.892  1.00  0.00    -0.072 C  
BRANCH  15  16
HETATM   16  N   UNL     1      -9.578   9.171  66.204  1.00  0.00    -0.246 N  
HETATM   17  C   UNL     1      -9.577  10.203  65.293  1.00  0.00    -0.277 C  
HETATM   18  O   UNL     1      -9.167  10.111  64.142  1.00  0.00    -0.228 OA 
HETATM   19  H   UNL     1      -9.931   9.354  67.143  1.00  0.00     0.000 HD 
BRANCH  17  20
HETATM   20  C   UNL     1     -10.064  11.515  65.781  1.00  0.00    -0.278 A  
HETATM   21  C   UNL     1      -9.647  11.930  67.058  1.00  0.00    -0.196 A  
HETATM   22  H   UNL     1     -12.698  15.071  65.402  1.00  0.00     0.000 HD 
HETATM   23  C   UNL     1     -10.966  12.292  65.021  1.00  0.00    -0.344 A  
HETATM   24  C   UNL     1     -11.448  13.470  65.612  1.00  0.00    -0.315 A  
HETATM   25  C   UNL     1     -10.106  13.128  67.591  1.00  0.00    -0.221 A  
HETATM   26  C   UNL     1     -11.414  11.919  63.630  1.00  0.00    -0.551 C  
HETATM   27  O   UNL     1     -12.371  14.274  65.002  1.00  0.00    -0.418 OA 
HETATM   28  C   UNL     1     -11.013  13.894  66.866  1.00  0.00    -0.300 A  
ENDBRANCH  17  20
ENDBRANCH  15  16
BRANCH  15  29
HETATM   29  C   UNL     1      -7.565   7.657  66.141  1.00  0.00    -0.088 C  
BRANCH  29  30
HETATM   30  S   UNL     1      -6.513   7.633  64.643  1.00  0.00    -0.044 SA 
BRANCH  30  31
HETATM   31  C   UNL     1      -6.461   5.920  64.172  1.00  0.00    -0.033 A  
HETATM   32  C   UNL     1      -5.170   3.859  64.181  1.00  0.00    -0.009 A  
HETATM   33  C   UNL     1      -5.261   5.233  64.404  1.00  0.00    -0.010 A  
HETATM   34  C   UNL     1      -7.477   3.833  63.478  1.00  0.00    -0.058 A  
HETATM   35  C   UNL     1      -6.283   3.157  63.723  1.00  0.00    -0.018 A  
HETATM   36  C   UNL     1      -7.566   5.210  63.701  1.00  0.00    -0.069 A  
ENDBRANCH  30  31
ENDBRANCH  29  30
ENDBRANCH  15  29
ENDBRANCH  12  15
ENDBRANCH  11  12
ENDBRANCH   8  11
BRANCH   9  37
HETATM   37  C   UNL     1      -7.637   7.293  70.238  1.00  0.00    -0.089 C  
HETATM   38  C   UNL     1      -5.442   8.695  72.002  1.00  0.00    -0.047 C  
HETATM   39  O   UNL     1      -6.629   6.815  69.722  1.00  0.00    -0.045 OA 
HETATM   40  C   UNL     1      -7.028   8.167  73.848  1.00  0.00    -0.162 C  
HETATM   41  C   UNL     1      -6.521   7.708  72.470  1.00  0.00    -0.060 C  
HETATM   42  N   UNL     1      -7.674   7.708  71.559  1.00  0.00    -0.083 N  
HETATM   43  C   UNL     1      -5.914   6.305  72.616  1.00  0.00    -0.038 C  
HETATM   44  H   UNL     1      -8.567   8.038  71.926  1.00  0.00     0.000 HD 
ENDBRANCH   9  37
TORSDOF 9
ENDMDL
MODEL      194
REMARK 921   NORMALIZED FREE ENERGY PREDICTED BY IDOCK:   -3.99 KCAL/MOL
REMARK 922        TOTAL FREE ENERGY PREDICTED BY IDOCK:   -8.93 KCAL/MOL
REMARK 923 INTER-LIGAND FREE ENERGY PREDICTED BY IDOCK:   -7.43 KCAL/MOL
REMARK 924 INTRA-LIGAND FREE ENERGY PREDICTED BY IDOCK:   -1.50 KCAL/MOL
REMARK 927      BINDING AFFINITY PREDICTED BY RF-SCORE:    0.00 PKD
ROOT
HETATM    1  C   UNL     1      -9.385  12.515  67.787  1.00  0.00    -0.198 C  
HETATM    2  C   UNL     1      -9.407  13.931  68.372  1.00  0.00    -0.201 C  
HETATM    3  C   UNL     1     -10.778  14.292  68.931  1.00  0.00    -0.268 C  
HETATM    4  C   UNL     1     -11.851  14.179  67.856  1.00  0.00    -0.405 C  
HETATM    5  C   UNL     1     -11.870  12.812  67.173  1.00  0.00    -0.415 C  
HETATM    6  C   UNL     1     -10.484  12.306  66.743  1.00  0.00    -0.242 C  
HETATM    7  C   UNL     1     -10.487  10.827  66.318  1.00  0.00    -0.226 C  
HETATM    8  N   UNL     1     -10.835   9.890  67.392  1.00  0.00    -0.269 NA 
HETATM    9  C   UNL     1     -10.205  10.176  68.694  1.00  0.00    -0.176 C  
HETATM   10  C   UNL     1      -9.365  11.452  68.893  1.00  0.00    -0.044 C  
ENDROOT
BRANCH   8  11
HETATM   11  C   UNL     1     -10.637   8.485  66.953  1.00  0.00    -0.209 C  
BRANCH  11  12
HETATM   12  C   UNL     1     -10.400   7.369  68.024  1.00  0.00    -0.199 C  
HETATM   13  H   UNL     1     -11.073   5.535  68.412  1.00  0.00     0.000 HD 
HETATM   14  O   UNL     1     -11.217   6.212  67.763  1.00  0.00    -0.294 OA 
BRANCH  12  15
HETATM   15  C   UNL     1      -8.912   6.967  68.206  1.00  0.00    -0.128 C  
BRANCH  15  16
HETATM   16  N   UNL     1      -8.426   7.127  69.582  1.00  0.00    -0.133 N  
HETATM   17  C   UNL     1      -8.800   6.301  70.617  1.00  0.00    -0.144 C  
HETATM   18  O   UNL     1      -9.579   5.361  70.506  1.00  0.00    -0.161 OA 
HETATM   19  H   UNL     1      -7.779   7.890  69.782  1.00  0.00     0.000 HD 
BRANCH  17  20
HETATM   20  C   UNL     1      -8.249   6.624  71.954  1.00  0.00    -0.103 A  
HETATM   21  C   UNL     1      -8.933   7.580  72.727  1.00  0.00    -0.195 A  
HETATM   22  H   UNL     1      -5.029   6.353  75.002  1.00  0.00     0.000 HD 
HETATM   23  C   UNL     1      -7.044   6.045  72.411  1.00  0.00    -0.084 A  
HETATM   24  C   UNL     1      -6.550   6.491  73.646  1.00  0.00    -0.069 A  
HETATM   25  C   UNL     1      -8.440   7.961  73.968  1.00  0.00    -0.321 A  
HETATM   26  C   UNL     1      -6.292   4.986  71.646  1.00  0.00    -0.030 C  
HETATM   27  O   UNL     1      -5.364   6.051  74.166  1.00  0.00    -0.035 OA 
HETATM   28  C   UNL     1      -7.243   7.417  74.423  1.00  0.00    -0.128 A  
ENDBRANCH  17  20
ENDBRANCH  15  16
BRANCH  15  29
HETATM   29  C   UNL     1      -8.572   5.570  67.607  1.00  0.00    -0.108 C  
BRANCH  29  30
HETATM   30  S   UNL     1      -7.581   5.584  66.068  1.00  0.00    -0.088 SA 
BRANCH  30  31
HETATM   31  C   UNL     1      -8.601   4.742  64.881  1.00  0.00    -0.145 A  
HETATM   32  C   UNL     1     -10.771   3.742  64.428  1.00  0.00    -0.180 A  
HETATM   33  C   UNL     1      -9.857   4.301  65.322  1.00  0.00    -0.214 A  
HETATM   34  C   UNL     1      -9.189   4.048  62.635  1.00  0.00    -0.111 A  
HETATM   35  C   UNL     1     -10.438   3.622  63.081  1.00  0.00    -0.225 A  
HETATM   36  C   UNL     1      -8.272   4.606  63.532  1.00  0.00    -0.107 A  
ENDBRANCH  30  31
ENDBRANCH  29  30
ENDBRANCH  15  29
ENDBRANCH  12  15
ENDBRANCH  11  12
ENDBRANCH   8  11
BRANCH   9  37
HETATM   37  C   UNL     1     -11.297  10.125  69.810  1.00  0.00    -0.256 C  
HETATM   38  C   UNL     1     -14.019   8.863  70.751  1.00  0.00     0.329 C  
HETATM   39  O   UNL     1     -11.816  11.120  70.311  1.00  0.00    -0.314 OA 
HETATM   40  C   UNL     1     -12.551   6.972  71.436  1.00  0.00    -0.428 C  
HETATM   41  C   UNL     1     -12.608   8.495  71.231  1.00  0.00    -0.226 C  
HETATM   42  N   UNL     1     -11.596   8.837  70.222  1.00  0.00    -0.462 N  
HETATM   43  C   UNL     1     -12.323   9.179  72.576  1.00  0.00    -0.216 C  
HETATM   44  H   UNL     1     -11.076   8.071  69.795  1.00  0.00     0.000 HD 
ENDBRANCH   9  37
TORSDOF 9
ENDMDL
MODEL      195
REMARK 921   NORMALIZED FREE ENERGY PREDICTED BY IDOCK:   -3.99 KCAL/MOL
REMARK 922        TOTAL FREE ENERGY PREDICTED BY IDOCK:   -8.92 KCAL/MOL
REMARK 923 INTER-LIGAND FREE ENERGY PREDICTED BY IDOCK:   -7.43 KCAL/MOL
REMARK 924 INTRA-LIGAND FREE ENERGY PREDICTED BY IDOCK:   -1.49 KCAL/MOL
REMARK 927      BINDING AFFINITY PREDICTED BY RF-SCORE:    0.00 PKD
ROOT
HETATM    1  C   UNL     1      -5.555   6.637  71.810  1.00  0.00    -0.036 C  
HETATM    2  C   UNL     1      -5.760   5.293  72.516  1.00  0.00    -0.018 C  
HETATM    3  C   UNL     1      -7.100   4.662  72.158  1.00  0.00    -0.066 C  
HETATM    4  C   UNL     1      -8.252   5.594  72.512  1.00  0.00    -0.114 C  
HETATM    5  C   UNL     1      -8.107   6.984  71.894  1.00  0.00    -0.098 C  
HETATM    6  C   UNL     1      -6.711   7.605  72.067  1.00  0.00    -0.055 C  
HETATM    7  C   UNL     1      -6.502   8.865  71.208  1.00  0.00    -0.077 C  
HETATM    8  N   UNL     1      -6.553   8.626  69.762  1.00  0.00    -0.041 NA 
HETATM    9  C   UNL     1      -5.839   7.419  69.305  1.00  0.00    -0.026 C  
HETATM   10  C   UNL     1      -5.221   6.444  70.326  1.00  0.00    -0.014 C  
ENDROOT
BRANCH   8  11
HETATM   11  C   UNL     1      -6.161   9.845  69.010  1.00  0.00    -0.040 C  
BRANCH  11  12
HETATM   12  C   UNL     1      -7.117  10.412  67.908  1.00  0.00    -0.083 C  
HETATM   13  H   UNL     1      -7.994   9.760  66.243  1.00  0.00     0.000 HD 
HETATM   14  O   UNL     1      -7.414   9.416  66.911  1.00  0.00    -0.090 OA 
BRANCH  12  15
HETATM   15  C   UNL     1      -8.419  11.049  68.462  1.00  0.00    -0.153 C  
BRANCH  15  16
HETATM   16  N   UNL     1      -9.031  12.021  67.546  1.00  0.00    -0.168 N  
HETATM   17  C   UNL     1      -8.941  13.383  67.720  1.00  0.00    -0.205 C  
HETATM   18  O   UNL     1      -8.359  13.926  68.651  1.00  0.00    -0.152 OA 
HETATM   19  H   UNL     1      -9.549  11.669  66.742  1.00  0.00     0.000 HD 
BRANCH  17  20
HETATM   20  C   UNL     1      -9.648  14.225  66.726  1.00  0.00    -0.290 A  
HETATM   21  C   UNL     1     -10.351  13.568  65.700  1.00  0.00    -0.303 A  
HETATM   22  H   UNL     1     -10.544  18.179  64.911  1.00  0.00     0.000 HD 
HETATM   23  C   UNL     1      -9.567  15.634  66.766  1.00  0.00    -0.257 A  
HETATM   24  C   UNL     1     -10.186  16.339  65.723  1.00  0.00    -0.367 A  
HETATM   25  C   UNL     1     -10.995  14.300  64.711  1.00  0.00    -0.408 A  
HETATM   26  C   UNL     1      -8.865  16.393  67.864  1.00  0.00    -0.184 C  
HETATM   27  O   UNL     1     -10.125  17.701  65.618  1.00  0.00    -0.575 OA 
HETATM   28  C   UNL     1     -10.905  15.688  64.722  1.00  0.00    -0.377 A  
ENDBRANCH  17  20
ENDBRANCH  15  16
BRANCH  15  29
HETATM   29  C   UNL     1      -9.441  10.001  68.995  1.00  0.00    -0.187 C  
BRANCH  29  30
HETATM   30  S   UNL     1     -11.188  10.546  69.044  1.00  0.00    -0.257 SA 
BRANCH  30  31
HETATM   31  C   UNL     1     -11.792   9.943  70.603  1.00  0.00    -0.303 A  
HETATM   32  C   UNL     1     -13.548  10.075  72.279  1.00  0.00    -0.282 A  
HETATM   33  C   UNL     1     -12.934  10.564  71.126  1.00  0.00    -0.506 A  
HETATM   34  C   UNL     1     -11.882   8.338  72.416  1.00  0.00    -0.461 A  
HETATM   35  C   UNL     1     -13.025   8.956  72.921  1.00  0.00     0.040 A  
HETATM   36  C   UNL     1     -11.267   8.829  71.260  1.00  0.00    -0.352 A  
ENDBRANCH  30  31
ENDBRANCH  29  30
ENDBRANCH  15  29
ENDBRANCH  12  15
ENDBRANCH  11  12
ENDBRANCH   8  11
BRANCH   9  37
HETATM   37  C   UNL     1      -6.769   6.608  68.349  1.00  0.00    -0.065 C  
HETATM   38  C   UNL     1      -8.969   4.373  68.113  1.00  0.00    -0.146 C  
HETATM   39  O   UNL     1      -6.387   6.058  67.318  1.00  0.00    -0.035 OA 
HETATM   40  C   UNL     1     -10.487   6.226  68.792  1.00  0.00    -0.279 C  
HETATM   41  C   UNL     1      -9.177   5.893  68.056  1.00  0.00    -0.112 C  
HETATM   42  N   UNL     1      -8.095   6.605  68.750  1.00  0.00    -0.118 N  
HETATM   43  C   UNL     1      -9.310   6.345  66.595  1.00  0.00    -0.175 C  
HETATM   44  H   UNL     1      -8.337   7.135  69.586  1.00  0.00     0.000 HD 
ENDBRANCH   9  37
TORSDOF 9
ENDMDL
MODEL      196
REMARK 921   NORMALIZED FREE ENERGY PREDICTED BY IDOCK:   -3.97 KCAL/MOL
REMARK 922        TOTAL FREE ENERGY PREDICTED BY IDOCK:   -8.90 KCAL/MOL
REMARK 923 INTER-LIGAND FREE ENERGY PREDICTED BY IDOCK:   -6.97 KCAL/MOL
REMARK 924 INTRA-LIGAND FREE ENERGY PREDICTED BY IDOCK:   -1.93 KCAL/MOL
REMARK 927      BINDING AFFINITY PREDICTED BY RF-SCORE:    0.00 PKD
ROOT
HETATM    1  C   UNL     1     -11.154   7.091  71.237  1.00  0.00    -0.282 C  
HETATM    2  C   UNL     1     -11.347   7.692  72.633  1.00  0.00    -0.423 C  
HETATM    3  C   UNL     1     -10.110   7.512  73.504  1.00  0.00    -0.378 C  
HETATM    4  C   UNL     1      -9.750   6.038  73.640  1.00  0.00    -0.165 C  
HETATM    5  C   UNL     1      -9.590   5.337  72.292  1.00  0.00    -0.180 C  
HETATM    6  C   UNL     1     -10.724   5.624  71.295  1.00  0.00    -0.312 C  
HETATM    7  C   UNL     1     -10.409   5.144  69.868  1.00  0.00    -0.277 C  
HETATM    8  N   UNL     1      -9.270   5.822  69.240  1.00  0.00    -0.117 NA 
HETATM    9  C   UNL     1      -9.227   7.282  69.443  1.00  0.00    -0.148 C  
HETATM   10  C   UNL     1     -10.247   7.972  70.369  1.00  0.00    -0.201 C  
ENDROOT
BRANCH   8  11
HETATM   11  C   UNL     1      -9.148   5.437  67.811  1.00  0.00    -0.108 C  
BRANCH  11  12
HETATM   12  C   UNL     1     -10.027   6.162  66.739  1.00  0.00    -0.172 C  
HETATM   13  H   UNL     1     -11.863   6.925  66.612  1.00  0.00     0.000 HD 
HETATM   14  O   UNL     1     -11.329   6.485  67.262  1.00  0.00    -0.316 OA 
BRANCH  12  15
HETATM   15  C   UNL     1      -9.358   7.412  66.107  1.00  0.00    -0.054 C  
BRANCH  15  16
HETATM   16  N   UNL     1      -9.616   8.653  66.850  1.00  0.00    -0.177 N  
HETATM   17  C   UNL     1      -9.967   9.837  66.245  1.00  0.00    -0.262 C  
HETATM   18  O   UNL     1     -10.091   9.988  65.035  1.00  0.00    -0.323 OA 
HETATM   19  H   UNL     1      -9.529   8.635  67.866  1.00  0.00     0.000 HD 
BRANCH  17  20
HETATM   20  C   UNL     1     -10.153  11.006  67.137  1.00  0.00    -0.227 A  
HETATM   21  C   UNL     1     -11.425  11.191  67.710  1.00  0.00    -0.349 A  
HETATM   22  H   UNL     1      -8.722  14.828  68.889  1.00  0.00     0.000 HD 
HETATM   23  C   UNL     1      -9.114  11.937  67.354  1.00  0.00    -0.178 A  
HETATM   24  C   UNL     1      -9.419  13.063  68.132  1.00  0.00    -0.218 A  
HETATM   25  C   UNL     1     -11.676  12.293  68.517  1.00  0.00    -0.381 A  
HETATM   26  C   UNL     1      -7.721  11.768  66.802  1.00  0.00    -0.086 C  
HETATM   27  O   UNL     1      -8.516  14.065  68.362  1.00  0.00    -0.160 OA 
HETATM   28  C   UNL     1     -10.671  13.232  68.722  1.00  0.00    -0.253 A  
ENDBRANCH  17  20
ENDBRANCH  15  16
BRANCH  15  29
HETATM   29  C   UNL     1      -7.848   7.207  65.784  1.00  0.00    -0.109 C  
BRANCH  29  30
HETATM   30  S   UNL     1      -7.476   6.499  64.137  1.00  0.00    -0.099 SA 
BRANCH  30  31
HETATM   31  C   UNL     1      -7.783   4.758  64.330  1.00  0.00    -0.079 A  
HETATM   32  C   UNL     1      -7.190   2.719  65.515  1.00  0.00    -0.066 A  
HETATM   33  C   UNL     1      -6.945   4.058  65.209  1.00  0.00    -0.061 A  
HETATM   34  C   UNL     1      -9.113   2.751  64.061  1.00  0.00    -0.107 A  
HETATM   35  C   UNL     1      -8.280   2.067  64.945  1.00  0.00    -0.080 A  
HETATM   36  C   UNL     1      -8.866   4.093  63.754  1.00  0.00    -0.124 A  
ENDBRANCH  30  31
ENDBRANCH  29  30
ENDBRANCH  15  29
ENDBRANCH  12  15
ENDBRANCH  11  12
ENDBRANCH   8  11
BRANCH   9  37
HETATM   37  C   UNL     1      -7.791   7.691  69.899  1.00  0.00    -0.102 C  
HETATM   38  C   UNL     1      -5.165   9.264  69.178  1.00  0.00    -0.036 C  
HETATM   39  O   UNL     1      -6.957   6.902  70.340  1.00  0.00    -0.060 OA 
HETATM   40  C   UNL     1      -6.488  11.221  69.966  1.00  0.00    -0.114 C  
HETATM   41  C   UNL     1      -6.281   9.706  70.135  1.00  0.00    -0.064 C  
HETATM   42  N   UNL     1      -7.556   9.053  69.806  1.00  0.00    -0.070 N  
HETATM   43  C   UNL     1      -5.860   9.430  71.586  1.00  0.00    -0.054 C  
HETATM   44  H   UNL     1      -8.322   9.644  69.485  1.00  0.00     0.000 HD 
ENDBRANCH   9  37
TORSDOF 9
ENDMDL
MODEL      197
REMARK 921   NORMALIZED FREE ENERGY PREDICTED BY IDOCK:   -3.97 KCAL/MOL
REMARK 922        TOTAL FREE ENERGY PREDICTED BY IDOCK:   -8.89 KCAL/MOL
REMARK 923 INTER-LIGAND FREE ENERGY PREDICTED BY IDOCK:   -6.97 KCAL/MOL
REMARK 924 INTRA-LIGAND FREE ENERGY PREDICTED BY IDOCK:   -1.92 KCAL/MOL
REMARK 927      BINDING AFFINITY PREDICTED BY RF-SCORE:    0.00 PKD
ROOT
HETATM    1  C   UNL     1      -5.940   5.717  66.909  1.00  0.00    -0.018 C  
HETATM    2  C   UNL     1      -5.695   4.669  65.819  1.00  0.00    -0.018 C  
HETATM    3  C   UNL     1      -6.430   5.011  64.528  1.00  0.00    -0.038 C  
HETATM    4  C   UNL     1      -7.927   5.139  64.772  1.00  0.00    -0.104 C  
HETATM    5  C   UNL     1      -8.269   6.128  65.886  1.00  0.00    -0.131 C  
HETATM    6  C   UNL     1      -7.431   5.949  67.163  1.00  0.00    -0.084 C  
HETATM    7  C   UNL     1      -7.589   7.113  68.155  1.00  0.00    -0.115 C  
HETATM    8  N   UNL     1      -7.110   8.405  67.653  1.00  0.00    -0.082 NA 
HETATM    9  C   UNL     1      -5.824   8.354  66.934  1.00  0.00    -0.049 C  
HETATM   10  C   UNL     1      -5.146   7.002  66.639  1.00  0.00    -0.021 C  
ENDROOT
BRANCH   8  11
HETATM   11  C   UNL     1      -7.127   9.430  68.729  1.00  0.00    -0.069 C  
BRANCH  11  12
HETATM   12  C   UNL     1      -8.038   9.216  69.983  1.00  0.00    -0.128 C  
HETATM   13  H   UNL     1      -7.878   9.375  71.962  1.00  0.00     0.000 HD 
HETATM   14  O   UNL     1      -7.326   9.505  71.201  1.00  0.00    -0.318 OA 
BRANCH  12  15
HETATM   15  C   UNL     1      -9.384   9.987  69.931  1.00  0.00    -0.169 C  
BRANCH  15  16
HETATM   16  N   UNL     1      -9.599  10.705  68.668  1.00  0.00    -0.172 N  
HETATM   17  C   UNL     1     -10.734  11.434  68.397  1.00  0.00    -0.203 C  
HETATM   18  O   UNL     1     -11.681  11.552  69.165  1.00  0.00    -0.272 OA 
HETATM   19  H   UNL     1      -8.870  10.661  67.956  1.00  0.00     0.000 HD 
BRANCH  17  20
HETATM   20  C   UNL     1     -10.809  12.067  67.059  1.00  0.00    -0.297 A  
HETATM   21  C   UNL     1     -11.053  13.451  67.006  1.00  0.00    -0.310 A  
HETATM   22  H   UNL     1     -11.008  11.786  62.631  1.00  0.00     0.000 HD 
HETATM   23  C   UNL     1     -10.708  11.300  65.878  1.00  0.00    -0.291 A  
HETATM   24  C   UNL     1     -10.894  11.973  64.662  1.00  0.00    -0.309 A  
HETATM   25  C   UNL     1     -11.182  14.094  65.782  1.00  0.00    -0.312 A  
HETATM   26  C   UNL     1     -10.406   9.822  65.872  1.00  0.00    -0.148 C  
HETATM   27  O   UNL     1     -10.881  11.330  63.455  1.00  0.00    -0.369 OA 
HETATM   28  C   UNL     1     -11.108  13.350  64.609  1.00  0.00    -0.380 A  
ENDBRANCH  17  20
ENDBRANCH  15  16
BRANCH  15  29
HETATM   29  C   UNL     1     -10.609   9.119  70.345  1.00  0.00    -0.230 C  
BRANCH  29  30
HETATM   30  S   UNL     1     -10.784   7.521  69.468  1.00  0.00    -0.180 SA 
BRANCH  30  31
HETATM   31  C   UNL     1     -10.728   6.303  70.762  1.00  0.00    -0.256 A  
HETATM   32  C   UNL     1      -9.481   4.469  71.759  1.00  0.00    -0.206 A  
HETATM   33  C   UNL     1      -9.674   5.380  70.720  1.00  0.00    -0.239 A  
HETATM   34  C   UNL     1     -11.400   5.382  72.900  1.00  0.00    -0.365 A  
HETATM   35  C   UNL     1     -10.342   4.476  72.854  1.00  0.00    -0.243 A  
HETATM   36  C   UNL     1     -11.593   6.294  71.857  1.00  0.00    -0.369 A  
ENDBRANCH  30  31
ENDBRANCH  29  30
ENDBRANCH  15  29
ENDBRANCH  12  15
ENDBRANCH  11  12
ENDBRANCH   8  11
BRANCH   9  37
HETATM   37  C   UNL     1      -5.959   9.141  65.592  1.00  0.00    -0.055 C  
HETATM   38  C   UNL     1      -5.957   8.976  62.451  1.00  0.00    -0.091 C  
HETATM   39  O   UNL     1      -5.352  10.179  65.337  1.00  0.00    -0.053 OA 
HETATM   40  C   UNL     1      -8.303   8.218  62.796  1.00  0.00    -0.111 C  
HETATM   41  C   UNL     1      -7.177   9.091  63.376  1.00  0.00    -0.092 C  
HETATM   42  N   UNL     1      -6.877   8.578  64.720  1.00  0.00    -0.072 N  
HETATM   43  C   UNL     1      -7.661  10.547  63.419  1.00  0.00    -0.002 C  
HETATM   44  H   UNL     1      -7.381   7.749  65.033  1.00  0.00     0.000 HD 
ENDBRANCH   9  37
TORSDOF 9
ENDMDL
MODEL      198
REMARK 921   NORMALIZED FREE ENERGY PREDICTED BY IDOCK:   -3.95 KCAL/MOL
REMARK 922        TOTAL FREE ENERGY PREDICTED BY IDOCK:   -8.86 KCAL/MOL
REMARK 923 INTER-LIGAND FREE ENERGY PREDICTED BY IDOCK:   -5.96 KCAL/MOL
REMARK 924 INTRA-LIGAND FREE ENERGY PREDICTED BY IDOCK:   -2.90 KCAL/MOL
REMARK 927      BINDING AFFINITY PREDICTED BY RF-SCORE:    0.00 PKD
ROOT
HETATM    1  C   UNL     1      -6.344  10.563  69.103  1.00  0.00    -0.051 C  
HETATM    2  C   UNL     1      -6.726  12.047  69.139  1.00  0.00    -0.101 C  
HETATM    3  C   UNL     1      -8.038  12.313  68.411  1.00  0.00    -0.151 C  
HETATM    4  C   UNL     1      -7.960  11.851  66.962  1.00  0.00    -0.158 C  
HETATM    5  C   UNL     1      -7.531  10.391  66.823  1.00  0.00    -0.110 C  
HETATM    6  C   UNL     1      -6.311  10.011  67.677  1.00  0.00    -0.059 C  
HETATM    7  C   UNL     1      -6.069   8.493  67.740  1.00  0.00    -0.048 C  
HETATM    8  N   UNL     1      -7.145   7.736  68.389  1.00  0.00    -0.075 NA 
HETATM    9  C   UNL     1      -7.679   8.346  69.620  1.00  0.00    -0.095 C  
HETATM   10  C   UNL     1      -7.205   9.741  70.071  1.00  0.00    -0.130 C  
ENDROOT
BRANCH   8  11
HETATM   11  C   UNL     1      -6.755   6.315  68.573  1.00  0.00    -0.064 C  
BRANCH  11  12
HETATM   12  C   UNL     1      -7.395   5.214  67.663  1.00  0.00    -0.075 C  
HETATM   13  H   UNL     1      -6.775   3.817  66.385  1.00  0.00     0.000 HD 
HETATM   14  O   UNL     1      -6.387   4.485  66.938  1.00  0.00    -0.035 OA 
BRANCH  12  15
HETATM   15  C   UNL     1      -8.350   4.246  68.411  1.00  0.00    -0.092 C  
BRANCH  15  16
HETATM   16  N   UNL     1      -8.787   4.749  69.719  1.00  0.00    -0.091 N  
HETATM   17  C   UNL     1      -8.509   4.111  70.906  1.00  0.00    -0.079 C  
HETATM   18  O   UNL     1      -7.885   3.060  70.998  1.00  0.00    -0.046 OA 
HETATM   19  H   UNL     1      -9.325   5.615  69.750  1.00  0.00     0.000 HD 
BRANCH  17  20
HETATM   20  C   UNL     1      -9.058   4.731  72.135  1.00  0.00    -0.148 A  
HETATM   21  C   UNL     1     -10.301   4.266  72.600  1.00  0.00    -0.243 A  
HETATM   22  H   UNL     1      -8.966   7.861  75.286  1.00  0.00     0.000 HD 
HETATM   23  C   UNL     1      -8.392   5.797  72.780  1.00  0.00    -0.119 A  
HETATM   24  C   UNL     1      -9.041   6.385  73.875  1.00  0.00    -0.136 A  
HETATM   25  C   UNL     1     -10.891   4.839  73.719  1.00  0.00    -0.379 A  
HETATM   26  C   UNL     1      -7.039   6.309  72.352  1.00  0.00    -0.083 C  
HETATM   27  O   UNL     1      -8.526   7.462  74.544  1.00  0.00    -0.192 OA 
HETATM   28  C   UNL     1     -10.259   5.905  74.352  1.00  0.00    -0.304 A  
ENDBRANCH  17  20
ENDBRANCH  15  16
BRANCH  15  29
HETATM   29  C   UNL     1      -9.535   3.747  67.532  1.00  0.00    -0.191 C  
BRANCH  29  30
HETATM   30  S   UNL     1     -10.238   4.977  66.372  1.00  0.00    -0.289 SA 
BRANCH  30  31
HETATM   31  C   UNL     1      -9.868   4.322  64.762  1.00  0.00    -0.158 A  
HETATM   32  C   UNL     1      -8.134   3.819  63.133  1.00  0.00    -0.080 A  
HETATM   33  C   UNL     1      -8.539   4.416  64.327  1.00  0.00    -0.123 A  
HETATM   34  C   UNL     1     -10.385   3.030  62.778  1.00  0.00    -0.141 A  
HETATM   35  C   UNL     1      -9.058   3.119  62.361  1.00  0.00    -0.087 A  
HETATM   36  C   UNL     1     -10.790   3.629  63.975  1.00  0.00    -0.185 A  
ENDBRANCH  30  31
ENDBRANCH  29  30
ENDBRANCH  15  29
ENDBRANCH  12  15
ENDBRANCH  11  12
ENDBRANCH   8  11
BRANCH   9  37
HETATM   37  C   UNL     1      -9.239   8.354  69.549  1.00  0.00    -0.154 C  
HETATM   38  C   UNL     1     -11.910   7.027  70.545  1.00  0.00    -0.337 C  
HETATM   39  O   UNL     1      -9.881   8.386  68.502  1.00  0.00    -0.164 OA 
HETATM   40  C   UNL     1     -11.519   8.462  72.542  1.00  0.00    -0.422 C  
HETATM   41  C   UNL     1     -11.294   8.348  71.024  1.00  0.00    -0.266 C  
HETATM   42  N   UNL     1      -9.842   8.372  70.796  1.00  0.00    -0.178 N  
HETATM   43  C   UNL     1     -11.996   9.529  70.338  1.00  0.00    -0.123 C  
HETATM   44  H   UNL     1      -9.235   8.404  71.615  1.00  0.00     0.000 HD 
ENDBRANCH   9  37
TORSDOF 9
ENDMDL
MODEL      199
REMARK 921   NORMALIZED FREE ENERGY PREDICTED BY IDOCK:   -3.93 KCAL/MOL
REMARK 922        TOTAL FREE ENERGY PREDICTED BY IDOCK:   -8.83 KCAL/MOL
REMARK 923 INTER-LIGAND FREE ENERGY PREDICTED BY IDOCK:   -6.76 KCAL/MOL
REMARK 924 INTRA-LIGAND FREE ENERGY PREDICTED BY IDOCK:   -2.07 KCAL/MOL
REMARK 927      BINDING AFFINITY PREDICTED BY RF-SCORE:    0.00 PKD
ROOT
HETATM    1  C   UNL     1      -8.198   3.919  66.211  1.00  0.00    -0.104 C  
HETATM    2  C   UNL     1      -7.193   3.070  65.426  1.00  0.00    -0.066 C  
HETATM    3  C   UNL     1      -7.151   3.458  63.953  1.00  0.00    -0.050 C  
HETATM    4  C   UNL     1      -8.527   3.321  63.315  1.00  0.00    -0.089 C  
HETATM    5  C   UNL     1      -9.612   4.094  64.064  1.00  0.00    -0.142 C  
HETATM    6  C   UNL     1      -9.594   3.884  65.587  1.00  0.00    -0.182 C  
HETATM    7  C   UNL     1     -10.499   4.873  66.342  1.00  0.00    -0.280 C  
HETATM    8  N   UNL     1     -10.092   6.277  66.222  1.00  0.00    -0.019 NA 
HETATM    9  C   UNL     1      -8.643   6.517  66.349  1.00  0.00    -0.136 C  
HETATM   10  C   UNL     1      -7.662   5.335  66.459  1.00  0.00    -0.096 C  
ENDROOT
BRANCH   8  11
HETATM   11  C   UNL     1     -10.899   7.140  67.122  1.00  0.00    -0.333 C  
BRANCH  11  12
HETATM   12  C   UNL     1     -10.415   7.390  68.589  1.00  0.00    -0.189 C  
HETATM   13  H   UNL     1      -9.537   6.354  70.046  1.00  0.00     0.000 HD 
HETATM   14  O   UNL     1      -9.831   6.202  69.156  1.00  0.00    -0.139 OA 
BRANCH  12  15
HETATM   15  C   UNL     1      -9.462   8.605  68.746  1.00  0.00    -0.143 C  
BRANCH  15  16
HETATM   16  N   UNL     1     -10.124   9.804  69.276  1.00  0.00    -0.186 N  
HETATM   17  C   UNL     1     -10.793  10.710  68.486  1.00  0.00    -0.233 C  
HETATM   18  O   UNL     1     -10.898  10.623  67.268  1.00  0.00    -0.269 OA 
HETATM   19  H   UNL     1     -10.084   9.974  70.281  1.00  0.00     0.000 HD 
BRANCH  17  20
HETATM   20  C   UNL     1     -11.372  11.887  69.175  1.00  0.00    -0.338 A  
HETATM   21  C   UNL     1     -12.241  11.647  70.255  1.00  0.00    -0.401 A  
HETATM   22  H   UNL     1     -12.133  16.255  69.438  1.00  0.00     0.000 HD 
HETATM   23  C   UNL     1     -11.117  13.201  68.725  1.00  0.00    -0.309 A  
HETATM   24  C   UNL     1     -11.792  14.242  69.379  1.00  0.00    -0.326 A  
HETATM   25  C   UNL     1     -12.853  12.706  70.912  1.00  0.00    -0.178 A  
HETATM   26  C   UNL     1     -10.164  13.521  67.602  1.00  0.00    -0.239 C  
HETATM   27  O   UNL     1     -11.675  15.550  68.996  1.00  0.00    -0.346 OA 
HETATM   28  C   UNL     1     -12.631  14.005  70.467  1.00  0.00    -0.399 A  
ENDBRANCH  17  20
ENDBRANCH  15  16
BRANCH  15  29
HETATM   29  C   UNL     1      -8.143   8.262  69.502  1.00  0.00    -0.114 C  
BRANCH  29  30
HETATM   30  S   UNL     1      -6.598   8.473  68.542  1.00  0.00    -0.060 SA 
BRANCH  30  31
HETATM   31  C   UNL     1      -6.413  10.235  68.393  1.00  0.00    -0.048 A  
HETATM   32  C   UNL     1      -5.566  12.072  67.044  1.00  0.00    -0.112 A  
HETATM   33  C   UNL     1      -5.660  10.706  67.309  1.00  0.00    -0.041 A  
HETATM   34  C   UNL     1      -6.970  12.526  68.951  1.00  0.00    -0.088 A  
HETATM   35  C   UNL     1      -6.228  12.983  67.863  1.00  0.00    -0.134 A  
HETATM   36  C   UNL     1      -7.063  11.156  69.216  1.00  0.00    -0.123 A  
ENDBRANCH  30  31
ENDBRANCH  29  30
ENDBRANCH  15  29
ENDBRANCH  12  15
ENDBRANCH  11  12
ENDBRANCH   8  11
BRANCH   9  37
HETATM   37  C   UNL     1      -8.175   7.439  65.179  1.00  0.00    -0.113 C  
HETATM   38  C   UNL     1      -8.986   9.691  63.139  1.00  0.00    -0.253 C  
HETATM   39  O   UNL     1      -7.567   7.041  64.188  1.00  0.00    -0.098 OA 
HETATM   40  C   UNL     1      -8.598  11.178  65.098  1.00  0.00     0.069 C  
HETATM   41  C   UNL     1      -8.178   9.856  64.433  1.00  0.00    -0.164 C  
HETATM   42  N   UNL     1      -8.471   8.777  65.386  1.00  0.00    -0.160 N  
HETATM   43  C   UNL     1      -6.680   9.931  64.105  1.00  0.00    -0.126 C  
HETATM   44  H   UNL     1      -8.926   9.030  66.263  1.00  0.00     0.000 HD 
ENDBRANCH   9  37
TORSDOF 9
ENDMDL
MODEL      200
REMARK 921   NORMALIZED FREE ENERGY PREDICTED BY IDOCK:   -3.92 KCAL/MOL
REMARK 922        TOTAL FREE ENERGY PREDICTED BY IDOCK:   -8.81 KCAL/MOL
REMARK 923 INTER-LIGAND FREE ENERGY PREDICTED BY IDOCK:   -5.38 KCAL/MOL
REMARK 924 INTRA-LIGAND FREE ENERGY PREDICTED BY IDOCK:   -3.43 KCAL/MOL
REMARK 927      BINDING AFFINITY PREDICTED BY RF-SCORE:    0.00 PKD
ROOT
HETATM    1  C   UNL     1     -11.641   7.373  70.471  1.00  0.00    -0.256 C  
HETATM    2  C   UNL     1     -11.966   7.253  71.963  1.00  0.00    -0.333 C  
HETATM    3  C   UNL     1     -10.829   6.603  72.741  1.00  0.00    -0.283 C  
HETATM    4  C   UNL     1     -10.509   5.221  72.186  1.00  0.00    -0.278 C  
HETATM    5  C   UNL     1     -10.222   5.233  70.685  1.00  0.00    -0.327 C  
HETATM    6  C   UNL     1     -11.243   6.029  69.857  1.00  0.00    -0.438 C  
HETATM    7  C   UNL     1     -10.791   6.263  68.405  1.00  0.00    -0.319 C  
HETATM    8  N   UNL     1      -9.582   7.084  68.273  1.00  0.00    -0.134 NA 
HETATM    9  C   UNL     1      -9.537   8.267  69.151  1.00  0.00    -0.160 C  
HETATM   10  C   UNL     1     -10.635   8.501  70.207  1.00  0.00    -0.238 C  
ENDROOT
BRANCH   8  11
HETATM   11  C   UNL     1      -9.320   7.414  66.849  1.00  0.00    -0.157 C  
BRANCH  11  12
HETATM   12  C   UNL     1      -8.172   6.675  66.085  1.00  0.00    -0.124 C  
HETATM   13  H   UNL     1      -7.692   6.255  64.198  1.00  0.00     0.000 HD 
HETATM   14  O   UNL     1      -8.389   6.704  64.661  1.00  0.00    -0.087 OA 
BRANCH  12  15
HETATM   15  C   UNL     1      -6.746   7.177  66.439  1.00  0.00    -0.053 C  
BRANCH  15  16
HETATM   16  N   UNL     1      -6.708   8.583  66.859  1.00  0.00    -0.061 N  
HETATM   17  C   UNL     1      -6.616   9.634  65.976  1.00  0.00    -0.079 C  
HETATM   18  O   UNL     1      -6.545   9.512  64.759  1.00  0.00    -0.080 OA 
HETATM   19  H   UNL     1      -6.751   8.791  67.857  1.00  0.00     0.000 HD 
BRANCH  17  20
HETATM   20  C   UNL     1      -6.549  10.991  66.568  1.00  0.00    -0.132 A  
HETATM   21  C   UNL     1      -5.277  11.505  66.875  1.00  0.00    -0.114 A  
HETATM   22  H   UNL     1      -8.505  14.548  68.370  1.00  0.00     0.000 HD 
HETATM   23  C   UNL     1      -7.721  11.717  66.874  1.00  0.00    -0.129 A  
HETATM   24  C   UNL     1      -7.557  12.948  67.525  1.00  0.00    -0.164 A  
HETATM   25  C   UNL     1      -5.150  12.751  67.474  1.00  0.00    -0.060 A  
HETATM   26  C   UNL     1      -9.108  11.236  66.530  1.00  0.00    -0.193 C  
HETATM   27  O   UNL     1      -8.616  13.714  67.929  1.00  0.00    -0.158 OA 
HETATM   28  C   UNL     1      -6.295  13.469  67.804  1.00  0.00    -0.166 A  
ENDBRANCH  17  20
ENDBRANCH  15  16
BRANCH  15  29
HETATM   29  C   UNL     1      -5.987   6.235  67.420  1.00  0.00    -0.017 C  
BRANCH  29  30
HETATM   30  S   UNL     1      -5.650   4.545  66.800  1.00  0.00    -0.014 SA 
BRANCH  30  31
HETATM   31  C   UNL     1      -6.894   3.539  67.573  1.00  0.00    -0.050 A  
HETATM   32  C   UNL     1      -7.684   2.533  69.642  1.00  0.00    -0.046 A  
HETATM   33  C   UNL     1      -6.700   3.213  68.923  1.00  0.00    -0.037 A  
HETATM   34  C   UNL     1      -9.072   2.483  67.671  1.00  0.00    -0.222 A  
HETATM   35  C   UNL     1      -8.875   2.174  69.015  1.00  0.00    -0.144 A  
HETATM   36  C   UNL     1      -8.086   3.163  66.951  1.00  0.00    -0.080 A  
ENDBRANCH  30  31
ENDBRANCH  29  30
ENDBRANCH  15  29
ENDBRANCH  12  15
ENDBRANCH  11  12
ENDBRANCH   8  11
BRANCH   9  37
HETATM   37  C   UNL     1      -8.148   8.319  69.864  1.00  0.00    -0.117 C  
HETATM   38  C   UNL     1      -5.186   9.367  69.749  1.00  0.00    -0.033 C  
HETATM   39  O   UNL     1      -7.570   7.334  70.318  1.00  0.00    -0.086 OA 
HETATM   40  C   UNL     1      -6.223  11.473  70.579  1.00  0.00     0.082 C  
HETATM   41  C   UNL     1      -6.343   9.939  70.580  1.00  0.00    -0.109 C  
HETATM   42  N   UNL     1      -7.643   9.603  69.984  1.00  0.00    -0.128 N  
HETATM   43  C   UNL     1      -6.237   9.443  72.029  1.00  0.00     0.146 C  
HETATM   44  H   UNL     1      -8.215  10.371  69.632  1.00  0.00     0.000 HD 
ENDBRANCH   9  37
TORSDOF 9
ENDMDL
MODEL      201
REMARK 921   NORMALIZED FREE ENERGY PREDICTED BY IDOCK:   -3.90 KCAL/MOL
REMARK 922        TOTAL FREE ENERGY PREDICTED BY IDOCK:   -8.79 KCAL/MOL
REMARK 923 INTER-LIGAND FREE ENERGY PREDICTED BY IDOCK:   -6.75 KCAL/MOL
REMARK 924 INTRA-LIGAND FREE ENERGY PREDICTED BY IDOCK:   -2.04 KCAL/MOL
REMARK 927      BINDING AFFINITY PREDICTED BY RF-SCORE:    0.00 PKD
ROOT
HETATM    1  C   UNL     1      -9.308  13.500  67.387  1.00  0.00    -0.228 C  
HETATM    2  C   UNL     1      -9.630  14.687  68.301  1.00  0.00    -0.208 C  
HETATM    3  C   UNL     1     -11.057  14.623  68.832  1.00  0.00    -0.268 C  
HETATM    4  C   UNL     1     -12.062  14.584  67.689  1.00  0.00    -0.266 C  
HETATM    5  C   UNL     1     -11.788  13.460  66.690  1.00  0.00    -0.443 C  
HETATM    6  C   UNL     1     -10.320  13.357  66.248  1.00  0.00    -0.291 C  
HETATM    7  C   UNL     1     -10.013  12.064  65.473  1.00  0.00    -0.241 C  
HETATM    8  N   UNL     1     -10.184  10.835  66.255  1.00  0.00    -0.238 NA 
HETATM    9  C   UNL     1      -9.652  10.894  67.629  1.00  0.00    -0.163 C  
HETATM   10  C   UNL     1      -9.094  12.213  68.195  1.00  0.00    -0.196 C  
ENDROOT
BRANCH   8  11
HETATM   11  C   UNL     1      -9.695   9.655  65.498  1.00  0.00    -0.301 C  
BRANCH  11  12
HETATM   12  C   UNL     1      -8.156   9.452  65.296  1.00  0.00    -0.124 C  
HETATM   13  H   UNL     1      -6.473  10.425  65.733  1.00  0.00     0.000 HD 
HETATM   14  O   UNL     1      -7.407  10.547  65.856  1.00  0.00    -0.137 OA 
BRANCH  12  15
HETATM   15  C   UNL     1      -7.620   8.091  65.815  1.00  0.00    -0.083 C  
BRANCH  15  16
HETATM   16  N   UNL     1      -7.143   8.140  67.203  1.00  0.00    -0.078 N  
HETATM   17  C   UNL     1      -7.906   7.748  68.279  1.00  0.00    -0.121 C  
HETATM   18  O   UNL     1      -9.056   7.331  68.198  1.00  0.00    -0.135 OA 
HETATM   19  H   UNL     1      -6.199   8.483  67.379  1.00  0.00     0.000 HD 
BRANCH  17  20
HETATM   20  C   UNL     1      -7.289   7.898  69.618  1.00  0.00    -0.090 A  
HETATM   21  C   UNL     1      -6.814   9.172  69.976  1.00  0.00    -0.049 A  
HETATM   22  H   UNL     1      -5.690   6.160  73.380  1.00  0.00     0.000 HD 
HETATM   23  C   UNL     1      -7.121   6.790  70.478  1.00  0.00    -0.068 A  
HETATM   24  C   UNL     1      -6.434   7.013  71.680  1.00  0.00    -0.048 A  
HETATM   25  C   UNL     1      -6.182   9.367  71.198  1.00  0.00    -0.077 A  
HETATM   26  C   UNL     1      -7.647   5.411  70.165  1.00  0.00    -0.073 C  
HETATM   27  O   UNL     1      -6.156   6.009  72.566  1.00  0.00    -0.039 OA 
HETATM   28  C   UNL     1      -5.988   8.282  72.046  1.00  0.00    -0.049 A  
ENDBRANCH  17  20
ENDBRANCH  15  16
BRANCH  15  29
HETATM   29  C   UNL     1      -8.595   6.904  65.556  1.00  0.00    -0.077 C  
BRANCH  29  30
HETATM   30  S   UNL     1      -7.842   5.399  64.837  1.00  0.00    -0.108 SA 
BRANCH  30  31
HETATM   31  C   UNL     1      -8.090   4.149  66.077  1.00  0.00    -0.098 A  
HETATM   32  C   UNL     1      -9.635   3.165  67.675  1.00  0.00    -0.105 A  
HETATM   33  C   UNL     1      -9.305   4.178  66.775  1.00  0.00    -0.190 A  
HETATM   34  C   UNL     1      -7.535   2.078  67.205  1.00  0.00    -0.060 A  
HETATM   35  C   UNL     1      -8.751   2.110  67.885  1.00  0.00    -0.130 A  
HETATM   36  C   UNL     1      -7.205   3.094  66.303  1.00  0.00    -0.070 A  
ENDBRANCH  30  31
ENDBRANCH  29  30
ENDBRANCH  15  29
ENDBRANCH  12  15
ENDBRANCH  11  12
ENDBRANCH   8  11
BRANCH   9  37
HETATM   37  C   UNL     1     -10.732  10.350  68.617  1.00  0.00    -0.218 C  
HETATM   38  C   UNL     1     -11.657   7.942  70.415  1.00  0.00    -0.092 C  
HETATM   39  O   UNL     1     -11.942  10.399  68.409  1.00  0.00    -0.270 OA 
HETATM   40  C   UNL     1      -9.992   8.890  72.005  1.00  0.00    -0.338 C  
HETATM   41  C   UNL     1     -10.976   9.238  70.875  1.00  0.00    -0.299 C  
HETATM   42  N   UNL     1     -10.194   9.844  69.789  1.00  0.00    -0.230 N  
HETATM   43  C   UNL     1     -12.028  10.210  71.427  1.00  0.00    -0.447 C  
HETATM   44  H   UNL     1      -9.182   9.895  69.906  1.00  0.00     0.000 HD 
ENDBRANCH   9  37
TORSDOF 9
ENDMDL
MODEL      202
REMARK 921   NORMALIZED FREE ENERGY PREDICTED BY IDOCK:   -3.87 KCAL/MOL
REMARK 922        TOTAL FREE ENERGY PREDICTED BY IDOCK:   -8.74 KCAL/MOL
REMARK 923 INTER-LIGAND FREE ENERGY PREDICTED BY IDOCK:   -7.08 KCAL/MOL
REMARK 924 INTRA-LIGAND FREE ENERGY PREDICTED BY IDOCK:   -1.66 KCAL/MOL
REMARK 927      BINDING AFFINITY PREDICTED BY RF-SCORE:    0.00 PKD
ROOT
HETATM    1  C   UNL     1      -6.336   9.169  68.326  1.00  0.00    -0.054 C  
HETATM    2  C   UNL     1      -5.439   7.979  68.683  1.00  0.00    -0.031 C  
HETATM    3  C   UNL     1      -5.696   7.480  70.100  1.00  0.00    -0.024 C  
HETATM    4  C   UNL     1      -5.479   8.593  71.116  1.00  0.00    -0.034 C  
HETATM    5  C   UNL     1      -6.294   9.848  70.811  1.00  0.00    -0.086 C  
HETATM    6  C   UNL     1      -6.220  10.304  69.345  1.00  0.00    -0.047 C  
HETATM    7  C   UNL     1      -7.255  11.388  68.998  1.00  0.00    -0.118 C  
HETATM    8  N   UNL     1      -8.650  10.950  69.112  1.00  0.00    -0.103 NA 
HETATM    9  C   UNL     1      -8.927   9.609  68.565  1.00  0.00    -0.124 C  
HETATM   10  C   UNL     1      -7.777   8.721  68.052  1.00  0.00    -0.101 C  
ENDROOT
BRANCH   8  11
HETATM   11  C   UNL     1      -9.574  11.987  68.586  1.00  0.00    -0.080 C  
BRANCH  11  12
HETATM   12  C   UNL     1     -10.969  11.561  68.018  1.00  0.00    -0.231 C  
HETATM   13  H   UNL     1     -12.810  11.252  68.714  1.00  0.00     0.000 HD 
HETATM   14  O   UNL     1     -11.964  11.511  69.058  1.00  0.00    -0.325 OA 
BRANCH  12  15
HETATM   15  C   UNL     1     -11.459  12.420  66.822  1.00  0.00    -0.362 C  
BRANCH  15  16
HETATM   16  N   UNL     1     -10.694  13.660  66.639  1.00  0.00    -0.279 N  
HETATM   17  C   UNL     1     -10.660  14.672  67.571  1.00  0.00    -0.257 C  
HETATM   18  O   UNL     1     -11.268  14.655  68.635  1.00  0.00    -0.252 OA 
HETATM   19  H   UNL     1     -10.160  13.777  65.778  1.00  0.00     0.000 HD 
BRANCH  17  20
HETATM   20  C   UNL     1      -9.870  15.874  67.214  1.00  0.00    -0.234 A  
HETATM   21  C   UNL     1     -10.467  16.814  66.355  1.00  0.00    -0.269 A  
HETATM   22  H   UNL     1      -6.057  18.152  67.181  1.00  0.00     0.000 HD 
HETATM   23  C   UNL     1      -8.541  16.039  67.663  1.00  0.00    -0.175 A  
HETATM   24  C   UNL     1      -7.842  17.158  67.189  1.00  0.00    -0.184 A  
HETATM   25  C   UNL     1      -9.761  17.937  65.946  1.00  0.00    -0.016 A  
HETATM   26  C   UNL     1      -7.865  15.086  68.617  1.00  0.00    -0.138 C  
HETATM   27  O   UNL     1      -6.531  17.394  67.503  1.00  0.00    -0.134 OA 
HETATM   28  C   UNL     1      -8.443  18.104  66.360  1.00  0.00    -0.263 A  
ENDBRANCH  17  20
ENDBRANCH  15  16
BRANCH  15  29
HETATM   29  C   UNL     1     -11.614  11.609  65.501  1.00  0.00    -0.016 C  
BRANCH  29  30
HETATM   30  S   UNL     1     -10.703  12.264  64.054  1.00  0.00    -0.438 SA 
BRANCH  30  31
HETATM   31  C   UNL     1      -9.375  11.108  63.812  1.00  0.00    -0.188 A  
HETATM   32  C   UNL     1      -7.580  10.367  62.348  1.00  0.00    -0.166 A  
HETATM   33  C   UNL     1      -8.711  11.151  62.579  1.00  0.00    -0.304 A  
HETATM   34  C   UNL     1      -7.761   9.472  64.580  1.00  0.00    -0.118 A  
HETATM   35  C   UNL     1      -7.101   9.531  63.354  1.00  0.00    -0.101 A  
HETATM   36  C   UNL     1      -8.895  10.257  64.809  1.00  0.00    -0.217 A  
ENDBRANCH  30  31
ENDBRANCH  29  30
ENDBRANCH  15  29
ENDBRANCH  12  15
ENDBRANCH  11  12
ENDBRANCH   8  11
BRANCH   9  37
HETATM   37  C   UNL     1      -9.751   8.793  69.612  1.00  0.00    -0.173 C  
HETATM   38  C   UNL     1      -9.712   6.485  71.747  1.00  0.00    -0.168 C  
HETATM   39  O   UNL     1     -10.849   8.291  69.384  1.00  0.00    -0.193 OA 
HETATM   40  C   UNL     1      -8.730   8.257  73.194  1.00  0.00    -0.291 C  
HETATM   41  C   UNL     1      -9.678   7.996  72.011  1.00  0.00    -0.203 C  
HETATM   42  N   UNL     1      -9.142   8.728  70.854  1.00  0.00    -0.188 N  
HETATM   43  C   UNL     1     -11.081   8.489  72.393  1.00  0.00    -0.397 C  
HETATM   44  H   UNL     1      -8.258   9.222  70.975  1.00  0.00     0.000 HD 
ENDBRANCH   9  37
TORSDOF 9
ENDMDL
MODEL      203
REMARK 921   NORMALIZED FREE ENERGY PREDICTED BY IDOCK:   -3.85 KCAL/MOL
REMARK 922        TOTAL FREE ENERGY PREDICTED BY IDOCK:   -8.71 KCAL/MOL
REMARK 923 INTER-LIGAND FREE ENERGY PREDICTED BY IDOCK:   -6.39 KCAL/MOL
REMARK 924 INTRA-LIGAND FREE ENERGY PREDICTED BY IDOCK:   -2.32 KCAL/MOL
REMARK 927      BINDING AFFINITY PREDICTED BY RF-SCORE:    0.00 PKD
ROOT
HETATM    1  C   UNL     1     -10.038   8.919  68.034  1.00  0.00    -0.239 C  
HETATM    2  C   UNL     1     -10.886  10.108  67.567  1.00  0.00    -0.349 C  
HETATM    3  C   UNL     1     -10.102  11.037  66.648  1.00  0.00    -0.262 C  
HETATM    4  C   UNL     1      -8.849  11.557  67.340  1.00  0.00    -0.157 C  
HETATM    5  C   UNL     1      -7.963  10.440  67.890  1.00  0.00    -0.102 C  
HETATM    6  C   UNL     1      -8.726   9.366  68.682  1.00  0.00    -0.131 C  
HETATM    7  C   UNL     1      -7.875   8.121  68.983  1.00  0.00    -0.108 C  
HETATM    8  N   UNL     1      -7.447   7.378  67.793  1.00  0.00    -0.099 NA 
HETATM    9  C   UNL     1      -8.488   7.202  66.764  1.00  0.00    -0.121 C  
HETATM   10  C   UNL     1      -9.861   7.885  66.915  1.00  0.00    -0.309 C  
ENDROOT
BRANCH   8  11
HETATM   11  C   UNL     1      -6.793   6.100  68.174  1.00  0.00    -0.067 C  
BRANCH  11  12
HETATM   12  C   UNL     1      -7.321   4.754  67.573  1.00  0.00    -0.074 C  
HETATM   13  H   UNL     1      -6.592   2.955  67.126  1.00  0.00     0.000 HD 
HETATM   14  O   UNL     1      -6.272   3.772  67.491  1.00  0.00    -0.034 OA 
BRANCH  12  15
HETATM   15  C   UNL     1      -8.565   4.178  68.301  1.00  0.00    -0.095 C  
BRANCH  15  16
HETATM   16  N   UNL     1      -9.194   5.127  69.228  1.00  0.00    -0.105 N  
HETATM   17  C   UNL     1      -9.324   4.893  70.578  1.00  0.00    -0.154 C  
HETATM   18  O   UNL     1      -8.945   3.874  71.144  1.00  0.00    -0.094 OA 
HETATM   19  H   UNL     1      -9.553   6.005  68.852  1.00  0.00     0.000 HD 
BRANCH  17  20
HETATM   20  C   UNL     1     -10.019   5.938  71.366  1.00  0.00    -0.228 A  
HETATM   21  C   UNL     1      -9.518   6.226  72.649  1.00  0.00    -0.148 A  
HETATM   22  H   UNL     1     -13.426   8.718  71.989  1.00  0.00     0.000 HD 
HETATM   23  C   UNL     1     -11.181   6.575  70.878  1.00  0.00    -0.366 A  
HETATM   24  C   UNL     1     -11.824   7.475  71.740  1.00  0.00    -0.294 A  
HETATM   25  C   UNL     1     -10.153   7.160  73.456  1.00  0.00    -0.374 A  
HETATM   26  C   UNL     1     -11.738   6.338  69.497  1.00  0.00    -0.013 C  
HETATM   27  O   UNL     1     -12.990   8.108  71.406  1.00  0.00    -0.306 OA 
HETATM   28  C   UNL     1     -11.312   7.780  73.000  1.00  0.00    -0.331 A  
ENDBRANCH  17  20
ENDBRANCH  15  16
BRANCH  15  29
HETATM   29  C   UNL     1      -9.590   3.510  67.336  1.00  0.00    -0.125 C  
BRANCH  29  30
HETATM   30  S   UNL     1      -8.953   2.110  66.344  1.00  0.00    -0.061 SA 
BRANCH  30  31
HETATM   31  C   UNL     1      -8.360   2.866  64.849  1.00  0.00    -0.088 A  
HETATM   32  C   UNL     1      -6.973   2.614  62.867  1.00  0.00    -0.032 A  
HETATM   33  C   UNL     1      -7.402   2.156  64.113  1.00  0.00    -0.058 A  
HETATM   34  C   UNL     1      -8.448   4.511  63.071  1.00  0.00    -0.107 A  
HETATM   35  C   UNL     1      -7.503   3.791  62.343  1.00  0.00    -0.045 A  
HETATM   36  C   UNL     1      -8.876   4.051  64.321  1.00  0.00    -0.130 A  
ENDBRANCH  30  31
ENDBRANCH  29  30
ENDBRANCH  15  29
ENDBRANCH  12  15
ENDBRANCH  11  12
ENDBRANCH   8  11
BRANCH   9  37
HETATM   37  C   UNL     1      -7.897   7.586  65.371  1.00  0.00    -0.117 C  
HETATM   38  C   UNL     1      -8.501   8.134  62.333  1.00  0.00    -0.099 C  
HETATM   39  O   UNL     1      -6.909   7.052  64.870  1.00  0.00    -0.045 OA 
HETATM   40  C   UNL     1      -9.187  10.368  63.190  1.00  0.00    -0.314 C  
HETATM   41  C   UNL     1      -8.250   9.174  63.434  1.00  0.00    -0.178 C  
HETATM   42  N   UNL     1      -8.570   8.633  64.762  1.00  0.00    -0.323 N  
HETATM   43  C   UNL     1      -6.798   9.670  63.358  1.00  0.00    -0.108 C  
HETATM   44  H   UNL     1      -9.344   9.058  65.272  1.00  0.00     0.000 HD 
ENDBRANCH   9  37
TORSDOF 9
ENDMDL
MODEL      204
REMARK 921   NORMALIZED FREE ENERGY PREDICTED BY IDOCK:   -3.83 KCAL/MOL
REMARK 922        TOTAL FREE ENERGY PREDICTED BY IDOCK:   -8.68 KCAL/MOL
REMARK 923 INTER-LIGAND FREE ENERGY PREDICTED BY IDOCK:   -7.52 KCAL/MOL
REMARK 924 INTRA-LIGAND FREE ENERGY PREDICTED BY IDOCK:   -1.16 KCAL/MOL
REMARK 927      BINDING AFFINITY PREDICTED BY RF-SCORE:    0.00 PKD
ROOT
HETATM    1  C   UNL     1      -9.267  14.530  68.858  1.00  0.00    -0.118 C  
HETATM    2  C   UNL     1     -10.104  15.750  69.255  1.00  0.00    -0.255 C  
HETATM    3  C   UNL     1     -10.766  16.402  68.047  1.00  0.00    -0.334 C  
HETATM    4  C   UNL     1      -9.724  16.823  67.019  1.00  0.00    -0.254 C  
HETATM    5  C   UNL     1      -8.802  15.680  66.600  1.00  0.00    -0.327 C  
HETATM    6  C   UNL     1      -8.239  14.864  67.775  1.00  0.00    -0.164 C  
HETATM    7  C   UNL     1      -7.549  13.563  67.330  1.00  0.00    -0.128 C  
HETATM    8  N   UNL     1      -8.442  12.595  66.685  1.00  0.00    -0.049 NA 
HETATM    9  C   UNL     1      -9.753  12.427  67.340  1.00  0.00    -0.193 C  
HETATM   10  C   UNL     1     -10.156  13.326  68.525  1.00  0.00    -0.208 C  
ENDROOT
BRANCH   8  11
HETATM   11  C   UNL     1      -7.744  11.304  66.456  1.00  0.00    -0.125 C  
BRANCH  11  12
HETATM   12  C   UNL     1      -7.439  10.365  67.670  1.00  0.00    -0.089 C  
HETATM   13  H   UNL     1      -7.453  10.480  69.659  1.00  0.00     0.000 HD 
HETATM   14  O   UNL     1      -7.639  11.049  68.922  1.00  0.00    -0.117 OA 
BRANCH  12  15
HETATM   15  C   UNL     1      -8.213   9.020  67.645  1.00  0.00    -0.109 C  
BRANCH  15  16
HETATM   16  N   UNL     1      -8.973   8.758  68.873  1.00  0.00    -0.134 N  
HETATM   17  C   UNL     1      -8.880   7.584  69.585  1.00  0.00    -0.141 C  
HETATM   18  O   UNL     1      -8.171   6.636  69.268  1.00  0.00    -0.120 OA 
HETATM   19  H   UNL     1      -9.603   9.483  69.216  1.00  0.00     0.000 HD 
BRANCH  17  20
HETATM   20  C   UNL     1      -9.746   7.465  70.781  1.00  0.00    -0.171 A  
HETATM   21  C   UNL     1      -9.932   8.618  71.567  1.00  0.00    -0.344 A  
HETATM   22  H   UNL     1     -12.060   5.023  73.681  1.00  0.00     0.000 HD 
HETATM   23  C   UNL     1     -10.311   6.228  71.160  1.00  0.00    -0.255 A  
HETATM   24  C   UNL     1     -11.030   6.196  72.363  1.00  0.00    -0.259 A  
HETATM   25  C   UNL     1     -10.693   8.560  72.727  1.00  0.00    -0.061 A  
HETATM   26  C   UNL     1     -10.181   4.971  70.336  1.00  0.00    -0.324 C  
HETATM   27  O   UNL     1     -11.572   5.045  72.866  1.00  0.00    -0.272 OA 
HETATM   28  C   UNL     1     -11.237   7.344  73.126  1.00  0.00    -0.294 A  
ENDBRANCH  17  20
ENDBRANCH  15  16
BRANCH  15  29
HETATM   29  C   UNL     1      -9.065   8.822  66.356  1.00  0.00    -0.177 C  
BRANCH  29  30
HETATM   30  S   UNL     1      -8.300   7.797  65.046  1.00  0.00    -0.033 SA 
BRANCH  30  31
HETATM   31  C   UNL     1      -8.476   6.129  65.635  1.00  0.00    -0.151 A  
HETATM   32  C   UNL     1      -9.957   4.490  66.650  1.00  0.00    -0.253 A  
HETATM   33  C   UNL     1      -9.684   5.803  66.268  1.00  0.00    -0.148 A  
HETATM   34  C   UNL     1      -7.816   3.803  65.781  1.00  0.00    -0.090 A  
HETATM   35  C   UNL     1      -9.024   3.487  66.400  1.00  0.00    -0.149 A  
HETATM   36  C   UNL     1      -7.542   5.120  65.400  1.00  0.00    -0.085 A  
ENDBRANCH  30  31
ENDBRANCH  29  30
ENDBRANCH  15  29
ENDBRANCH  12  15
ENDBRANCH  11  12
ENDBRANCH   8  11
BRANCH   9  37
HETATM   37  C   UNL     1     -10.876  12.504  66.258  1.00  0.00    -0.268 C  
HETATM   38  C   UNL     1     -13.392  14.071  65.206  1.00  0.00     0.264 C  
HETATM   39  O   UNL     1     -11.580  11.553  65.926  1.00  0.00    -0.273 OA 
HETATM   40  C   UNL     1     -11.664  15.559  64.205  1.00  0.00    -0.093 C  
HETATM   41  C   UNL     1     -11.966  14.114  64.640  1.00  0.00    -0.445 C  
HETATM   42  N   UNL     1     -10.975  13.751  65.662  1.00  0.00    -0.285 N  
HETATM   43  C   UNL     1     -11.869  13.204  63.407  1.00  0.00    -0.490 C  
HETATM   44  H   UNL     1     -10.313  14.470  65.955  1.00  0.00     0.000 HD 
ENDBRANCH   9  37
TORSDOF 9
ENDMDL
MODEL      205
REMARK 921   NORMALIZED FREE ENERGY PREDICTED BY IDOCK:   -3.81 KCAL/MOL
REMARK 922        TOTAL FREE ENERGY PREDICTED BY IDOCK:   -8.65 KCAL/MOL
REMARK 923 INTER-LIGAND FREE ENERGY PREDICTED BY IDOCK:   -6.93 KCAL/MOL
REMARK 924 INTRA-LIGAND FREE ENERGY PREDICTED BY IDOCK:   -1.72 KCAL/MOL
REMARK 927      BINDING AFFINITY PREDICTED BY RF-SCORE:    0.00 PKD
ROOT
HETATM    1  C   UNL     1      -8.666   4.567  67.423  1.00  0.00    -0.107 C  
HETATM    2  C   UNL     1      -7.880   3.363  66.895  1.00  0.00    -0.080 C  
HETATM    3  C   UNL     1      -7.883   3.306  65.372  1.00  0.00    -0.082 C  
HETATM    4  C   UNL     1      -9.307   3.250  64.834  1.00  0.00    -0.149 C  
HETATM    5  C   UNL     1     -10.186   4.387  65.351  1.00  0.00    -0.247 C  
HETATM    6  C   UNL     1     -10.091   4.614  66.868  1.00  0.00    -0.227 C  
HETATM    7  C   UNL     1     -10.756   5.924  67.325  1.00  0.00    -0.297 C  
HETATM    8  N   UNL     1     -10.129   7.138  66.793  1.00  0.00    -0.219 NA 
HETATM    9  C   UNL     1      -8.654   7.135  66.811  1.00  0.00    -0.124 C  
HETATM   10  C   UNL     1      -7.881   5.872  67.237  1.00  0.00    -0.102 C  
ENDROOT
BRANCH   8  11
HETATM   11  C   UNL     1     -10.709   8.352  67.422  1.00  0.00    -0.155 C  
BRANCH  11  12
HETATM   12  C   UNL     1     -10.578   8.557  68.968  1.00  0.00    -0.154 C  
HETATM   13  H   UNL     1     -10.204   7.440  70.575  1.00  0.00     0.000 HD 
HETATM   14  O   UNL     1     -10.283   7.316  69.636  1.00  0.00    -0.199 OA 
BRANCH  12  15
HETATM   15  C   UNL     1      -9.568   9.662  69.380  1.00  0.00    -0.191 C  
BRANCH  15  16
HETATM   16  N   UNL     1     -10.201  10.953  69.677  1.00  0.00    -0.445 N  
HETATM   17  C   UNL     1     -10.457  11.907  68.719  1.00  0.00    -0.184 C  
HETATM   18  O   UNL     1     -10.176  11.790  67.532  1.00  0.00    -0.192 OA 
HETATM   19  H   UNL     1     -10.465  11.153  70.642  1.00  0.00     0.000 HD 
BRANCH  17  20
HETATM   20  C   UNL     1     -11.067  13.172  69.192  1.00  0.00    -0.248 A  
HETATM   21  C   UNL     1     -12.079  13.083  70.165  1.00  0.00    -0.377 A  
HETATM   22  H   UNL     1     -11.654  17.564  68.874  1.00  0.00     0.000 HD 
HETATM   23  C   UNL     1     -10.695  14.418  68.640  1.00  0.00    -0.258 A  
HETATM   24  C   UNL     1     -11.401  15.547  69.080  1.00  0.00    -0.328 A  
HETATM   25  C   UNL     1     -12.722  14.229  70.614  1.00  0.00    -0.409 A  
HETATM   26  C   UNL     1      -9.590  14.579  67.627  1.00  0.00    -0.214 C  
HETATM   27  O   UNL     1     -11.176  16.799  68.577  1.00  0.00    -0.319 OA 
HETATM   28  C   UNL     1     -12.384  15.461  70.065  1.00  0.00    -0.368 A  
ENDBRANCH  17  20
ENDBRANCH  15  16
BRANCH  15  29
HETATM   29  C   UNL     1      -8.578   9.208  70.494  1.00  0.00    -0.219 C  
BRANCH  29  30
HETATM   30  S   UNL     1      -6.830   9.028  69.980  1.00  0.00    -0.050 SA 
BRANCH  30  31
HETATM   31  C   UNL     1      -6.574  10.355  68.825  1.00  0.00    -0.052 A  
HETATM   32  C   UNL     1      -6.004  12.701  68.535  1.00  0.00    -0.061 A  
HETATM   33  C   UNL     1      -6.337  11.628  69.362  1.00  0.00    -0.106 A  
HETATM   34  C   UNL     1      -6.147  11.250  66.615  1.00  0.00    -0.143 A  
HETATM   35  C   UNL     1      -5.902  12.509  67.160  1.00  0.00    -0.020 A  
HETATM   36  C   UNL     1      -6.482  10.175  67.444  1.00  0.00    -0.067 A  
ENDBRANCH  30  31
ENDBRANCH  29  30
ENDBRANCH  15  29
ENDBRANCH  12  15
ENDBRANCH  11  12
ENDBRANCH   8  11
BRANCH   9  37
HETATM   37  C   UNL     1      -8.126   7.589  65.414  1.00  0.00    -0.133 C  
HETATM   38  C   UNL     1      -5.603   8.285  63.670  1.00  0.00    -0.062 C  
HETATM   39  O   UNL     1      -8.575   8.545  64.785  1.00  0.00    -0.159 OA 
HETATM   40  C   UNL     1      -5.452   5.809  63.454  1.00  0.00    -0.017 C  
HETATM   41  C   UNL     1      -6.422   6.987  63.644  1.00  0.00    -0.044 C  
HETATM   42  N   UNL     1      -7.122   6.773  64.918  1.00  0.00    -0.058 N  
HETATM   43  C   UNL     1      -7.398   7.012  62.458  1.00  0.00    -0.071 C  
HETATM   44  H   UNL     1      -6.849   5.966  65.478  1.00  0.00     0.000 HD 
ENDBRANCH   9  37
TORSDOF 9
ENDMDL
MODEL      206
REMARK 921   NORMALIZED FREE ENERGY PREDICTED BY IDOCK:   -3.77 KCAL/MOL
REMARK 922        TOTAL FREE ENERGY PREDICTED BY IDOCK:   -8.58 KCAL/MOL
REMARK 923 INTER-LIGAND FREE ENERGY PREDICTED BY IDOCK:   -6.42 KCAL/MOL
REMARK 924 INTRA-LIGAND FREE ENERGY PREDICTED BY IDOCK:   -2.17 KCAL/MOL
REMARK 927      BINDING AFFINITY PREDICTED BY RF-SCORE:    0.00 PKD
ROOT
HETATM    1  C   UNL     1     -13.245  15.046  70.334  1.00  0.00    -0.147 C  
HETATM    2  C   UNL     1     -13.587  15.827  71.607  1.00  0.00    -0.325 C  
HETATM    3  C   UNL     1     -12.537  15.629  72.693  1.00  0.00    -0.532 C  
HETATM    4  C   UNL     1     -12.382  14.154  73.038  1.00  0.00     0.011 C  
HETATM    5  C   UNL     1     -12.091  13.283  71.817  1.00  0.00     0.621 C  
HETATM    6  C   UNL     1     -13.008  13.561  70.615  1.00  0.00    -0.096 C  
HETATM    7  C   UNL     1     -12.527  12.883  69.320  1.00  0.00     0.295 C  
HETATM    8  N   UNL     1     -11.229  13.363  68.833  1.00  0.00    -0.264 NA 
HETATM    9  C   UNL     1     -11.046  14.825  68.891  1.00  0.00    -0.252 C  
HETATM   10  C   UNL     1     -12.112  15.721  69.551  1.00  0.00    -0.261 C  
ENDROOT
BRANCH   8  11
HETATM   11  C   UNL     1     -10.926  12.798  67.493  1.00  0.00    -0.249 C  
BRANCH  11  12
HETATM   12  C   UNL     1     -11.683  13.343  66.237  1.00  0.00    -0.366 C  
HETATM   13  H   UNL     1     -13.257  14.504  65.856  1.00  0.00     0.000 HD 
HETATM   14  O   UNL     1     -12.797  14.174  66.618  1.00  0.00    -0.091 OA 
BRANCH  12  15
HETATM   15  C   UNL     1     -10.774  14.071  65.211  1.00  0.00    -0.358 C  
BRANCH  15  16
HETATM   16  N   UNL     1      -9.971  15.150  65.802  1.00  0.00    -0.320 N  
HETATM   17  C   UNL     1     -10.113  16.474  65.457  1.00  0.00    -0.174 C  
HETATM   18  O   UNL     1     -10.906  16.891  64.621  1.00  0.00    -0.864 OA 
HETATM   19  H   UNL     1      -9.272  14.904  66.504  1.00  0.00     0.000 HD 
BRANCH  17  20
HETATM   20  C   UNL     1      -9.197  17.432  66.120  1.00  0.00    -0.171 A  
HETATM   21  C   UNL     1      -7.850  17.433  65.713  1.00  0.00     0.142 A  
HETATM   22  H   UNL     1      -8.318  20.411  69.295  1.00  0.00     0.000 HD 
HETATM   23  C   UNL     1      -9.641  18.268  67.168  1.00  0.00    -0.281 A  
HETATM   24  C   UNL     1      -8.676  19.066  67.800  1.00  0.00    -0.298 A  
HETATM   25  C   UNL     1      -6.932  18.273  66.328  1.00  0.00    -0.284 A  
HETATM   26  C   UNL     1     -11.079  18.340  67.617  1.00  0.00     0.048 C  
HETATM   27  O   UNL     1      -8.971  19.870  68.866  1.00  0.00    -0.184 OA 
HETATM   28  C   UNL     1      -7.348  19.086  67.378  1.00  0.00    -0.245 A  
ENDBRANCH  17  20
ENDBRANCH  15  16
BRANCH  15  29
HETATM   29  C   UNL     1      -9.925  13.098  64.340  1.00  0.00    -0.067 C  
BRANCH  29  30
HETATM   30  S   UNL     1     -10.775  11.570  63.797  1.00  0.00    -0.431 SA 
BRANCH  30  31
HETATM   31  C   UNL     1      -9.877  10.261  64.597  1.00  0.00    -0.327 A  
HETATM   32  C   UNL     1      -7.786   9.028  64.724  1.00  0.00    -0.109 A  
HETATM   33  C   UNL     1      -8.610   9.954  64.084  1.00  0.00    -0.201 A  
HETATM   34  C   UNL     1      -9.485   8.692  66.401  1.00  0.00    -0.295 A  
HETATM   35  C   UNL     1      -8.222   8.401  65.889  1.00  0.00    -0.123 A  
HETATM   36  C   UNL     1     -10.311   9.619  65.758  1.00  0.00    -0.030 A  
ENDBRANCH  30  31
ENDBRANCH  29  30
ENDBRANCH  15  29
ENDBRANCH  12  15
ENDBRANCH  11  12
ENDBRANCH   8  11
BRANCH   9  37
HETATM   37  C   UNL     1      -9.664  15.139  69.546  1.00  0.00    -0.165 C  
HETATM   38  C   UNL     1      -6.757  14.100  70.145  1.00  0.00     0.038 C  
HETATM   39  O   UNL     1      -9.525  15.579  70.685  1.00  0.00     0.596 OA 
HETATM   40  C   UNL     1      -6.345  14.823  67.799  1.00  0.00    -0.172 C  
HETATM   41  C   UNL     1      -7.182  15.098  69.060  1.00  0.00    -0.149 C  
HETATM   42  N   UNL     1      -8.594  14.919  68.694  1.00  0.00    -0.162 N  
HETATM   43  C   UNL     1      -6.896  16.532  69.531  1.00  0.00    -0.175 C  
HETATM   44  H   UNL     1      -8.801  14.609  67.745  1.00  0.00     0.000 HD 
ENDBRANCH   9  37
TORSDOF 9
ENDMDL
MODEL      207
REMARK 921   NORMALIZED FREE ENERGY PREDICTED BY IDOCK:   -3.76 KCAL/MOL
REMARK 922        TOTAL FREE ENERGY PREDICTED BY IDOCK:   -8.58 KCAL/MOL
REMARK 923 INTER-LIGAND FREE ENERGY PREDICTED BY IDOCK:   -7.58 KCAL/MOL
REMARK 924 INTRA-LIGAND FREE ENERGY PREDICTED BY IDOCK:   -1.00 KCAL/MOL
REMARK 927      BINDING AFFINITY PREDICTED BY RF-SCORE:    0.00 PKD
ROOT
HETATM    1  C   UNL     1      -8.103   3.865  66.508  1.00  0.00    -0.097 C  
HETATM    2  C   UNL     1      -6.912   3.171  65.839  1.00  0.00    -0.057 C  
HETATM    3  C   UNL     1      -6.651   3.715  64.440  1.00  0.00    -0.042 C  
HETATM    4  C   UNL     1      -7.882   3.558  63.557  1.00  0.00    -0.076 C  
HETATM    5  C   UNL     1      -9.139   4.175  64.169  1.00  0.00    -0.147 C  
HETATM    6  C   UNL     1      -9.365   3.806  65.644  1.00  0.00    -0.162 C  
HETATM    7  C   UNL     1     -10.463   4.649  66.314  1.00  0.00    -0.207 C  
HETATM    8  N   UNL     1     -10.159   6.081  66.400  1.00  0.00    -0.128 NA 
HETATM    9  C   UNL     1      -8.778   6.399  66.806  1.00  0.00    -0.119 C  
HETATM   10  C   UNL     1      -7.736   5.277  66.979  1.00  0.00    -0.096 C  
ENDROOT
BRANCH   8  11
HETATM   11  C   UNL     1     -11.177   6.789  67.218  1.00  0.00    -0.209 C  
BRANCH  11  12
HETATM   12  C   UNL     1     -11.026   6.824  68.776  1.00  0.00    -0.209 C  
HETATM   13  H   UNL     1     -10.575   5.551  70.240  1.00  0.00     0.000 HD 
HETATM   14  O   UNL     1     -10.666   5.530  69.295  1.00  0.00    -0.277 OA 
BRANCH  12  15
HETATM   15  C   UNL     1     -10.057   7.920  69.297  1.00  0.00    -0.197 C  
BRANCH  15  16
HETATM   16  N   UNL     1     -10.738   9.026  69.981  1.00  0.00    -0.226 N  
HETATM   17  C   UNL     1     -11.352  10.062  69.316  1.00  0.00    -0.117 C  
HETATM   18  O   UNL     1     -11.387  10.179  68.096  1.00  0.00    -0.237 OA 
HETATM   19  H   UNL     1     -10.756   9.027  71.001  1.00  0.00     0.000 HD 
BRANCH  17  20
HETATM   20  C   UNL     1     -11.960  11.120  70.157  1.00  0.00    -0.449 A  
HETATM   21  C   UNL     1     -12.763  10.711  71.238  1.00  0.00    -0.537 A  
HETATM   22  H   UNL     1     -12.938  15.381  70.945  1.00  0.00     0.000 HD 
HETATM   23  C   UNL     1     -11.797  12.488  69.849  1.00  0.00    -0.373 A  
HETATM   24  C   UNL     1     -12.494  13.409  70.644  1.00  0.00    -0.311 A  
HETATM   25  C   UNL     1     -13.399  11.654  72.035  1.00  0.00    -0.405 A  
HETATM   26  C   UNL     1     -10.915  12.986  68.731  1.00  0.00    -0.295 C  
HETATM   27  O   UNL     1     -12.465  14.756  70.407  1.00  0.00    -0.322 OA 
HETATM   28  C   UNL     1     -13.267  13.005  71.731  1.00  0.00    -0.486 A  
ENDBRANCH  17  20
ENDBRANCH  15  16
BRANCH  15  29
HETATM   29  C   UNL     1      -8.864   7.348  70.119  1.00  0.00    -0.147 C  
BRANCH  29  30
HETATM   30  S   UNL     1      -8.780   7.875  71.870  1.00  0.00    -0.141 SA 
BRANCH  30  31
HETATM   31  C   UNL     1      -7.709   6.681  72.637  1.00  0.00    -0.101 A  
HETATM   32  C   UNL     1      -6.725   4.462  72.495  1.00  0.00    -0.046 A  
HETATM   33  C   UNL     1      -7.631   5.418  72.035  1.00  0.00    -0.099 A  
HETATM   34  C   UNL     1      -5.960   6.013  74.175  1.00  0.00    -0.063 A  
HETATM   35  C   UNL     1      -5.883   4.764  73.562  1.00  0.00    -0.018 A  
HETATM   36  C   UNL     1      -6.870   6.970  73.714  1.00  0.00    -0.070 A  
ENDBRANCH  30  31
ENDBRANCH  29  30
ENDBRANCH  15  29
ENDBRANCH  12  15
ENDBRANCH  11  12
ENDBRANCH   8  11
BRANCH   9  37
HETATM   37  C   UNL     1      -8.194   7.469  65.830  1.00  0.00    -0.137 C  
HETATM   38  C   UNL     1      -8.832   9.818  63.838  1.00  0.00    -0.259 C  
HETATM   39  O   UNL     1      -7.360   7.226  64.960  1.00  0.00    -0.070 OA 
HETATM   40  C   UNL     1      -9.011  11.141  65.940  1.00  0.00    -0.210 C  
HETATM   41  C   UNL     1      -8.320   9.935  65.281  1.00  0.00    -0.149 C  
HETATM   42  N   UNL     1      -8.674   8.746  66.069  1.00  0.00    -0.156 N  
HETATM   43  C   UNL     1      -6.805  10.182  65.276  1.00  0.00    -0.137 C  
HETATM   44  H   UNL     1      -9.319   8.870  66.849  1.00  0.00     0.000 HD 
ENDBRANCH   9  37
TORSDOF 9
ENDMDL
MODEL      208
REMARK 921   NORMALIZED FREE ENERGY PREDICTED BY IDOCK:   -3.76 KCAL/MOL
REMARK 922        TOTAL FREE ENERGY PREDICTED BY IDOCK:   -8.58 KCAL/MOL
REMARK 923 INTER-LIGAND FREE ENERGY PREDICTED BY IDOCK:   -5.94 KCAL/MOL
REMARK 924 INTRA-LIGAND FREE ENERGY PREDICTED BY IDOCK:   -2.64 KCAL/MOL
REMARK 927      BINDING AFFINITY PREDICTED BY RF-SCORE:    0.00 PKD
ROOT
HETATM    1  C   UNL     1      -6.079  10.955  69.467  1.00  0.00    -0.061 C  
HETATM    2  C   UNL     1      -6.127  12.345  70.110  1.00  0.00    -0.102 C  
HETATM    3  C   UNL     1      -7.012  13.304  69.323  1.00  0.00     0.018 C  
HETATM    4  C   UNL     1      -6.529  13.434  67.885  1.00  0.00    -0.151 C  
HETATM    5  C   UNL     1      -6.397  12.088  67.175  1.00  0.00    -0.149 C  
HETATM    6  C   UNL     1      -5.665  11.014  67.995  1.00  0.00    -0.042 C  
HETATM    7  C   UNL     1      -5.788   9.605  67.390  1.00  0.00    -0.044 C  
HETATM    8  N   UNL     1      -7.157   9.080  67.352  1.00  0.00    -0.079 NA 
HETATM    9  C   UNL     1      -7.947   9.318  68.574  1.00  0.00    -0.101 C  
HETATM   10  C   UNL     1      -7.378  10.178  69.718  1.00  0.00    -0.159 C  
ENDROOT
BRANCH   8  11
HETATM   11  C   UNL     1      -7.166   7.657  66.929  1.00  0.00    -0.088 C  
BRANCH  11  12
HETATM   12  C   UNL     1      -8.409   7.086  66.168  1.00  0.00    -0.130 C  
HETATM   13  H   UNL     1      -8.812   6.317  64.375  1.00  0.00     0.000 HD 
HETATM   14  O   UNL     1      -8.058   6.663  64.837  1.00  0.00    -0.125 OA 
BRANCH  12  15
HETATM   15  C   UNL     1      -9.158   5.959  66.928  1.00  0.00    -0.120 C  
BRANCH  15  16
HETATM   16  N   UNL     1      -9.702   6.388  68.223  1.00  0.00    -0.126 N  
HETATM   17  C   UNL     1      -9.310   5.845  69.425  1.00  0.00    -0.130 C  
HETATM   18  O   UNL     1      -8.484   4.948  69.544  1.00  0.00    -0.082 OA 
HETATM   19  H   UNL     1     -10.407   7.126  68.232  1.00  0.00     0.000 HD 
BRANCH  17  20
HETATM   20  C   UNL     1      -9.986   6.365  70.637  1.00  0.00    -0.213 A  
HETATM   21  C   UNL     1     -11.379   6.187  70.732  1.00  0.00    -0.364 A  
HETATM   22  H   UNL     1      -9.956   8.732  74.395  1.00  0.00     0.000 HD 
HETATM   23  C   UNL     1      -9.273   7.071  71.631  1.00  0.00    -0.144 A  
HETATM   24  C   UNL     1     -10.018   7.611  72.689  1.00  0.00    -0.223 A  
HETATM   25  C   UNL     1     -12.077   6.693  71.821  1.00  0.00    -0.400 A  
HETATM   26  C   UNL     1      -7.777   7.255  71.603  1.00  0.00    -0.087 C  
HETATM   27  O   UNL     1      -9.451   8.366  73.678  1.00  0.00    -0.013 OA 
HETATM   28  C   UNL     1     -11.394   7.411  72.796  1.00  0.00    -0.356 A  
ENDBRANCH  17  20
ENDBRANCH  15  16
BRANCH  15  29
HETATM   29  C   UNL     1     -10.210   5.216  66.051  1.00  0.00    -0.179 C  
BRANCH  29  30
HETATM   30  S   UNL     1      -9.645   3.650  65.289  1.00  0.00    -0.138 SA 
BRANCH  30  31
HETATM   31  C   UNL     1      -8.890   2.759  66.629  1.00  0.00    -0.144 A  
HETATM   32  C   UNL     1      -6.811   2.137  67.726  1.00  0.00    -0.039 A  
HETATM   33  C   UNL     1      -7.489   2.707  66.649  1.00  0.00    -0.070 A  
HETATM   34  C   UNL     1      -8.922   1.651  68.783  1.00  0.00    -0.151 A  
HETATM   35  C   UNL     1      -7.529   1.614  68.798  1.00  0.00    -0.043 A  
HETATM   36  C   UNL     1      -9.602   2.221  67.702  1.00  0.00     0.019 A  
ENDBRANCH  30  31
ENDBRANCH  29  30
ENDBRANCH  15  29
ENDBRANCH  12  15
ENDBRANCH  11  12
ENDBRANCH   8  11
BRANCH   9  37
HETATM   37  C   UNL     1      -9.343   9.891  68.173  1.00  0.00    -0.131 C  
HETATM   38  C   UNL     1     -11.911  11.433  69.133  1.00  0.00    -0.413 C  
HETATM   39  O   UNL     1     -10.199   9.257  67.560  1.00  0.00    -0.209 OA 
HETATM   40  C   UNL     1     -10.463  13.430  68.796  1.00  0.00    -0.203 C  
HETATM   41  C   UNL     1     -10.740  11.995  68.315  1.00  0.00    -0.224 C  
HETATM   42  N   UNL     1      -9.513  11.217  68.537  1.00  0.00    -0.188 N  
HETATM   43  C   UNL     1     -11.120  12.044  66.828  1.00  0.00    -0.353 C  
HETATM   44  H   UNL     1      -8.731  11.687  68.992  1.00  0.00     0.000 HD 
ENDBRANCH   9  37
TORSDOF 9
ENDMDL
MODEL      209
REMARK 921   NORMALIZED FREE ENERGY PREDICTED BY IDOCK:   -3.69 KCAL/MOL
REMARK 922        TOTAL FREE ENERGY PREDICTED BY IDOCK:   -8.46 KCAL/MOL
REMARK 923 INTER-LIGAND FREE ENERGY PREDICTED BY IDOCK:   -6.89 KCAL/MOL
REMARK 924 INTRA-LIGAND FREE ENERGY PREDICTED BY IDOCK:   -1.57 KCAL/MOL
REMARK 927      BINDING AFFINITY PREDICTED BY RF-SCORE:    0.00 PKD
ROOT
HETATM    1  C   UNL     1      -9.727   6.046  69.239  1.00  0.00    -0.174 C  
HETATM    2  C   UNL     1      -9.359   4.823  70.085  1.00  0.00    -0.222 C  
HETATM    3  C   UNL     1      -8.678   3.742  69.254  1.00  0.00    -0.131 C  
HETATM    4  C   UNL     1      -9.569   3.302  68.100  1.00  0.00    -0.147 C  
HETATM    5  C   UNL     1     -10.033   4.467  67.226  1.00  0.00    -0.164 C  
HETATM    6  C   UNL     1     -10.569   5.670  68.018  1.00  0.00    -0.260 C  
HETATM    7  C   UNL     1     -10.767   6.924  67.148  1.00  0.00    -0.366 C  
HETATM    8  N   UNL     1      -9.530   7.462  66.573  1.00  0.00    -0.184 NA 
HETATM    9  C   UNL     1      -8.382   7.505  67.498  1.00  0.00    -0.117 C  
HETATM   10  C   UNL     1      -8.490   6.890  68.907  1.00  0.00    -0.125 C  
ENDROOT
BRANCH   8  11
HETATM   11  C   UNL     1      -9.780   8.765  65.906  1.00  0.00    -0.141 C  
BRANCH  11  12
HETATM   12  C   UNL     1     -10.325   9.968  66.745  1.00  0.00    -0.217 C  
HETATM   13  H   UNL     1     -10.813  10.341  68.641  1.00  0.00     0.000 HD 
HETATM   14  O   UNL     1     -10.481   9.611  68.132  1.00  0.00    -0.199 OA 
BRANCH  12  15
HETATM   15  C   UNL     1      -9.498  11.274  66.599  1.00  0.00    -0.186 C  
BRANCH  15  16
HETATM   16  N   UNL     1      -9.843  12.300  67.591  1.00  0.00    -0.193 N  
HETATM   17  C   UNL     1     -10.880  13.190  67.429  1.00  0.00    -0.255 C  
HETATM   18  O   UNL     1     -11.611  13.231  66.446  1.00  0.00    -0.317 OA 
HETATM   19  H   UNL     1      -9.286  12.356  68.444  1.00  0.00     0.000 HD 
BRANCH  17  20
HETATM   20  C   UNL     1     -11.069  14.188  68.508  1.00  0.00    -0.276 A  
HETATM   21  C   UNL     1     -11.749  13.772  69.667  1.00  0.00    -0.379 A  
HETATM   22  H   UNL     1     -10.870  18.356  70.029  1.00  0.00     0.000 HD 
HETATM   23  C   UNL     1     -10.644  15.526  68.354  1.00  0.00    -0.252 A  
HETATM   24  C   UNL     1     -10.959  16.419  69.388  1.00  0.00    -0.325 A  
HETATM   25  C   UNL     1     -12.000  14.673  70.694  1.00  0.00    -0.380 A  
HETATM   26  C   UNL     1      -9.875  16.018  67.154  1.00  0.00    -0.236 C  
HETATM   27  O   UNL     1     -10.656  17.751  69.329  1.00  0.00    -0.176 OA 
HETATM   28  C   UNL     1     -11.609  16.000  70.548  1.00  0.00    -0.383 A  
ENDBRANCH  17  20
ENDBRANCH  15  16
BRANCH  15  29
HETATM   29  C   UNL     1      -7.964  11.024  66.501  1.00  0.00    -0.158 C  
BRANCH  29  30
HETATM   30  S   UNL     1      -6.899  12.323  67.229  1.00  0.00    -0.109 SA 
BRANCH  30  31
HETATM   31  C   UNL     1      -6.229  11.571  68.694  1.00  0.00    -0.052 A  
HETATM   32  C   UNL     1      -5.376  11.930  70.942  1.00  0.00    -0.134 A  
HETATM   33  C   UNL     1      -5.798  12.433  69.712  1.00  0.00    -0.123 A  
HETATM   34  C   UNL     1      -5.798   9.689  70.158  1.00  0.00    -0.044 A  
HETATM   35  C   UNL     1      -5.382  10.556  71.168  1.00  0.00    -0.091 A  
HETATM   36  C   UNL     1      -6.221  10.194  68.925  1.00  0.00    -0.043 A  
ENDBRANCH  30  31
ENDBRANCH  29  30
ENDBRANCH  15  29
ENDBRANCH  12  15
ENDBRANCH  11  12
ENDBRANCH   8  11
BRANCH   9  37
HETATM   37  C   UNL     1      -7.133   6.894  66.788  1.00  0.00    -0.075 C  
HETATM   38  C   UNL     1      -5.427   4.305  66.265  1.00  0.00    -0.013 C  
HETATM   39  O   UNL     1      -6.006   7.384  66.834  1.00  0.00    -0.036 OA 
HETATM   40  C   UNL     1      -7.201   3.848  64.578  1.00  0.00    -0.066 C  
HETATM   41  C   UNL     1      -6.435   4.962  65.312  1.00  0.00    -0.036 C  
HETATM   42  N   UNL     1      -7.425   5.758  66.051  1.00  0.00    -0.081 N  
HETATM   43  C   UNL     1      -5.689   5.809  64.270  1.00  0.00    -0.024 C  
HETATM   44  H   UNL     1      -8.397   5.452  66.019  1.00  0.00     0.000 HD 
ENDBRANCH   9  37
TORSDOF 9
ENDMDL
MODEL      210
REMARK 921   NORMALIZED FREE ENERGY PREDICTED BY IDOCK:   -3.66 KCAL/MOL
REMARK 922        TOTAL FREE ENERGY PREDICTED BY IDOCK:   -8.42 KCAL/MOL
REMARK 923 INTER-LIGAND FREE ENERGY PREDICTED BY IDOCK:   -8.14 KCAL/MOL
REMARK 924 INTRA-LIGAND FREE ENERGY PREDICTED BY IDOCK:   -0.28 KCAL/MOL
REMARK 927      BINDING AFFINITY PREDICTED BY RF-SCORE:    0.00 PKD
ROOT
HETATM    1  C   UNL     1      -8.925   8.666  65.690  1.00  0.00    -0.231 C  
HETATM    2  C   UNL     1      -7.867   7.687  66.210  1.00  0.00    -0.091 C  
HETATM    3  C   UNL     1      -7.134   8.239  67.428  1.00  0.00    -0.080 C  
HETATM    4  C   UNL     1      -6.469   9.570  67.105  1.00  0.00    -0.066 C  
HETATM    5  C   UNL     1      -7.440  10.598  66.526  1.00  0.00    -0.134 C  
HETATM    6  C   UNL     1      -8.340  10.051  65.407  1.00  0.00    -0.154 C  
HETATM    7  C   UNL     1      -9.487  11.006  65.035  1.00  0.00    -0.233 C  
HETATM    8  N   UNL     1     -10.451  11.242  66.114  1.00  0.00    -0.248 NA 
HETATM    9  C   UNL     1     -10.846  10.038  66.869  1.00  0.00    -0.082 C  
HETATM   10  C   UNL     1     -10.163   8.685  66.595  1.00  0.00    -0.343 C  
ENDROOT
BRANCH   8  11
HETATM   11  C   UNL     1     -11.617  12.019  65.621  1.00  0.00    -0.296 C  
BRANCH  11  12
HETATM   12  C   UNL     1     -11.690  13.558  65.897  1.00  0.00    -0.352 C  
HETATM   13  H   UNL     1     -13.089  14.915  66.310  1.00  0.00     0.000 HD 
HETATM   14  O   UNL     1     -13.044  13.982  66.143  1.00  0.00    -0.200 OA 
BRANCH  12  15
HETATM   15  C   UNL     1     -10.743  14.048  67.025  1.00  0.00    -0.284 C  
BRANCH  15  16
HETATM   16  N   UNL     1     -10.442  15.484  66.955  1.00  0.00    -0.298 N  
HETATM   17  C   UNL     1     -10.091  16.127  65.791  1.00  0.00    -0.363 C  
HETATM   18  O   UNL     1      -9.981  15.576  64.701  1.00  0.00    -0.108 OA 
HETATM   19  H   UNL     1     -10.495  16.032  67.814  1.00  0.00     0.000 HD 
BRANCH  17  20
HETATM   20  C   UNL     1      -9.782  17.572  65.900  1.00  0.00    -0.066 A  
HETATM   21  C   UNL     1     -10.861  18.473  65.862  1.00  0.00    -0.077 A  
HETATM   22  H   UNL     1      -6.879  20.933  65.977  1.00  0.00     0.000 HD 
HETATM   23  C   UNL     1      -8.450  18.035  65.974  1.00  0.00    -0.043 A  
HETATM   24  C   UNL     1      -8.255  19.423  65.972  1.00  0.00    -0.237 A  
HETATM   25  C   UNL     1     -10.634  19.842  65.912  1.00  0.00    -0.523 A  
HETATM   26  C   UNL     1      -7.257  17.116  66.062  1.00  0.00    -0.149 C  
HETATM   27  O   UNL     1      -7.011  19.992  65.978  1.00  0.00    -0.239 OA 
HETATM   28  C   UNL     1      -9.327  20.315  65.961  1.00  0.00    -0.227 A  
ENDBRANCH  17  20
ENDBRANCH  15  16
BRANCH  15  29
HETATM   29  C   UNL     1     -11.191  13.596  68.447  1.00  0.00    -0.276 C  
BRANCH  29  30
HETATM   30  S   UNL     1     -11.678  14.940  69.592  1.00  0.00    -0.341 SA 
BRANCH  30  31
HETATM   31  C   UNL     1     -10.298  16.060  69.565  1.00  0.00    -0.278 A  
HETATM   32  C   UNL     1      -7.882  16.288  69.409  1.00  0.00    -0.081 A  
HETATM   33  C   UNL     1      -9.017  15.490  69.554  1.00  0.00    -0.244 A  
HETATM   34  C   UNL     1      -9.286  18.244  69.291  1.00  0.00     0.179 A  
HETATM   35  C   UNL     1      -8.018  17.667  69.270  1.00  0.00     0.171 A  
HETATM   36  C   UNL     1     -10.423  17.444  69.438  1.00  0.00    -0.077 A  
ENDBRANCH  30  31
ENDBRANCH  29  30
ENDBRANCH  15  29
ENDBRANCH  12  15
ENDBRANCH  11  12
ENDBRANCH   8  11
BRANCH   9  37
HETATM   37  C   UNL     1     -10.746  10.341  68.398  1.00  0.00    -0.226 C  
HETATM   38  C   UNL     1     -12.197  11.500  70.935  1.00  0.00    -0.425 C  
HETATM   39  O   UNL     1      -9.797  10.917  68.926  1.00  0.00    -0.191 OA 
HETATM   40  C   UNL     1     -13.274   9.256  70.966  1.00  0.00    -0.150 C  
HETATM   41  C   UNL     1     -12.001  10.022  70.571  1.00  0.00    -0.272 C  
HETATM   42  N   UNL     1     -11.820   9.850  69.123  1.00  0.00    -0.372 N  
HETATM   43  C   UNL     1     -10.819   9.444  71.363  1.00  0.00    -0.430 C  
HETATM   44  H   UNL     1     -12.537   9.333  68.614  1.00  0.00     0.000 HD 
ENDBRANCH   9  37
TORSDOF 9
ENDMDL
MODEL      211
REMARK 921   NORMALIZED FREE ENERGY PREDICTED BY IDOCK:   -3.66 KCAL/MOL
REMARK 922        TOTAL FREE ENERGY PREDICTED BY IDOCK:   -8.42 KCAL/MOL
REMARK 923 INTER-LIGAND FREE ENERGY PREDICTED BY IDOCK:   -8.14 KCAL/MOL
REMARK 924 INTRA-LIGAND FREE ENERGY PREDICTED BY IDOCK:   -0.28 KCAL/MOL
REMARK 927      BINDING AFFINITY PREDICTED BY RF-SCORE:    0.00 PKD
ROOT
HETATM    1  C   UNL     1      -9.846   8.624  67.023  1.00  0.00    -0.284 C  
HETATM    2  C   UNL     1     -10.309   7.227  66.596  1.00  0.00    -0.229 C  
HETATM    3  C   UNL     1      -9.650   6.133  67.426  1.00  0.00    -0.122 C  
HETATM    4  C   UNL     1      -8.133   6.210  67.323  1.00  0.00    -0.106 C  
HETATM    5  C   UNL     1      -7.580   7.590  67.679  1.00  0.00    -0.113 C  
HETATM    6  C   UNL     1      -8.322   8.756  67.008  1.00  0.00    -0.103 C  
HETATM    7  C   UNL     1      -7.939  10.128  67.589  1.00  0.00    -0.102 C  
HETATM    8  N   UNL     1      -8.297  10.309  69.000  1.00  0.00    -0.137 NA 
HETATM    9  C   UNL     1      -9.636   9.814  69.370  1.00  0.00    -0.207 C  
HETATM   10  C   UNL     1     -10.496   9.049  68.346  1.00  0.00    -0.234 C  
ENDROOT
BRANCH   8  11
HETATM   11  C   UNL     1      -8.064  11.711  69.429  1.00  0.00     0.496 C  
BRANCH  11  12
HETATM   12  C   UNL     1      -7.639  12.782  68.369  1.00  0.00    -0.133 C  
HETATM   13  H   UNL     1      -6.539  12.854  66.709  1.00  0.00     0.000 HD 
HETATM   14  O   UNL     1      -6.797  12.205  67.353  1.00  0.00    -0.119 OA 
BRANCH  12  15
HETATM   15  C   UNL     1      -8.826  13.554  67.734  1.00  0.00    -0.198 C  
BRANCH  15  16
HETATM   16  N   UNL     1      -8.542  14.976  67.500  1.00  0.00    -0.170 N  
HETATM   17  C   UNL     1      -8.459  15.906  68.511  1.00  0.00    -0.184 C  
HETATM   18  O   UNL     1      -8.623  15.655  69.699  1.00  0.00    -0.230 OA 
HETATM   19  H   UNL     1      -8.398  15.289  66.540  1.00  0.00     0.000 HD 
BRANCH  17  20
HETATM   20  C   UNL     1      -8.203  17.307  68.100  1.00  0.00    -0.231 A  
HETATM   21  C   UNL     1      -7.024  17.917  68.567  1.00  0.00    -0.240 A  
HETATM   22  H   UNL     1      -9.516  21.110  66.219  1.00  0.00     0.000 HD 
HETATM   23  C   UNL     1      -9.137  18.028  67.325  1.00  0.00    -0.255 A  
HETATM   24  C   UNL     1      -8.853  19.378  67.074  1.00  0.00    -0.300 A  
HETATM   25  C   UNL     1      -6.750  19.242  68.257  1.00  0.00    -0.283 A  
HETATM   26  C   UNL     1     -10.395  17.415  66.763  1.00  0.00    -0.305 C  
HETATM   27  O   UNL     1      -9.709  20.196  66.389  1.00  0.00    -0.411 OA 
HETATM   28  C   UNL     1      -7.671  19.973  67.514  1.00  0.00    -0.333 A  
ENDBRANCH  17  20
ENDBRANCH  15  16
BRANCH  15  29
HETATM   29  C   UNL     1      -9.423  12.847  66.481  1.00  0.00    -0.251 C  
BRANCH  29  30
HETATM   30  S   UNL     1     -11.246  12.687  66.451  1.00  0.00    -0.323 SA 
BRANCH  30  31
HETATM   31  C   UNL     1     -11.761  13.243  68.058  1.00  0.00    -0.359 A  
HETATM   32  C   UNL     1     -12.320  12.603  70.337  1.00  0.00    -0.315 A  
HETATM   33  C   UNL     1     -12.031  12.257  69.017  1.00  0.00    -0.300 A  
HETATM   34  C   UNL     1     -12.084  14.934  69.764  1.00  0.00    -0.357 A  
HETATM   35  C   UNL     1     -12.340  13.944  70.712  1.00  0.00    -0.449 A  
HETATM   36  C   UNL     1     -11.795  14.585  68.441  1.00  0.00    -0.351 A  
ENDBRANCH  30  31
ENDBRANCH  29  30
ENDBRANCH  15  29
ENDBRANCH  12  15
ENDBRANCH  11  12
ENDBRANCH   8  11
BRANCH   9  37
HETATM   37  C   UNL     1      -9.519   8.946  70.662  1.00  0.00    -0.214 C  
HETATM   38  C   UNL     1      -8.067   6.541  72.076  1.00  0.00    -0.107 C  
HETATM   39  O   UNL     1     -10.478   8.449  71.248  1.00  0.00    -0.201 OA 
HETATM   40  C   UNL     1      -6.303   8.249  72.489  1.00  0.00    -0.079 C  
HETATM   41  C   UNL     1      -7.815   8.039  72.297  1.00  0.00    -0.118 C  
HETATM   42  N   UNL     1      -8.218   8.826  71.123  1.00  0.00    -0.152 N  
HETATM   43  C   UNL     1      -8.538   8.506  73.568  1.00  0.00    -0.028 C  
HETATM   44  H   UNL     1      -7.487   9.318  70.610  1.00  0.00     0.000 HD 
ENDBRANCH   9  37
TORSDOF 9
ENDMDL
MODEL      212
REMARK 921   NORMALIZED FREE ENERGY PREDICTED BY IDOCK:   -3.65 KCAL/MOL
REMARK 922        TOTAL FREE ENERGY PREDICTED BY IDOCK:   -8.41 KCAL/MOL
REMARK 923 INTER-LIGAND FREE ENERGY PREDICTED BY IDOCK:   -7.01 KCAL/MOL
REMARK 924 INTRA-LIGAND FREE ENERGY PREDICTED BY IDOCK:   -1.40 KCAL/MOL
REMARK 927      BINDING AFFINITY PREDICTED BY RF-SCORE:    0.00 PKD
ROOT
HETATM    1  C   UNL     1     -11.057   7.332  70.533  1.00  0.00    -0.290 C  
HETATM    2  C   UNL     1     -12.501   6.904  70.816  1.00  0.00    -0.251 C  
HETATM    3  C   UNL     1     -13.377   8.086  71.211  1.00  0.00    -0.177 C  
HETATM    4  C   UNL     1     -12.815   8.793  72.437  1.00  0.00    -0.434 C  
HETATM    5  C   UNL     1     -11.355   9.213  72.269  1.00  0.00    -0.055 C  
HETATM    6  C   UNL     1     -10.447   8.111  71.700  1.00  0.00    -0.288 C  
HETATM    7  C   UNL     1      -9.062   8.629  71.278  1.00  0.00    -0.212 C  
HETATM    8  N   UNL     1      -9.088   9.601  70.180  1.00  0.00    -0.237 NA 
HETATM    9  C   UNL     1     -10.004   9.264  69.074  1.00  0.00    -0.182 C  
HETATM   10  C   UNL     1     -10.941   8.045  69.179  1.00  0.00     0.058 C  
ENDROOT
BRANCH   8  11
HETATM   11  C   UNL     1      -7.713   9.910  69.713  1.00  0.00    -0.155 C  
BRANCH  11  12
HETATM   12  C   UNL     1      -7.461  10.209  68.198  1.00  0.00    -0.083 C  
HETATM   13  H   UNL     1      -6.798  11.724  67.087  1.00  0.00     0.000 HD 
HETATM   14  O   UNL     1      -6.950  11.542  68.007  1.00  0.00    -0.071 OA 
BRANCH  12  15
HETATM   15  C   UNL     1      -6.565   9.163  67.482  1.00  0.00    -0.065 C  
BRANCH  15  16
HETATM   16  N   UNL     1      -7.248   7.891  67.216  1.00  0.00    -0.088 N  
HETATM   17  C   UNL     1      -6.582   6.707  66.996  1.00  0.00    -0.048 C  
HETATM   18  O   UNL     1      -5.363   6.590  66.986  1.00  0.00    -0.011 OA 
HETATM   19  H   UNL     1      -8.268   7.885  67.193  1.00  0.00     0.000 HD 
BRANCH  17  20
HETATM   20  C   UNL     1      -7.421   5.521  66.704  1.00  0.00    -0.087 A  
HETATM   21  C   UNL     1      -8.512   5.270  67.556  1.00  0.00    -0.105 A  
HETATM   22  H   UNL     1      -8.186   1.749  64.487  1.00  0.00     0.000 HD 
HETATM   23  C   UNL     1      -7.101   4.636  65.651  1.00  0.00    -0.067 A  
HETATM   24  C   UNL     1      -7.896   3.488  65.518  1.00  0.00    -0.089 A  
HETATM   25  C   UNL     1      -9.308   4.148  67.363  1.00  0.00    -0.204 A  
HETATM   26  C   UNL     1      -5.971   4.877  64.682  1.00  0.00    -0.021 C  
HETATM   27  O   UNL     1      -7.648   2.527  64.577  1.00  0.00    -0.069 OA 
HETATM   28  C   UNL     1      -8.993   3.254  66.345  1.00  0.00    -0.156 A  
ENDBRANCH  17  20
ENDBRANCH  15  16
BRANCH  15  29
HETATM   29  C   UNL     1      -5.839   9.730  66.226  1.00  0.00    -0.058 C  
BRANCH  29  30
HETATM   30  S   UNL     1      -6.149   8.837  64.658  1.00  0.00    -0.066 SA 
BRANCH  30  31
HETATM   31  C   UNL     1      -7.588   9.629  63.979  1.00  0.00    -0.128 A  
HETATM   32  C   UNL     1      -9.882  10.335  64.371  1.00  0.00    -0.374 A  
HETATM   33  C   UNL     1      -8.745   9.631  64.770  1.00  0.00    -0.219 A  
HETATM   34  C   UNL     1      -8.728  11.045  62.377  1.00  0.00    -0.356 A  
HETATM   35  C   UNL     1      -9.870  11.049  63.176  1.00  0.00    -0.398 A  
HETATM   36  C   UNL     1      -7.590  10.337  62.776  1.00  0.00    -0.148 A  
ENDBRANCH  30  31
ENDBRANCH  29  30
ENDBRANCH  15  29
ENDBRANCH  12  15
ENDBRANCH  11  12
ENDBRANCH   8  11
BRANCH   9  37
HETATM   37  C   UNL     1     -10.865  10.519  68.726  1.00  0.00    -0.231 C  
HETATM   38  C   UNL     1     -11.090  13.654  68.849  1.00  0.00    -0.292 C  
HETATM   39  O   UNL     1     -12.063  10.624  68.978  1.00  0.00    -0.327 OA 
HETATM   40  C   UNL     1      -9.601  13.531  66.857  1.00  0.00    -0.258 C  
HETATM   41  C   UNL     1     -10.705  12.796  67.636  1.00  0.00    -0.219 C  
HETATM   42  N   UNL     1     -10.154  11.499  68.053  1.00  0.00    -0.181 N  
HETATM   43  C   UNL     1     -11.921  12.625  66.713  1.00  0.00    -0.362 C  
HETATM   44  H   UNL     1      -9.177  11.307  67.832  1.00  0.00     0.000 HD 
ENDBRANCH   9  37
TORSDOF 9
ENDMDL
MODEL      213
REMARK 921   NORMALIZED FREE ENERGY PREDICTED BY IDOCK:   -3.62 KCAL/MOL
REMARK 922        TOTAL FREE ENERGY PREDICTED BY IDOCK:   -8.35 KCAL/MOL
REMARK 923 INTER-LIGAND FREE ENERGY PREDICTED BY IDOCK:   -7.49 KCAL/MOL
REMARK 924 INTRA-LIGAND FREE ENERGY PREDICTED BY IDOCK:   -0.86 KCAL/MOL
REMARK 927      BINDING AFFINITY PREDICTED BY RF-SCORE:    0.00 PKD
ROOT
HETATM    1  C   UNL     1     -10.949  11.285  66.772  1.00  0.00    -0.339 C  
HETATM    2  C   UNL     1     -10.838  12.295  65.626  1.00  0.00    -0.321 C  
HETATM    3  C   UNL     1     -10.110  13.562  66.055  1.00  0.00    -0.316 C  
HETATM    4  C   UNL     1     -10.812  14.220  67.236  1.00  0.00    -0.285 C  
HETATM    5  C   UNL     1     -11.017  13.269  68.414  1.00  0.00    -0.289 C  
HETATM    6  C   UNL     1     -11.587  11.897  68.021  1.00  0.00    -0.401 C  
HETATM    7  C   UNL     1     -11.524  10.869  69.164  1.00  0.00    -0.303 C  
HETATM    8  N   UNL     1     -10.164  10.524  69.593  1.00  0.00    -0.207 NA 
HETATM    9  C   UNL     1      -9.201  10.315  68.496  1.00  0.00    -0.144 C  
HETATM   10  C   UNL     1      -9.609  10.587  67.035  1.00  0.00    -0.202 C  
ENDROOT
BRANCH   8  11
HETATM   11  C   UNL     1     -10.185   9.399  70.562  1.00  0.00    -0.271 C  
BRANCH  11  12
HETATM   12  C   UNL     1     -10.603   7.971  70.077  1.00  0.00    -0.242 C  
HETATM   13  H   UNL     1     -11.157   7.098  68.374  1.00  0.00     0.000 HD 
HETATM   14  O   UNL     1     -10.903   7.965  68.669  1.00  0.00    -0.087 OA 
BRANCH  12  15
HETATM   15  C   UNL     1      -9.586   6.854  70.433  1.00  0.00    -0.169 C  
BRANCH  15  16
HETATM   16  N   UNL     1      -9.142   6.074  69.271  1.00  0.00    -0.125 N  
HETATM   17  C   UNL     1      -9.326   4.715  69.157  1.00  0.00    -0.142 C  
HETATM   18  O   UNL     1      -9.863   4.015  70.008  1.00  0.00    -0.210 OA 
HETATM   19  H   UNL     1      -8.674   6.565  68.509  1.00  0.00     0.000 HD 
BRANCH  17  20
HETATM   20  C   UNL     1      -8.785   4.074  67.936  1.00  0.00    -0.118 A  
HETATM   21  C   UNL     1      -7.620   3.297  68.071  1.00  0.00    -0.060 A  
HETATM   22  H   UNL     1      -8.731   3.524  63.529  1.00  0.00     0.000 HD 
HETATM   23  C   UNL     1      -9.374   4.287  66.671  1.00  0.00    -0.179 A  
HETATM   24  C   UNL     1      -8.729   3.721  65.562  1.00  0.00    -0.118 A  
HETATM   25  C   UNL     1      -7.036   2.709  66.957  1.00  0.00    -0.049 A  
HETATM   26  C   UNL     1     -10.645   5.075  66.471  1.00  0.00    -0.289 C  
HETATM   27  O   UNL     1      -9.168   3.908  64.280  1.00  0.00    -0.131 OA 
HETATM   28  C   UNL     1      -7.591   2.928  65.701  1.00  0.00    -0.073 A  
ENDBRANCH  17  20
ENDBRANCH  15  16
BRANCH  15  29
HETATM   29  C   UNL     1      -8.399   7.357  71.308  1.00  0.00    -0.110 C  
BRANCH  29  30
HETATM   30  S   UNL     1      -8.738   7.501  73.101  1.00  0.00    -0.175 SA 
BRANCH  30  31
HETATM   31  C   UNL     1      -9.462   5.937  73.537  1.00  0.00    -0.139 A  
HETATM   32  C   UNL     1     -11.456   4.546  73.482  1.00  0.00    -0.287 A  
HETATM   33  C   UNL     1     -10.832   5.779  73.287  1.00  0.00    -0.306 A  
HETATM   34  C   UNL     1      -9.351   3.606  74.190  1.00  0.00    -0.108 A  
HETATM   35  C   UNL     1     -10.712   3.457  73.928  1.00  0.00    -0.297 A  
HETATM   36  C   UNL     1      -8.727   4.842  73.995  1.00  0.00    -0.111 A  
ENDBRANCH  30  31
ENDBRANCH  29  30
ENDBRANCH  15  29
ENDBRANCH  12  15
ENDBRANCH  11  12
ENDBRANCH   8  11
BRANCH   9  37
HETATM   37  C   UNL     1      -7.898  11.120  68.803  1.00  0.00    -0.142 C  
HETATM   38  C   UNL     1      -5.466  12.714  67.606  1.00  0.00    -0.124 C  
HETATM   39  O   UNL     1      -7.013  10.734  69.562  1.00  0.00    -0.101 OA 
HETATM   40  C   UNL     1      -7.137  14.554  67.464  1.00  0.00    -0.199 C  
HETATM   41  C   UNL     1      -6.732  13.295  68.250  1.00  0.00    -0.103 C  
HETATM   42  N   UNL     1      -7.854  12.350  68.167  1.00  0.00    -0.137 N  
HETATM   43  C   UNL     1      -6.438  13.700  69.702  1.00  0.00    -0.083 C  
HETATM   44  H   UNL     1      -8.658  12.619  67.600  1.00  0.00     0.000 HD 
ENDBRANCH   9  37
TORSDOF 9
ENDMDL
MODEL      214
REMARK 921   NORMALIZED FREE ENERGY PREDICTED BY IDOCK:   -3.58 KCAL/MOL
REMARK 922        TOTAL FREE ENERGY PREDICTED BY IDOCK:   -8.29 KCAL/MOL
REMARK 923 INTER-LIGAND FREE ENERGY PREDICTED BY IDOCK:   -6.59 KCAL/MOL
REMARK 924 INTRA-LIGAND FREE ENERGY PREDICTED BY IDOCK:   -1.70 KCAL/MOL
REMARK 927      BINDING AFFINITY PREDICTED BY RF-SCORE:    0.00 PKD
ROOT
HETATM    1  C   UNL     1     -11.453  15.394  68.706  1.00  0.00    -0.352 C  
HETATM    2  C   UNL     1     -10.915  16.648  68.008  1.00  0.00    -0.311 C  
HETATM    3  C   UNL     1      -9.767  16.321  67.062  1.00  0.00    -0.244 C  
HETATM    4  C   UNL     1      -8.628  15.635  67.804  1.00  0.00    -0.168 C  
HETATM    5  C   UNL     1      -9.080  14.398  68.579  1.00  0.00    -0.193 C  
HETATM    6  C   UNL     1     -10.348  14.613  69.421  1.00  0.00    -0.136 C  
HETATM    7  C   UNL     1     -10.941  13.301  69.963  1.00  0.00     0.554 C  
HETATM    8  N   UNL     1     -11.415  12.378  68.927  1.00  0.00    -0.284 NA 
HETATM    9  C   UNL     1     -12.170  13.010  67.829  1.00  0.00    -0.027 C  
HETATM   10  C   UNL     1     -12.301  14.543  67.753  1.00  0.00     0.032 C  
ENDROOT
BRANCH   8  11
HETATM   11  C   UNL     1     -12.135  11.228  69.532  1.00  0.00    -0.317 C  
BRANCH  11  12
HETATM   12  C   UNL     1     -11.422  10.358  70.620  1.00  0.00    -0.349 C  
HETATM   13  H   UNL     1     -11.946   9.148  72.113  1.00  0.00     0.000 HD 
HETATM   14  O   UNL     1     -12.379   9.675  71.452  1.00  0.00    -0.328 OA 
BRANCH  12  15
HETATM   15  C   UNL     1     -10.371   9.366  70.054  1.00  0.00    -0.233 C  
BRANCH  15  16
HETATM   16  N   UNL     1     -10.343   8.078  70.759  1.00  0.00    -0.198 N  
HETATM   17  C   UNL     1      -9.675   7.880  71.945  1.00  0.00    -0.177 C  
HETATM   18  O   UNL     1      -9.029   8.742  72.529  1.00  0.00    -0.386 OA 
HETATM   19  H   UNL     1     -10.843   7.290  70.347  1.00  0.00     0.000 HD 
BRANCH  17  20
HETATM   20  C   UNL     1      -9.714   6.508  72.505  1.00  0.00    -0.165 A  
HETATM   21  C   UNL     1     -10.855   6.137  73.238  1.00  0.00    -0.268 A  
HETATM   22  H   UNL     1      -7.753   2.637  73.451  1.00  0.00     0.000 HD 
HETATM   23  C   UNL     1      -8.619   5.627  72.367  1.00  0.00    -0.121 A  
HETATM   24  C   UNL     1      -8.710   4.389  73.018  1.00  0.00    -0.104 A  
HETATM   25  C   UNL     1     -10.932   4.882  73.829  1.00  0.00    -0.361 A  
HETATM   26  C   UNL     1      -7.389   5.954  71.558  1.00  0.00    -0.088 C  
HETATM   27  O   UNL     1      -7.692   3.476  73.010  1.00  0.00    -0.062 OA 
HETATM   28  C   UNL     1      -9.853   4.011  73.722  1.00  0.00    -0.151 A  
ENDBRANCH  17  20
ENDBRANCH  15  16
BRANCH  15  29
HETATM   29  C   UNL     1     -10.447   9.203  68.506  1.00  0.00    -0.204 C  
BRANCH  29  30
HETATM   30  S   UNL     1     -10.739   7.500  67.900  1.00  0.00    -0.079 SA 
BRANCH  30  31
HETATM   31  C   UNL     1      -9.141   6.952  67.347  1.00  0.00    -0.122 A  
HETATM   32  C   UNL     1      -7.182   5.602  67.848  1.00  0.00    -0.072 A  
HETATM   33  C   UNL     1      -8.390   6.177  68.242  1.00  0.00    -0.114 A  
HETATM   34  C   UNL     1      -7.446   6.574  65.657  1.00  0.00    -0.082 A  
HETATM   35  C   UNL     1      -6.713   5.796  66.551  1.00  0.00    -0.057 A  
HETATM   36  C   UNL     1      -8.657   7.151  66.053  1.00  0.00    -0.158 A  
ENDBRANCH  30  31
ENDBRANCH  29  30
ENDBRANCH  15  29
ENDBRANCH  12  15
ENDBRANCH  11  12
ENDBRANCH   8  11
BRANCH   9  37
HETATM   37  C   UNL     1     -11.612  12.494  66.465  1.00  0.00    -0.388 C  
HETATM   38  C   UNL     1     -12.297  11.599  63.529  1.00  0.00    -0.349 C  
HETATM   39  O   UNL     1     -10.824  11.558  66.352  1.00  0.00    -0.268 OA 
HETATM   40  C   UNL     1     -12.353  14.055  63.121  1.00  0.00     0.595 C  
HETATM   41  C   UNL     1     -11.717  12.947  63.978  1.00  0.00    -0.434 C  
HETATM   42  N   UNL     1     -12.056  13.233  65.380  1.00  0.00    -0.395 N  
HETATM   43  C   UNL     1     -10.199  12.963  63.747  1.00  0.00    -0.024 C  
HETATM   44  H   UNL     1     -12.662  14.031  65.567  1.00  0.00     0.000 HD 
ENDBRANCH   9  37
TORSDOF 9
ENDMDL
MODEL      215
REMARK 921   NORMALIZED FREE ENERGY PREDICTED BY IDOCK:   -3.57 KCAL/MOL
REMARK 922        TOTAL FREE ENERGY PREDICTED BY IDOCK:   -8.29 KCAL/MOL
REMARK 923 INTER-LIGAND FREE ENERGY PREDICTED BY IDOCK:   -6.77 KCAL/MOL
REMARK 924 INTRA-LIGAND FREE ENERGY PREDICTED BY IDOCK:   -1.52 KCAL/MOL
REMARK 927      BINDING AFFINITY PREDICTED BY RF-SCORE:    0.00 PKD
ROOT
HETATM    1  C   UNL     1      -8.714   9.170  71.194  1.00  0.00    -0.210 C  
HETATM    2  C   UNL     1      -8.046   8.216  72.191  1.00  0.00    -0.182 C  
HETATM    3  C   UNL     1      -8.683   6.832  72.166  1.00  0.00    -0.132 C  
HETATM    4  C   UNL     1     -10.172   6.913  72.472  1.00  0.00    -0.205 C  
HETATM    5  C   UNL     1     -10.918   7.886  71.559  1.00  0.00    -0.269 C  
HETATM    6  C   UNL     1     -10.228   9.250  71.399  1.00  0.00    -0.371 C  
HETATM    7  C   UNL     1     -10.835  10.104  70.272  1.00  0.00    -0.310 C  
HETATM    8  N   UNL     1     -10.689   9.527  68.931  1.00  0.00    -0.217 NA 
HETATM    9  C   UNL     1      -9.363   8.947  68.646  1.00  0.00    -0.140 C  
HETATM   10  C   UNL     1      -8.296   8.855  69.752  1.00  0.00    -0.125 C  
ENDROOT
BRANCH   8  11
HETATM   11  C   UNL     1     -11.131  10.490  67.891  1.00  0.00    -0.304 C  
BRANCH  11  12
HETATM   12  C   UNL     1     -10.402  10.519  66.507  1.00  0.00    -0.233 C  
HETATM   13  H   UNL     1     -10.442   9.494  64.799  1.00  0.00     0.000 HD 
HETATM   14  O   UNL     1     -10.885   9.476  65.639  1.00  0.00     0.646 OA 
BRANCH  12  15
HETATM   15  C   UNL     1     -10.444  11.897  65.794  1.00  0.00    -0.256 C  
BRANCH  15  16
HETATM   16  N   UNL     1     -10.382  13.037  66.718  1.00  0.00    -0.252 N  
HETATM   17  C   UNL     1     -10.979  14.250  66.462  1.00  0.00    -0.316 C  
HETATM   18  O   UNL     1     -11.607  14.513  65.444  1.00  0.00    -0.343 OA 
HETATM   19  H   UNL     1      -9.872  12.923  67.593  1.00  0.00     0.000 HD 
BRANCH  17  20
HETATM   20  C   UNL     1     -10.788  15.308  67.482  1.00  0.00    -0.304 A  
HETATM   21  C   UNL     1     -11.592  15.253  68.635  1.00  0.00    -0.370 A  
HETATM   22  H   UNL     1      -9.033  19.170  68.799  1.00  0.00     0.000 HD 
HETATM   23  C   UNL     1      -9.882  16.372  67.277  1.00  0.00    -0.245 A  
HETATM   24  C   UNL     1      -9.847  17.378  68.253  1.00  0.00    -0.310 A  
HETATM   25  C   UNL     1     -11.495  16.242  69.606  1.00  0.00    -0.213 A  
HETATM   26  C   UNL     1      -8.966  16.461  66.083  1.00  0.00    -0.367 C  
HETATM   27  O   UNL     1      -9.057  18.488  68.138  1.00  0.00    -0.292 OA 
HETATM   28  C   UNL     1     -10.624  17.308  69.409  1.00  0.00    -0.079 A  
ENDBRANCH  17  20
ENDBRANCH  15  16
BRANCH  15  29
HETATM   29  C   UNL     1      -9.424  12.018  64.622  1.00  0.00     0.129 C  
BRANCH  29  30
HETATM   30  S   UNL     1      -8.960  10.445  63.807  1.00  0.00    -0.249 SA 
BRANCH  30  31
HETATM   31  C   UNL     1      -7.530   9.891  64.706  1.00  0.00    -0.136 A  
HETATM   32  C   UNL     1      -5.966   8.070  65.094  1.00  0.00    -0.045 A  
HETATM   33  C   UNL     1      -7.144   8.556  64.527  1.00  0.00    -0.078 A  
HETATM   34  C   UNL     1      -5.537  10.247  66.038  1.00  0.00    -0.069 A  
HETATM   35  C   UNL     1      -5.158   8.920  65.845  1.00  0.00    -0.029 A  
HETATM   36  C   UNL     1      -6.720  10.733  65.470  1.00  0.00     0.014 A  
ENDBRANCH  30  31
ENDBRANCH  29  30
ENDBRANCH  15  29
ENDBRANCH  12  15
ENDBRANCH  11  12
ENDBRANCH   8  11
BRANCH   9  37
HETATM   37  C   UNL     1      -9.552   7.528  68.023  1.00  0.00    -0.143 C  
HETATM   38  C   UNL     1      -8.771   5.570  65.689  1.00  0.00    -0.153 C  
HETATM   39  O   UNL     1     -10.645   7.000  67.829  1.00  0.00    -0.201 OA 
HETATM   40  C   UNL     1      -6.741   5.209  67.084  1.00  0.00    -0.055 C  
HETATM   41  C   UNL     1      -8.237   5.561  67.128  1.00  0.00    -0.101 C  
HETATM   42  N   UNL     1      -8.355   6.889  67.748  1.00  0.00    -0.120 N  
HETATM   43  C   UNL     1      -8.967   4.486  67.946  1.00  0.00    -0.133 C  
HETATM   44  H   UNL     1      -7.492   7.374  67.993  1.00  0.00     0.000 HD 
ENDBRANCH   9  37
TORSDOF 9
ENDMDL
MODEL      216
REMARK 921   NORMALIZED FREE ENERGY PREDICTED BY IDOCK:   -3.54 KCAL/MOL
REMARK 922        TOTAL FREE ENERGY PREDICTED BY IDOCK:   -8.24 KCAL/MOL
REMARK 923 INTER-LIGAND FREE ENERGY PREDICTED BY IDOCK:   -7.11 KCAL/MOL
REMARK 924 INTRA-LIGAND FREE ENERGY PREDICTED BY IDOCK:   -1.13 KCAL/MOL
REMARK 927      BINDING AFFINITY PREDICTED BY RF-SCORE:    0.00 PKD
ROOT
HETATM    1  C   UNL     1     -10.436  17.430  67.356  1.00  0.00    -0.336 C  
HETATM    2  C   UNL     1     -11.041  18.756  66.885  1.00  0.00     0.055 C  
HETATM    3  C   UNL     1     -10.100  19.929  67.134  1.00  0.00    -0.573 C  
HETATM    4  C   UNL     1      -9.745  20.037  68.611  1.00  0.00    -0.308 C  
HETATM    5  C   UNL     1      -9.181  18.738  69.186  1.00  0.00    -0.081 C  
HETATM    6  C   UNL     1      -9.992  17.485  68.819  1.00  0.00    -0.342 C  
HETATM    7  C   UNL     1      -9.265  16.174  69.165  1.00  0.00    -0.246 C  
HETATM    8  N   UNL     1      -8.018  15.960  68.424  1.00  0.00    -0.142 NA 
HETATM    9  C   UNL     1      -8.084  16.290  66.988  1.00  0.00    -0.209 C  
HETATM   10  C   UNL     1      -9.349  16.937  66.392  1.00  0.00    -0.303 C  
ENDROOT
BRANCH   8  11
HETATM   11  C   UNL     1      -7.479  14.600  68.677  1.00  0.00    -0.125 C  
BRANCH  11  12
HETATM   12  C   UNL     1      -7.045  13.705  67.469  1.00  0.00    -0.152 C  
HETATM   13  H   UNL     1      -5.406  13.396  66.380  1.00  0.00     0.000 HD 
HETATM   14  O   UNL     1      -5.669  13.939  67.113  1.00  0.00    -0.218 OA 
BRANCH  12  15
HETATM   15  C   UNL     1      -7.315  12.189  67.670  1.00  0.00    -0.122 C  
BRANCH  15  16
HETATM   16  N   UNL     1      -6.924  11.695  68.996  1.00  0.00    -0.106 N  
HETATM   17  C   UNL     1      -6.332  10.471  69.202  1.00  0.00    -0.051 C  
HETATM   18  O   UNL     1      -6.081   9.664  68.315  1.00  0.00    -0.050 OA 
HETATM   19  H   UNL     1      -7.100  12.291  69.806  1.00  0.00     0.000 HD 
BRANCH  17  20
HETATM   20  C   UNL     1      -6.034  10.108  70.608  1.00  0.00    -0.104 A  
HETATM   21  C   UNL     1      -6.226   8.767  70.989  1.00  0.00    -0.047 A  
HETATM   22  H   UNL     1      -5.051  11.234  74.791  1.00  0.00     0.000 HD 
HETATM   23  C   UNL     1      -5.638  11.082  71.550  1.00  0.00     0.234 A  
HETATM   24  C   UNL     1      -5.479  10.659  72.878  1.00  0.00     0.710 A  
HETATM   25  C   UNL     1      -6.010   8.374  72.303  1.00  0.00    -0.059 A  
HETATM   26  C   UNL     1      -5.377  12.524  71.191  1.00  0.00    -0.131 C  
HETATM   27  O   UNL     1      -5.158  11.520  73.891  1.00  0.00    -0.343 OA 
HETATM   28  C   UNL     1      -5.642   9.325  73.248  1.00  0.00    -0.011 A  
ENDBRANCH  17  20
ENDBRANCH  15  16
BRANCH  15  29
HETATM   29  C   UNL     1      -8.759  11.762  67.272  1.00  0.00    -0.163 C  
BRANCH  29  30
HETATM   30  S   UNL     1     -10.068  13.008  67.569  1.00  0.00    -0.221 SA 
BRANCH  30  31
HETATM   31  C   UNL     1     -10.877  13.177  65.996  1.00  0.00    -0.272 A  
HETATM   32  C   UNL     1     -11.446  12.105  63.888  1.00  0.00    -0.519 A  
HETATM   33  C   UNL     1     -10.745  12.112  65.094  1.00  0.00    -0.333 A  
HETATM   34  C   UNL     1     -12.421  14.236  64.457  1.00  0.00    -0.357 A  
HETATM   35  C   UNL     1     -12.291  13.167  63.573  1.00  0.00    -0.478 A  
HETATM   36  C   UNL     1     -11.717  14.242  65.665  1.00  0.00    -0.358 A  
ENDBRANCH  30  31
ENDBRANCH  29  30
ENDBRANCH  15  29
ENDBRANCH  12  15
ENDBRANCH  11  12
ENDBRANCH   8  11
BRANCH   9  37
HETATM   37  C   UNL     1      -6.853  17.173  66.612  1.00  0.00    -0.243 C  
HETATM   38  C   UNL     1      -5.456  18.900  64.385  1.00  0.00    -0.277 C  
HETATM   39  O   UNL     1      -5.685  16.848  66.809  1.00  0.00    -0.185 OA 
HETATM   40  C   UNL     1      -7.069  20.635  65.151  1.00  0.00    -0.012 C  
HETATM   41  C   UNL     1      -6.252  19.410  65.595  1.00  0.00    -0.212 C  
HETATM   42  N   UNL     1      -7.206  18.398  66.069  1.00  0.00    -0.260 N  
HETATM   43  C   UNL     1      -5.286  19.845  66.707  1.00  0.00    -0.164 C  
HETATM   44  H   UNL     1      -8.200  18.613  65.993  1.00  0.00     0.000 HD 
ENDBRANCH   9  37
TORSDOF 9
ENDMDL
MODEL      217
REMARK 921   NORMALIZED FREE ENERGY PREDICTED BY IDOCK:   -3.54 KCAL/MOL
REMARK 922        TOTAL FREE ENERGY PREDICTED BY IDOCK:   -8.23 KCAL/MOL
REMARK 923 INTER-LIGAND FREE ENERGY PREDICTED BY IDOCK:   -8.51 KCAL/MOL
REMARK 924 INTRA-LIGAND FREE ENERGY PREDICTED BY IDOCK:    0.28 KCAL/MOL
REMARK 927      BINDING AFFINITY PREDICTED BY RF-SCORE:    0.00 PKD
ROOT
HETATM    1  C   UNL     1     -10.817  18.003  66.859  1.00  0.00    -0.089 C  
HETATM    2  C   UNL     1     -11.041  19.490  67.151  1.00  0.00    -0.292 C  
HETATM    3  C   UNL     1     -10.002  20.041  68.120  1.00  0.00    -0.533 C  
HETATM    4  C   UNL     1     -10.014  19.266  69.430  1.00  0.00    -0.154 C  
HETATM    5  C   UNL     1      -9.850  17.760  69.235  1.00  0.00    -0.047 C  
HETATM    6  C   UNL     1     -10.750  17.167  68.139  1.00  0.00    -0.366 C  
HETATM    7  C   UNL     1     -10.375  15.722  67.768  1.00  0.00    -0.275 C  
HETATM    8  N   UNL     1      -9.040  15.576  67.179  1.00  0.00    -0.208 NA 
HETATM    9  C   UNL     1      -8.685  16.601  66.180  1.00  0.00    -0.287 C  
HETATM   10  C   UNL     1      -9.627  17.792  65.914  1.00  0.00     0.019 C  
ENDROOT
BRANCH   8  11
HETATM   11  C   UNL     1      -8.829  14.192  66.683  1.00  0.00    -0.114 C  
BRANCH  11  12
HETATM   12  C   UNL     1      -8.140  13.137  67.610  1.00  0.00    -0.176 C  
HETATM   13  H   UNL     1      -7.774  12.901  69.554  1.00  0.00     0.000 HD 
HETATM   14  O   UNL     1      -8.192  13.542  68.991  1.00  0.00     0.086 OA 
BRANCH  12  15
HETATM   15  C   UNL     1      -8.675  11.690  67.436  1.00  0.00    -0.155 C  
BRANCH  15  16
HETATM   16  N   UNL     1      -8.965  11.016  68.708  1.00  0.00    -0.223 N  
HETATM   17  C   UNL     1     -10.122  10.308  68.941  1.00  0.00    -0.204 C  
HETATM   18  O   UNL     1     -11.029  10.175  68.128  1.00  0.00    -0.255 OA 
HETATM   19  H   UNL     1      -8.275  11.076  69.456  1.00  0.00     0.000 HD 
BRANCH  17  20
HETATM   20  C   UNL     1     -10.276   9.720  70.293  1.00  0.00    -0.346 A  
HETATM   21  C   UNL     1      -9.141   9.130  70.879  1.00  0.00    -0.316 A  
HETATM   22  H   UNL     1     -12.806   8.425  73.706  1.00  0.00     0.000 HD 
HETATM   23  C   UNL     1     -11.528   9.693  70.944  1.00  0.00    -0.427 A  
HETATM   24  C   UNL     1     -11.594   9.025  72.175  1.00  0.00    -0.278 A  
HETATM   25  C   UNL     1      -9.232   8.520  72.123  1.00  0.00    -0.336 A  
HETATM   26  C   UNL     1     -12.767  10.347  70.384  1.00  0.00    -0.289 C  
HETATM   27  O   UNL     1     -12.762   8.878  72.872  1.00  0.00    -0.301 OA 
HETATM   28  C   UNL     1     -10.464   8.464  72.768  1.00  0.00    -0.231 A  
ENDBRANCH  17  20
ENDBRANCH  15  16
BRANCH  15  29
HETATM   29  C   UNL     1      -9.850  11.586  66.418  1.00  0.00    -0.205 C  
BRANCH  29  30
HETATM   30  S   UNL     1      -9.897  10.057  65.412  1.00  0.00    -0.299 SA 
BRANCH  30  31
HETATM   31  C   UNL     1      -8.196   9.554  65.300  1.00  0.00    -0.130 A  
HETATM   32  C   UNL     1      -6.041   9.935  64.242  1.00  0.00    -0.122 A  
HETATM   33  C   UNL     1      -7.412  10.177  64.320  1.00  0.00    -0.116 A  
HETATM   34  C   UNL     1      -6.211   8.432  66.120  1.00  0.00    -0.049 A  
HETATM   35  C   UNL     1      -5.438   9.066  65.149  1.00  0.00    -0.042 A  
HETATM   36  C   UNL     1      -7.586   8.675  66.197  1.00  0.00    -0.093 A  
ENDBRANCH  30  31
ENDBRANCH  29  30
ENDBRANCH  15  29
ENDBRANCH  12  15
ENDBRANCH  11  12
ENDBRANCH   8  11
BRANCH   9  37
HETATM   37  C   UNL     1      -7.264  17.160  66.506  1.00  0.00    -0.273 C  
HETATM   38  C   UNL     1      -5.136  19.401  65.921  1.00  0.00    -0.168 C  
HETATM   39  O   UNL     1      -6.243  16.476  66.524  1.00  0.00    -0.290 OA 
HETATM   40  C   UNL     1      -6.537  20.714  67.507  1.00  0.00    -0.359 C  
HETATM   41  C   UNL     1      -6.067  19.297  67.137  1.00  0.00    -0.182 C  
HETATM   42  N   UNL     1      -7.267  18.508  66.824  1.00  0.00    -0.205 N  
HETATM   43  C   UNL     1      -5.299  18.711  68.331  1.00  0.00    -0.180 C  
HETATM   44  H   UNL     1      -8.166  18.988  66.842  1.00  0.00     0.000 HD 
ENDBRANCH   9  37
TORSDOF 9
ENDMDL
MODEL      218
REMARK 921   NORMALIZED FREE ENERGY PREDICTED BY IDOCK:   -3.51 KCAL/MOL
REMARK 922        TOTAL FREE ENERGY PREDICTED BY IDOCK:   -8.19 KCAL/MOL
REMARK 923 INTER-LIGAND FREE ENERGY PREDICTED BY IDOCK:   -6.80 KCAL/MOL
REMARK 924 INTRA-LIGAND FREE ENERGY PREDICTED BY IDOCK:   -1.39 KCAL/MOL
REMARK 927      BINDING AFFINITY PREDICTED BY RF-SCORE:    0.00 PKD
ROOT
HETATM    1  C   UNL     1      -5.889   7.324  70.677  1.00  0.00    -0.027 C  
HETATM    2  C   UNL     1      -6.269   5.841  70.628  1.00  0.00    -0.031 C  
HETATM    3  C   UNL     1      -7.515   5.602  69.784  1.00  0.00    -0.074 C  
HETATM    4  C   UNL     1      -8.695   6.404  70.318  1.00  0.00    -0.143 C  
HETATM    5  C   UNL     1      -8.391   7.895  70.454  1.00  0.00    -0.121 C  
HETATM    6  C   UNL     1      -7.052   8.203  71.142  1.00  0.00    -0.058 C  
HETATM    7  C   UNL     1      -6.637   9.679  71.019  1.00  0.00    -0.031 C  
HETATM    8  N   UNL     1      -6.384  10.124  69.645  1.00  0.00    -0.050 NA 
HETATM    9  C   UNL     1      -5.615   9.177  68.817  1.00  0.00    -0.040 C  
HETATM   10  C   UNL     1      -5.250   7.782  69.359  1.00  0.00    -0.019 C  
ENDROOT
BRANCH   8  11
HETATM   11  C   UNL     1      -5.814  11.496  69.630  1.00  0.00    -0.087 C  
BRANCH  11  12
HETATM   12  C   UNL     1      -6.335  12.535  68.582  1.00  0.00    -0.073 C  
HETATM   13  H   UNL     1      -6.650  12.613  66.617  1.00  0.00     0.000 HD 
HETATM   14  O   UNL     1      -6.334  11.983  67.252  1.00  0.00    -0.122 OA 
BRANCH  12  15
HETATM   15  C   UNL     1      -7.719  13.148  68.927  1.00  0.00     0.080 C  
BRANCH  15  16
HETATM   16  N   UNL     1      -7.685  14.604  69.114  1.00  0.00    -0.206 N  
HETATM   17  C   UNL     1      -7.149  15.472  68.191  1.00  0.00    -0.119 C  
HETATM   18  O   UNL     1      -6.636  15.128  67.132  1.00  0.00    -0.285 OA 
HETATM   19  H   UNL     1      -8.079  14.991  69.971  1.00  0.00     0.000 HD 
BRANCH  17  20
HETATM   20  C   UNL     1      -7.159  16.909  68.551  1.00  0.00    -0.198 A  
HETATM   21  C   UNL     1      -6.068  17.403  69.288  1.00  0.00    -0.231 A  
HETATM   22  H   UNL     1      -9.217  20.836  68.820  1.00  0.00     0.000 HD 
HETATM   23  C   UNL     1      -8.253  17.740  68.225  1.00  0.00    -0.285 A  
HETATM   24  C   UNL     1      -8.215  19.060  68.697  1.00  0.00    -0.364 A  
HETATM   25  C   UNL     1      -6.041  18.730  69.697  1.00  0.00    -0.283 A  
HETATM   26  C   UNL     1      -9.429  17.277  67.401  1.00  0.00    -0.245 C  
HETATM   27  O   UNL     1      -9.242  19.942  68.500  1.00  0.00    -0.287 OA 
HETATM   28  C   UNL     1      -7.121  19.556  69.404  1.00  0.00    -0.329 A  
ENDBRANCH  17  20
ENDBRANCH  15  16
BRANCH  15  29
HETATM   29  C   UNL     1      -8.854  12.691  67.962  1.00  0.00    -0.195 C  
BRANCH  29  30
HETATM   30  S   UNL     1     -10.240  13.868  67.752  1.00  0.00    -0.241 SA 
BRANCH  30  31
HETATM   31  C   UNL     1     -11.164  13.216  66.381  1.00  0.00    -0.300 A  
HETATM   32  C   UNL     1     -13.207  13.357  65.069  1.00  0.00     0.164 A  
HETATM   33  C   UNL     1     -12.458  13.720  66.189  1.00  0.00    -0.466 A  
HETATM   34  C   UNL     1     -11.384  11.972  64.313  1.00  0.00    -0.433 A  
HETATM   35  C   UNL     1     -12.665  12.487  64.126  1.00  0.00    -0.417 A  
HETATM   36  C   UNL     1     -10.634  12.335  65.436  1.00  0.00    -0.309 A  
ENDBRANCH  30  31
ENDBRANCH  29  30
ENDBRANCH  15  29
ENDBRANCH  12  15
ENDBRANCH  11  12
ENDBRANCH   8  11
BRANCH   9  37
HETATM   37  C   UNL     1      -6.337   8.999  67.444  1.00  0.00    -0.060 C  
HETATM   38  C   UNL     1      -8.595   7.497  65.851  1.00  0.00    -0.165 C  
HETATM   39  O   UNL     1      -5.754   8.837  66.374  1.00  0.00    -0.045 OA 
HETATM   40  C   UNL     1     -10.062   9.185  66.943  1.00  0.00    -0.328 C  
HETATM   41  C   UNL     1      -8.644   8.926  66.409  1.00  0.00    -0.126 C  
HETATM   42  N   UNL     1      -7.716   9.090  67.537  1.00  0.00    -0.096 N  
HETATM   43  C   UNL     1      -8.354   9.932  65.285  1.00  0.00    -0.153 C  
HETATM   44  H   UNL     1      -8.117   9.284  68.454  1.00  0.00     0.000 HD 
ENDBRANCH   9  37
TORSDOF 9
ENDMDL
MODEL      219
REMARK 921   NORMALIZED FREE ENERGY PREDICTED BY IDOCK:   -3.43 KCAL/MOL
REMARK 922        TOTAL FREE ENERGY PREDICTED BY IDOCK:   -8.07 KCAL/MOL
REMARK 923 INTER-LIGAND FREE ENERGY PREDICTED BY IDOCK:   -6.83 KCAL/MOL
REMARK 924 INTRA-LIGAND FREE ENERGY PREDICTED BY IDOCK:   -1.24 KCAL/MOL
REMARK 927      BINDING AFFINITY PREDICTED BY RF-SCORE:    0.00 PKD
ROOT
HETATM    1  C   UNL     1      -9.025  13.932  67.747  1.00  0.00    -0.188 C  
HETATM    2  C   UNL     1      -9.439  15.043  68.718  1.00  0.00    -0.210 C  
HETATM    3  C   UNL     1     -10.901  14.920  69.130  1.00  0.00    -0.253 C  
HETATM    4  C   UNL     1     -11.814  14.954  67.912  1.00  0.00    -0.286 C  
HETATM    5  C   UNL     1     -11.443  13.912  66.857  1.00  0.00    -0.370 C  
HETATM    6  C   UNL     1      -9.943  13.862  66.525  1.00  0.00    -0.288 C  
HETATM    7  C   UNL     1      -9.553  12.635  65.683  1.00  0.00    -0.066 C  
HETATM    8  N   UNL     1      -9.760  11.349  66.356  1.00  0.00    -0.199 NA 
HETATM    9  C   UNL     1      -9.336  11.311  67.768  1.00  0.00    -0.163 C  
HETATM   10  C   UNL     1      -8.849  12.592  68.472  1.00  0.00    -0.046 C  
ENDROOT
BRANCH   8  11
HETATM   11  C   UNL     1      -9.191  10.235  65.555  1.00  0.00    -0.190 C  
BRANCH  11  12
HETATM   12  C   UNL     1      -7.697   9.818  65.766  1.00  0.00    -0.110 C  
HETATM   13  H   UNL     1      -6.313   9.970  67.191  1.00  0.00     0.000 HD 
HETATM   14  O   UNL     1      -7.220  10.223  67.063  1.00  0.00    -0.088 OA 
BRANCH  12  15
HETATM   15  C   UNL     1      -7.415   8.312  65.516  1.00  0.00    -0.077 C  
BRANCH  15  16
HETATM   16  N   UNL     1      -7.592   7.478  66.711  1.00  0.00    -0.099 N  
HETATM   17  C   UNL     1      -8.815   7.243  67.295  1.00  0.00    -0.124 C  
HETATM   18  O   UNL     1      -9.875   7.709  66.894  1.00  0.00    -0.195 OA 
HETATM   19  H   UNL     1      -6.765   7.051  67.130  1.00  0.00     0.000 HD 
BRANCH  17  20
HETATM   20  C   UNL     1      -8.814   6.409  68.520  1.00  0.00    -0.119 A  
HETATM   21  C   UNL     1      -9.621   5.256  68.524  1.00  0.00    -0.180 A  
HETATM   22  H   UNL     1      -7.718   5.746  72.773  1.00  0.00     0.000 HD 
HETATM   23  C   UNL     1      -8.084   6.789  69.668  1.00  0.00    -0.126 A  
HETATM   24  C   UNL     1      -8.227   5.989  70.810  1.00  0.00    -0.125 A  
HETATM   25  C   UNL     1      -9.700   4.459  69.658  1.00  0.00    -0.289 A  
HETATM   26  C   UNL     1      -7.171   7.989  69.708  1.00  0.00    -0.065 C  
HETATM   27  O   UNL     1      -7.621   6.288  71.999  1.00  0.00    -0.093 OA 
HETATM   28  C   UNL     1      -9.005   4.832  70.804  1.00  0.00    -0.163 A  
ENDBRANCH  17  20
ENDBRANCH  15  16
BRANCH  15  29
HETATM   29  C   UNL     1      -8.158   7.744  64.270  1.00  0.00    -0.079 C  
BRANCH  29  30
HETATM   30  S   UNL     1      -7.234   6.502  63.292  1.00  0.00    -0.066 SA 
BRANCH  30  31
HETATM   31  C   UNL     1      -7.964   4.949  63.754  1.00  0.00    -0.095 A  
HETATM   32  C   UNL     1      -9.834   3.836  64.839  1.00  0.00    -0.183 A  
HETATM   33  C   UNL     1      -9.126   4.999  64.535  1.00  0.00    -0.003 A  
HETATM   34  C   UNL     1      -8.225   2.545  63.592  1.00  0.00    -0.082 A  
HETATM   35  C   UNL     1      -9.386   2.608  64.360  1.00  0.00    -0.135 A  
HETATM   36  C   UNL     1      -7.515   3.711  63.289  1.00  0.00    -0.054 A  
ENDBRANCH  30  31
ENDBRANCH  29  30
ENDBRANCH  15  29
ENDBRANCH  12  15
ENDBRANCH  11  12
ENDBRANCH   8  11
BRANCH   9  37
HETATM   37  C   UNL     1     -10.478  10.680  68.626  1.00  0.00    -0.191 C  
HETATM   38  C   UNL     1     -11.490   8.132  70.166  1.00  0.00     0.005 C  
HETATM   39  O   UNL     1     -11.669  10.726  68.327  1.00  0.00    -0.468 OA 
HETATM   40  C   UNL     1      -9.974   8.986  71.948  1.00  0.00    -0.304 C  
HETATM   41  C   UNL     1     -10.874   9.401  70.772  1.00  0.00    -0.305 C  
HETATM   42  N   UNL     1     -10.022  10.097  69.797  1.00  0.00    -0.301 N  
HETATM   43  C   UNL     1     -11.986  10.314  71.307  1.00  0.00    -0.457 C  
HETATM   44  H   UNL     1      -9.024  10.155  69.997  1.00  0.00     0.000 HD 
ENDBRANCH   9  37
TORSDOF 9
ENDMDL
MODEL      220
REMARK 921   NORMALIZED FREE ENERGY PREDICTED BY IDOCK:   -3.42 KCAL/MOL
REMARK 922        TOTAL FREE ENERGY PREDICTED BY IDOCK:   -8.06 KCAL/MOL
REMARK 923 INTER-LIGAND FREE ENERGY PREDICTED BY IDOCK:   -7.12 KCAL/MOL
REMARK 924 INTRA-LIGAND FREE ENERGY PREDICTED BY IDOCK:   -0.94 KCAL/MOL
REMARK 927      BINDING AFFINITY PREDICTED BY RF-SCORE:    0.00 PKD
ROOT
HETATM    1  C   UNL     1      -7.999   4.411  68.462  1.00  0.00    -0.078 C  
HETATM    2  C   UNL     1      -7.083   3.233  68.113  1.00  0.00    -0.050 C  
HETATM    3  C   UNL     1      -7.195   2.844  66.643  1.00  0.00    -0.062 C  
HETATM    4  C   UNL     1      -8.630   2.486  66.283  1.00  0.00    -0.110 C  
HETATM    5  C   UNL     1      -9.629   3.584  66.646  1.00  0.00    -0.132 C  
HETATM    6  C   UNL     1      -9.453   4.149  68.065  1.00  0.00    -0.215 C  
HETATM    7  C   UNL     1     -10.271   5.428  68.310  1.00  0.00    -0.160 C  
HETATM    8  N   UNL     1      -9.876   6.568  67.476  1.00  0.00    -0.120 NA 
HETATM    9  C   UNL     1      -8.421   6.761  67.337  1.00  0.00    -0.121 C  
HETATM   10  C   UNL     1      -7.436   5.735  67.929  1.00  0.00    -0.078 C  
ENDROOT
BRANCH   8  11
HETATM   11  C   UNL     1     -10.583   7.804  67.900  1.00  0.00    -0.156 C  
BRANCH  11  12
HETATM   12  C   UNL     1     -10.124   9.188  67.331  1.00  0.00    -0.230 C  
HETATM   13  H   UNL     1     -10.254  10.190  65.614  1.00  0.00     0.000 HD 
HETATM   14  O   UNL     1     -10.532   9.350  65.960  1.00  0.00    -0.132 OA 
BRANCH  12  15
HETATM   15  C   UNL     1     -10.563  10.405  68.188  1.00  0.00    -0.211 C  
BRANCH  15  16
HETATM   16  N   UNL     1     -10.569  11.672  67.446  1.00  0.00    -0.212 N  
HETATM   17  C   UNL     1      -9.638  12.666  67.640  1.00  0.00    -0.188 C  
HETATM   18  O   UNL     1      -8.721  12.608  68.451  1.00  0.00    -0.175 OA 
HETATM   19  H   UNL     1     -11.302  11.823  66.752  1.00  0.00     0.000 HD 
BRANCH  17  20
HETATM   20  C   UNL     1      -9.810  13.899  66.836  1.00  0.00    -0.268 A  
HETATM   21  C   UNL     1      -8.834  14.904  66.969  1.00  0.00    -0.255 A  
HETATM   22  H   UNL     1     -12.233  16.498  64.171  1.00  0.00     0.000 HD 
HETATM   23  C   UNL     1     -10.944  14.090  66.017  1.00  0.00    -0.298 A  
HETATM   24  C   UNL     1     -11.067  15.331  65.376  1.00  0.00    -0.347 A  
HETATM   25  C   UNL     1      -8.963  16.102  66.279  1.00  0.00    -0.379 A  
HETATM   26  C   UNL     1     -11.999  13.033  65.803  1.00  0.00    -0.482 C  
HETATM   27  O   UNL     1     -12.150  15.657  64.606  1.00  0.00    -0.145 OA 
HETATM   28  C   UNL     1     -10.086  16.315  65.486  1.00  0.00    -0.276 A  
ENDBRANCH  17  20
ENDBRANCH  15  16
BRANCH  15  29
HETATM   29  C   UNL     1     -11.887  10.162  68.973  1.00  0.00     0.177 C  
BRANCH  29  30
HETATM   30  S   UNL     1     -11.796  10.417  70.784  1.00  0.00    -0.383 SA 
BRANCH  30  31
HETATM   31  C   UNL     1     -11.274   8.843  71.423  1.00  0.00    -0.312 A  
HETATM   32  C   UNL     1      -9.408   7.503  72.221  1.00  0.00    -0.185 A  
HETATM   33  C   UNL     1      -9.897   8.658  71.610  1.00  0.00    -0.351 A  
HETATM   34  C   UNL     1     -11.665   6.690  72.464  1.00  0.00    -0.200 A  
HETATM   35  C   UNL     1     -10.295   6.521  72.655  1.00  0.00    -0.214 A  
HETATM   36  C   UNL     1     -12.154   7.847  71.850  1.00  0.00    -0.352 A  
ENDBRANCH  30  31
ENDBRANCH  29  30
ENDBRANCH  15  29
ENDBRANCH  12  15
ENDBRANCH  11  12
ENDBRANCH   8  11
BRANCH   9  37
HETATM   37  C   UNL     1      -8.076   6.963  65.828  1.00  0.00    -0.123 C  
HETATM   38  C   UNL     1      -7.471   9.030  63.536  1.00  0.00    -0.103 C  
HETATM   39  O   UNL     1      -8.680   6.421  64.904  1.00  0.00     0.016 OA 
HETATM   40  C   UNL     1      -5.195   9.017  64.545  1.00  0.00    -0.050 C  
HETATM   41  C   UNL     1      -6.457   8.172  64.305  1.00  0.00    -0.066 C  
HETATM   42  N   UNL     1      -6.979   7.784  65.624  1.00  0.00    -0.053 N  
HETATM   43  C   UNL     1      -6.071   6.945  63.465  1.00  0.00    -0.043 C  
HETATM   44  H   UNL     1      -6.499   8.146  66.447  1.00  0.00     0.000 HD 
ENDBRANCH   9  37
TORSDOF 9
ENDMDL
MODEL      221
REMARK 921   NORMALIZED FREE ENERGY PREDICTED BY IDOCK:   -3.42 KCAL/MOL
REMARK 922        TOTAL FREE ENERGY PREDICTED BY IDOCK:   -8.05 KCAL/MOL
REMARK 923 INTER-LIGAND FREE ENERGY PREDICTED BY IDOCK:   -6.77 KCAL/MOL
REMARK 924 INTRA-LIGAND FREE ENERGY PREDICTED BY IDOCK:   -1.28 KCAL/MOL
REMARK 927      BINDING AFFINITY PREDICTED BY RF-SCORE:    0.00 PKD
ROOT
HETATM    1  C   UNL     1      -9.159  12.544  67.102  1.00  0.00    -0.205 C  
HETATM    2  C   UNL     1      -9.070  13.964  67.670  1.00  0.00    -0.197 C  
HETATM    3  C   UNL     1     -10.303  14.326  68.489  1.00  0.00    -0.244 C  
HETATM    4  C   UNL     1     -11.569  14.201  67.652  1.00  0.00    -0.394 C  
HETATM    5  C   UNL     1     -11.718  12.829  66.996  1.00  0.00    -0.440 C  
HETATM    6  C   UNL     1     -10.444  12.324  66.300  1.00  0.00    -0.266 C  
HETATM    7  C   UNL     1     -10.526  10.842  65.895  1.00  0.00    -0.204 C  
HETATM    8  N   UNL     1     -10.648   9.912  67.023  1.00  0.00    -0.227 NA 
HETATM    9  C   UNL     1      -9.771  10.210  68.171  1.00  0.00    -0.139 C  
HETATM   10  C   UNL     1      -8.914  11.490  68.188  1.00  0.00    -0.172 C  
ENDROOT
BRANCH   8  11
HETATM   11  C   UNL     1     -10.535   8.505  66.563  1.00  0.00    -0.034 C  
BRANCH  11  12
HETATM   12  C   UNL     1     -10.376   7.359  67.617  1.00  0.00    -0.231 C  
HETATM   13  H   UNL     1     -11.182   5.575  67.986  1.00  0.00     0.000 HD 
HETATM   14  O   UNL     1     -11.279   6.270  67.346  1.00  0.00    -0.328 OA 
BRANCH  12  15
HETATM   15  C   UNL     1      -8.921   6.845  67.783  1.00  0.00    -0.117 C  
BRANCH  15  16
HETATM   16  N   UNL     1      -8.572   6.510  69.170  1.00  0.00    -0.129 N  
HETATM   17  C   UNL     1      -9.042   5.392  69.819  1.00  0.00    -0.128 C  
HETATM   18  O   UNL     1      -9.802   4.570  69.321  1.00  0.00    -0.192 OA 
HETATM   19  H   UNL     1      -7.951   7.140  69.678  1.00  0.00     0.000 HD 
BRANCH  17  20
HETATM   20  C   UNL     1      -8.625   5.222  71.231  1.00  0.00    -0.132 A  
HETATM   21  C   UNL     1      -8.726   6.340  72.078  1.00  0.00    -0.134 A  
HETATM   22  H   UNL     1      -6.711   2.851  74.463  1.00  0.00     0.000 HD 
HETATM   23  C   UNL     1      -8.083   4.004  71.695  1.00  0.00    -0.078 A  
HETATM   24  C   UNL     1      -7.623   3.973  73.020  1.00  0.00    -0.075 A  
HETATM   25  C   UNL     1      -8.307   6.259  73.399  1.00  0.00    -0.114 A  
HETATM   26  C   UNL     1      -7.989   2.761  70.846  1.00  0.00    -0.055 C  
HETATM   27  O   UNL     1      -7.023   2.872  73.566  1.00  0.00    -0.036 OA 
HETATM   28  C   UNL     1      -7.749   5.073  73.867  1.00  0.00    -0.098 A  
ENDBRANCH  17  20
ENDBRANCH  15  16
BRANCH  15  29
HETATM   29  C   UNL     1      -8.548   5.713  66.780  1.00  0.00    -0.111 C  
BRANCH  29  30
HETATM   30  S   UNL     1      -6.987   5.952  65.855  1.00  0.00    -0.063 SA 
BRANCH  30  31
HETATM   31  C   UNL     1      -7.213   7.496  65.005  1.00  0.00    -0.066 A  
HETATM   32  C   UNL     1      -8.246   8.635  63.121  1.00  0.00    -0.170 A  
HETATM   33  C   UNL     1      -7.915   7.458  63.792  1.00  0.00    -0.075 A  
HETATM   34  C   UNL     1      -7.172   9.915  64.860  1.00  0.00    -0.136 A  
HETATM   35  C   UNL     1      -7.879   9.866  63.660  1.00  0.00    -0.145 A  
HETATM   36  C   UNL     1      -6.839   8.734  65.531  1.00  0.00    -0.075 A  
ENDBRANCH  30  31
ENDBRANCH  29  30
ENDBRANCH  15  29
ENDBRANCH  12  15
ENDBRANCH  11  12
ENDBRANCH   8  11
BRANCH   9  37
HETATM   37  C   UNL     1     -10.616  10.164  69.483  1.00  0.00    -0.245 C  
HETATM   38  C   UNL     1     -13.293   9.222  70.838  1.00  0.00    -0.018 C  
HETATM   39  O   UNL     1     -10.834  11.141  70.197  1.00  0.00    -0.057 OA 
HETATM   40  C   UNL     1     -12.101   7.040  70.966  1.00  0.00    -0.413 C  
HETATM   41  C   UNL     1     -11.910   8.567  70.956  1.00  0.00    -0.257 C  
HETATM   42  N   UNL     1     -11.066   8.892  69.798  1.00  0.00    -0.408 N  
HETATM   43  C   UNL     1     -11.248   8.984  72.277  1.00  0.00    -0.160 C  
HETATM   44  H   UNL     1     -10.791   8.127  69.183  1.00  0.00     0.000 HD 
ENDBRANCH   9  37
TORSDOF 9
ENDMDL
MODEL      222
REMARK 921   NORMALIZED FREE ENERGY PREDICTED BY IDOCK:   -3.38 KCAL/MOL
REMARK 922        TOTAL FREE ENERGY PREDICTED BY IDOCK:   -7.99 KCAL/MOL
REMARK 923 INTER-LIGAND FREE ENERGY PREDICTED BY IDOCK:   -6.08 KCAL/MOL
REMARK 924 INTRA-LIGAND FREE ENERGY PREDICTED BY IDOCK:   -1.92 KCAL/MOL
REMARK 927      BINDING AFFINITY PREDICTED BY RF-SCORE:    0.00 PKD
ROOT
HETATM    1  C   UNL     1     -12.007  13.319  67.088  1.00  0.00    -0.400 C  
HETATM    2  C   UNL     1     -11.895  14.749  66.551  1.00  0.00    -0.238 C  
HETATM    3  C   UNL     1     -10.445  15.153  66.314  1.00  0.00    -0.312 C  
HETATM    4  C   UNL     1      -9.630  15.034  67.595  1.00  0.00    -0.203 C  
HETATM    5  C   UNL     1      -9.725  13.651  68.237  1.00  0.00    -0.231 C  
HETATM    6  C   UNL     1     -11.158  13.105  68.343  1.00  0.00    -0.298 C  
HETATM    7  C   UNL     1     -11.209  11.616  68.727  1.00  0.00    -0.245 C  
HETATM    8  N   UNL     1     -10.611  10.715  67.736  1.00  0.00    -0.217 NA 
HETATM    9  C   UNL     1     -10.948  11.021  66.334  1.00  0.00    -0.137 C  
HETATM   10  C   UNL     1     -11.758  12.284  65.983  1.00  0.00    -0.451 C  
ENDROOT
BRANCH   8  11
HETATM   11  C   UNL     1     -10.864   9.295  68.092  1.00  0.00    -0.090 C  
BRANCH  11  12
HETATM   12  C   UNL     1     -10.713   8.835  69.580  1.00  0.00    -0.208 C  
HETATM   13  H   UNL     1     -11.813   8.839  71.241  1.00  0.00     0.000 HD 
HETATM   14  O   UNL     1     -11.904   9.119  70.338  1.00  0.00    -0.171 OA 
BRANCH  12  15
HETATM   15  C   UNL     1     -10.290   7.350  69.747  1.00  0.00    -0.222 C  
BRANCH  15  16
HETATM   16  N   UNL     1      -9.813   6.734  68.503  1.00  0.00    -0.139 N  
HETATM   17  C   UNL     1      -9.725   5.373  68.319  1.00  0.00    -0.135 C  
HETATM   18  O   UNL     1     -10.019   4.539  69.167  1.00  0.00    -0.178 OA 
HETATM   19  H   UNL     1      -9.533   7.345  67.736  1.00  0.00     0.000 HD 
BRANCH  17  20
HETATM   20  C   UNL     1      -9.186   4.915  67.016  1.00  0.00    -0.127 A  
HETATM   21  C   UNL     1      -9.676   3.702  66.499  1.00  0.00    -0.100 A  
HETATM   22  H   UNL     1      -6.278   5.252  63.676  1.00  0.00     0.000 HD 
HETATM   23  C   UNL     1      -8.171   5.634  66.348  1.00  0.00    -0.107 A  
HETATM   24  C   UNL     1      -7.655   5.067  65.174  1.00  0.00    -0.081 A  
HETATM   25  C   UNL     1      -9.177   3.196  65.307  1.00  0.00    -0.150 A  
HETATM   26  C   UNL     1      -7.638   6.959  66.832  1.00  0.00    -0.094 C  
HETATM   27  O   UNL     1      -6.628   5.636  64.471  1.00  0.00    -0.042 OA 
HETATM   28  C   UNL     1      -8.160   3.879  64.648  1.00  0.00    -0.090 A  
ENDBRANCH  17  20
ENDBRANCH  15  16
BRANCH  15  29
HETATM   29  C   UNL     1      -9.321   7.116  70.944  1.00  0.00    -0.160 C  
BRANCH  29  30
HETATM   30  S   UNL     1      -8.505   8.612  71.611  1.00  0.00    -0.145 SA 
BRANCH  30  31
HETATM   31  C   UNL     1      -7.176   8.930  70.474  1.00  0.00    -0.071 A  
HETATM   32  C   UNL     1      -5.258   8.009  69.297  1.00  0.00    -0.026 A  
HETATM   33  C   UNL     1      -6.258   7.892  70.262  1.00  0.00    -0.033 A  
HETATM   34  C   UNL     1      -6.069  10.210  68.740  1.00  0.00    -0.047 A  
HETATM   35  C   UNL     1      -5.168   9.168  68.530  1.00  0.00    -0.034 A  
HETATM   36  C   UNL     1      -7.070  10.093  69.709  1.00  0.00    -0.127 A  
ENDBRANCH  30  31
ENDBRANCH  29  30
ENDBRANCH  15  29
ENDBRANCH  12  15
ENDBRANCH  11  12
ENDBRANCH   8  11
BRANCH   9  37
HETATM   37  C   UNL     1      -9.639  11.022  65.484  1.00  0.00    -0.222 C  
HETATM   38  C   UNL     1      -7.056   9.431  64.657  1.00  0.00    -0.100 C  
HETATM   39  O   UNL     1      -8.831  11.948  65.463  1.00  0.00     0.062 OA 
HETATM   40  C   UNL     1      -8.630   8.287  63.103  1.00  0.00     0.128 C  
HETATM   41  C   UNL     1      -8.341   9.608  63.837  1.00  0.00    -0.172 C  
HETATM   42  N   UNL     1      -9.493   9.886  64.705  1.00  0.00    -0.326 N  
HETATM   43  C   UNL     1      -8.140  10.713  62.790  1.00  0.00    -0.139 C  
HETATM   44  H   UNL     1     -10.239   9.191  64.737  1.00  0.00     0.000 HD 
ENDBRANCH   9  37
TORSDOF 9
ENDMDL
MODEL      223
REMARK 921   NORMALIZED FREE ENERGY PREDICTED BY IDOCK:   -3.36 KCAL/MOL
REMARK 922        TOTAL FREE ENERGY PREDICTED BY IDOCK:   -7.96 KCAL/MOL
REMARK 923 INTER-LIGAND FREE ENERGY PREDICTED BY IDOCK:   -6.24 KCAL/MOL
REMARK 924 INTRA-LIGAND FREE ENERGY PREDICTED BY IDOCK:   -1.73 KCAL/MOL
REMARK 927      BINDING AFFINITY PREDICTED BY RF-SCORE:    0.00 PKD
ROOT
HETATM    1  C   UNL     1      -7.609   3.537  66.592  1.00  0.00    -0.080 C  
HETATM    2  C   UNL     1      -6.553   2.605  65.990  1.00  0.00    -0.028 C  
HETATM    3  C   UNL     1      -6.653   2.538  64.471  1.00  0.00    -0.031 C  
HETATM    4  C   UNL     1      -8.037   2.072  64.038  1.00  0.00    -0.073 C  
HETATM    5  C   UNL     1      -9.164   2.913  64.635  1.00  0.00    -0.144 C  
HETATM    6  C   UNL     1      -9.025   3.169  66.144  1.00  0.00    -0.149 C  
HETATM    7  C   UNL     1     -10.002   4.237  66.666  1.00  0.00    -0.177 C  
HETATM    8  N   UNL     1      -9.790   5.576  66.108  1.00  0.00    -0.138 NA 
HETATM    9  C   UNL     1      -8.379   5.996  66.018  1.00  0.00    -0.134 C  
HETATM   10  C   UNL     1      -7.247   5.011  66.368  1.00  0.00    -0.077 C  
ENDROOT
BRANCH   8  11
HETATM   11  C   UNL     1     -10.645   6.577  66.795  1.00  0.00    -0.253 C  
BRANCH  11  12
HETATM   12  C   UNL     1     -10.293   7.020  68.254  1.00  0.00    -0.194 C  
HETATM   13  H   UNL     1     -10.145   6.178  70.053  1.00  0.00     0.000 HD 
HETATM   14  O   UNL     1     -10.359   5.909  69.168  1.00  0.00    -0.192 OA 
BRANCH  12  15
HETATM   15  C   UNL     1      -8.937   7.765  68.383  1.00  0.00    -0.132 C  
BRANCH  15  16
HETATM   16  N   UNL     1      -9.078   9.221  68.505  1.00  0.00    -0.132 N  
HETATM   17  C   UNL     1      -9.003  10.080  67.433  1.00  0.00    -0.131 C  
HETATM   18  O   UNL     1      -8.801   9.729  66.277  1.00  0.00    -0.142 OA 
HETATM   19  H   UNL     1      -9.239   9.616  69.432  1.00  0.00     0.000 HD 
BRANCH  17  20
HETATM   20  C   UNL     1      -9.128  11.526  67.735  1.00  0.00    -0.165 A  
HETATM   21  C   UNL     1      -7.958  12.305  67.684  1.00  0.00    -0.161 A  
HETATM   22  H   UNL     1     -11.473  15.008  69.185  1.00  0.00     0.000 HD 
HETATM   23  C   UNL     1     -10.362  12.092  68.124  1.00  0.00    -0.207 A  
HETATM   24  C   UNL     1     -10.357  13.446  68.487  1.00  0.00    -0.236 A  
HETATM   25  C   UNL     1      -8.000  13.656  68.002  1.00  0.00    -0.154 A  
HETATM   26  C   UNL     1     -11.655  11.316  68.155  1.00  0.00    -0.359 C  
HETATM   27  O   UNL     1     -11.476  14.091  68.939  1.00  0.00    -0.255 OA 
HETATM   28  C   UNL     1      -9.203  14.223  68.409  1.00  0.00    -0.196 A  
ENDBRANCH  17  20
ENDBRANCH  15  16
BRANCH  15  29
HETATM   29  C   UNL     1      -8.001   7.158  69.471  1.00  0.00    -0.128 C  
BRANCH  29  30
HETATM   30  S   UNL     1      -7.704   8.209  70.941  1.00  0.00    -0.092 SA 
BRANCH  30  31
HETATM   31  C   UNL     1      -8.517   7.348  72.267  1.00  0.00    -0.112 A  
HETATM   32  C   UNL     1     -10.525   7.159  73.624  1.00  0.00    -0.412 A  
HETATM   33  C   UNL     1      -9.762   7.843  72.677  1.00  0.00    -0.304 A  
HETATM   34  C   UNL     1      -8.808   5.474  73.774  1.00  0.00    -0.124 A  
HETATM   35  C   UNL     1     -10.050   5.969  74.168  1.00  0.00    -0.287 A  
HETATM   36  C   UNL     1      -8.043   6.161  72.827  1.00  0.00    -0.106 A  
ENDBRANCH  30  31
ENDBRANCH  29  30
ENDBRANCH  15  29
ENDBRANCH  12  15
ENDBRANCH  11  12
ENDBRANCH   8  11
BRANCH   9  37
HETATM   37  C   UNL     1      -8.109   6.572  64.592  1.00  0.00    -0.092 C  
HETATM   38  C   UNL     1      -8.354   9.062  62.687  1.00  0.00    -0.200 C  
HETATM   39  O   UNL     1      -8.410   5.997  63.548  1.00  0.00    -0.069 OA 
HETATM   40  C   UNL     1      -6.304   9.799  63.893  1.00  0.00    -0.118 C  
HETATM   41  C   UNL     1      -7.096   8.570  63.417  1.00  0.00    -0.090 C  
HETATM   42  N   UNL     1      -7.445   7.788  64.611  1.00  0.00    -0.088 N  
HETATM   43  C   UNL     1      -6.215   7.765  62.450  1.00  0.00    -0.076 C  
HETATM   44  H   UNL     1      -7.181   8.168  65.520  1.00  0.00     0.000 HD 
ENDBRANCH   9  37
TORSDOF 9
ENDMDL
MODEL      224
REMARK 921   NORMALIZED FREE ENERGY PREDICTED BY IDOCK:   -3.34 KCAL/MOL
REMARK 922        TOTAL FREE ENERGY PREDICTED BY IDOCK:   -7.94 KCAL/MOL
REMARK 923 INTER-LIGAND FREE ENERGY PREDICTED BY IDOCK:   -6.69 KCAL/MOL
REMARK 924 INTRA-LIGAND FREE ENERGY PREDICTED BY IDOCK:   -1.25 KCAL/MOL
REMARK 927      BINDING AFFINITY PREDICTED BY RF-SCORE:    0.00 PKD
ROOT
HETATM    1  C   UNL     1      -8.949  15.618  68.838  1.00  0.00    -0.221 C  
HETATM    2  C   UNL     1     -10.214  16.480  68.904  1.00  0.00    -0.268 C  
HETATM    3  C   UNL     1     -11.085  16.305  67.666  1.00  0.00    -0.184 C  
HETATM    4  C   UNL     1     -10.309  16.652  66.402  1.00  0.00    -0.310 C  
HETATM    5  C   UNL     1      -8.998  15.877  66.275  1.00  0.00    -0.381 C  
HETATM    6  C   UNL     1      -8.150  15.864  67.556  1.00  0.00    -0.171 C  
HETATM    7  C   UNL     1      -6.986  14.859  67.498  1.00  0.00    -0.176 C  
HETATM    8  N   UNL     1      -7.403  13.457  67.393  1.00  0.00    -0.148 NA 
HETATM    9  C   UNL     1      -8.528  13.075  68.266  1.00  0.00    -0.159 C  
HETATM   10  C   UNL     1      -9.264  14.140  69.102  1.00  0.00     0.202 C  
ENDROOT
BRANCH   8  11
HETATM   11  C   UNL     1      -6.236  12.547  67.528  1.00  0.00    -0.155 C  
BRANCH  11  12
HETATM   12  C   UNL     1      -5.898  11.930  68.926  1.00  0.00    -0.052 C  
HETATM   13  H   UNL     1      -6.481  12.160  70.817  1.00  0.00     0.000 HD 
HETATM   14  O   UNL     1      -6.687  12.534  69.968  1.00  0.00     0.104 OA 
BRANCH  12  15
HETATM   15  C   UNL     1      -5.999  10.382  68.980  1.00  0.00    -0.040 C  
BRANCH  15  16
HETATM   16  N   UNL     1      -7.208   9.898  69.658  1.00  0.00    -0.092 N  
HETATM   17  C   UNL     1      -7.275   8.689  70.312  1.00  0.00    -0.049 C  
HETATM   18  O   UNL     1      -6.349   7.890  70.387  1.00  0.00    -0.036 OA 
HETATM   19  H   UNL     1      -8.040  10.488  69.644  1.00  0.00     0.000 HD 
BRANCH  17  20
HETATM   20  C   UNL     1      -8.582   8.333  70.911  1.00  0.00    -0.152 A  
HETATM   21  C   UNL     1      -8.751   8.561  72.289  1.00  0.00    -0.261 A  
HETATM   22  H   UNL     1     -12.581   6.414  70.664  1.00  0.00     0.000 HD 
HETATM   23  C   UNL     1      -9.601   7.725  70.144  1.00  0.00    -0.168 A  
HETATM   24  C   UNL     1     -10.763   7.333  70.824  1.00  0.00    -0.231 A  
HETATM   25  C   UNL     1      -9.936   8.205  72.919  1.00  0.00    -0.336 A  
HETATM   26  C   UNL     1      -9.494   7.495  68.658  1.00  0.00    -0.146 C  
HETATM   27  O   UNL     1     -11.793   6.680  70.204  1.00  0.00    -0.389 OA 
HETATM   28  C   UNL     1     -10.940   7.584  72.183  1.00  0.00    -0.293 A  
ENDBRANCH  17  20
ENDBRANCH  15  16
BRANCH  15  29
HETATM   29  C   UNL     1      -5.770   9.700  67.598  1.00  0.00    -0.040 C  
BRANCH  29  30
HETATM   30  S   UNL     1      -7.285   9.271  66.663  1.00  0.00    -0.082 SA 
BRANCH  30  31
HETATM   31  C   UNL     1      -6.719   9.043  64.994  1.00  0.00    -0.069 A  
HETATM   32  C   UNL     1      -5.916   7.464  63.328  1.00  0.00    -0.053 A  
HETATM   33  C   UNL     1      -6.261   7.765  64.646  1.00  0.00    -0.045 A  
HETATM   34  C   UNL     1      -6.472   9.719  62.680  1.00  0.00    -0.105 A  
HETATM   35  C   UNL     1      -6.028   8.442  62.343  1.00  0.00    -0.084 A  
HETATM   36  C   UNL     1      -6.817  10.020  64.001  1.00  0.00    -0.126 A  
ENDBRANCH  30  31
ENDBRANCH  29  30
ENDBRANCH  15  29
ENDBRANCH  12  15
ENDBRANCH  11  12
ENDBRANCH   8  11
BRANCH   9  37
HETATM   37  C   UNL     1      -9.584  12.294  67.422  1.00  0.00    -0.179 C  
HETATM   38  C   UNL     1     -12.015  12.495  65.437  1.00  0.00    -0.492 C  
HETATM   39  O   UNL     1     -10.279  11.381  67.863  1.00  0.00    -0.176 OA 
HETATM   40  C   UNL     1     -10.214  12.828  63.750  1.00  0.00    -0.166 C  
HETATM   41  C   UNL     1     -10.558  12.158  65.092  1.00  0.00    -0.286 C  
HETATM   42  N   UNL     1      -9.633  12.698  66.098  1.00  0.00    -0.327 N  
HETATM   43  C   UNL     1     -10.399  10.639  64.933  1.00  0.00    -0.347 C  
HETATM   44  H   UNL     1      -8.981  13.423  65.801  1.00  0.00     0.000 HD 
ENDBRANCH   9  37
TORSDOF 9
ENDMDL
MODEL      225
REMARK 921   NORMALIZED FREE ENERGY PREDICTED BY IDOCK:   -3.34 KCAL/MOL
REMARK 922        TOTAL FREE ENERGY PREDICTED BY IDOCK:   -7.93 KCAL/MOL
REMARK 923 INTER-LIGAND FREE ENERGY PREDICTED BY IDOCK:   -7.42 KCAL/MOL
REMARK 924 INTRA-LIGAND FREE ENERGY PREDICTED BY IDOCK:   -0.51 KCAL/MOL
REMARK 927      BINDING AFFINITY PREDICTED BY RF-SCORE:    0.00 PKD
ROOT
HETATM    1  C   UNL     1      -8.470   4.630  67.421  1.00  0.00    -0.104 C  
HETATM    2  C   UNL     1      -7.557   3.540  66.851  1.00  0.00    -0.079 C  
HETATM    3  C   UNL     1      -7.461   3.619  65.332  1.00  0.00    -0.077 C  
HETATM    4  C   UNL     1      -8.838   3.503  64.693  1.00  0.00    -0.119 C  
HETATM    5  C   UNL     1      -9.838   4.520  65.241  1.00  0.00    -0.182 C  
HETATM    6  C   UNL     1      -9.857   4.618  66.775  1.00  0.00    -0.237 C  
HETATM    7  C   UNL     1     -10.654   5.828  67.292  1.00  0.00    -0.279 C  
HETATM    8  N   UNL     1     -10.095   7.129  66.909  1.00  0.00    -0.226 NA 
HETATM    9  C   UNL     1      -8.629   7.235  67.029  1.00  0.00    -0.122 C  
HETATM   10  C   UNL     1      -7.784   6.002  67.401  1.00  0.00    -0.097 C  
ENDROOT
BRANCH   8  11
HETATM   11  C   UNL     1     -10.810   8.235  67.595  1.00  0.00    -0.013 C  
BRANCH  11  12
HETATM   12  C   UNL     1     -10.687   8.386  69.148  1.00  0.00    -0.106 C  
HETATM   13  H   UNL     1     -10.387   7.203  70.723  1.00  0.00     0.000 HD 
HETATM   14  O   UNL     1     -10.462   7.112  69.781  1.00  0.00    -0.212 OA 
BRANCH  12  15
HETATM   15  C   UNL     1      -9.629   9.426  69.604  1.00  0.00    -0.188 C  
BRANCH  15  16
HETATM   16  N   UNL     1     -10.124  10.808  69.595  1.00  0.00    -0.442 N  
HETATM   17  C   UNL     1     -10.060  11.627  68.490  1.00  0.00    -0.206 C  
HETATM   18  O   UNL     1      -9.577  11.300  67.413  1.00  0.00    -0.168 OA 
HETATM   19  H   UNL     1     -10.537  11.180  70.450  1.00  0.00     0.000 HD 
BRANCH  17  20
HETATM   20  C   UNL     1     -10.570  13.008  68.660  1.00  0.00    -0.257 A  
HETATM   21  C   UNL     1     -11.563  13.220  69.634  1.00  0.00    -0.329 A  
HETATM   22  H   UNL     1     -10.860  17.237  67.335  1.00  0.00     0.000 HD 
HETATM   23  C   UNL     1     -10.126  14.062  67.832  1.00  0.00    -0.237 A  
HETATM   24  C   UNL     1     -10.742  15.310  68.002  1.00  0.00    -0.268 A  
HETATM   25  C   UNL     1     -12.115  14.482  69.809  1.00  0.00    -0.380 A  
HETATM   26  C   UNL     1      -9.036  13.903  66.802  1.00  0.00    -0.238 C  
HETATM   27  O   UNL     1     -10.443  16.391  67.220  1.00  0.00    -0.299 OA 
HETATM   28  C   UNL     1     -11.706  15.526  68.986  1.00  0.00    -0.392 A  
ENDBRANCH  17  20
ENDBRANCH  15  16
BRANCH  15  29
HETATM   29  C   UNL     1      -8.929   9.048  70.944  1.00  0.00    -0.243 C  
BRANCH  29  30
HETATM   30  S   UNL     1      -7.367   8.106  70.786  1.00  0.00    -0.061 SA 
BRANCH  30  31
HETATM   31  C   UNL     1      -7.352   7.041  72.209  1.00  0.00    -0.085 A  
HETATM   32  C   UNL     1      -8.120   6.706  74.492  1.00  0.00    -0.140 A  
HETATM   33  C   UNL     1      -7.976   7.521  73.369  1.00  0.00    -0.150 A  
HETATM   34  C   UNL     1      -7.008   4.915  73.321  1.00  0.00    -0.071 A  
HETATM   35  C   UNL     1      -7.641   5.398  74.464  1.00  0.00    -0.088 A  
HETATM   36  C   UNL     1      -6.863   5.734  72.196  1.00  0.00    -0.073 A  
ENDBRANCH  30  31
ENDBRANCH  29  30
ENDBRANCH  15  29
ENDBRANCH  12  15
ENDBRANCH  11  12
ENDBRANCH   8  11
BRANCH   9  37
HETATM   37  C   UNL     1      -8.054   7.850  65.715  1.00  0.00    -0.123 C  
HETATM   38  C   UNL     1      -8.614   8.596  62.711  1.00  0.00    -0.091 C  
HETATM   39  O   UNL     1      -6.970   7.539  65.225  1.00  0.00    -0.056 OA 
HETATM   40  C   UNL     1      -9.703  10.590  63.731  1.00  0.00    -0.385 C  
HETATM   41  C   UNL     1      -8.588   9.547  63.916  1.00  0.00    -0.212 C  
HETATM   42  N   UNL     1      -8.868   8.829  65.168  1.00  0.00    -0.326 N  
HETATM   43  C   UNL     1      -7.239  10.279  63.972  1.00  0.00    -0.057 C  
HETATM   44  H   UNL     1      -9.723   9.068  65.669  1.00  0.00     0.000 HD 
ENDBRANCH   9  37
TORSDOF 9
ENDMDL
MODEL      226
REMARK 921   NORMALIZED FREE ENERGY PREDICTED BY IDOCK:   -3.33 KCAL/MOL
REMARK 922        TOTAL FREE ENERGY PREDICTED BY IDOCK:   -7.92 KCAL/MOL
REMARK 923 INTER-LIGAND FREE ENERGY PREDICTED BY IDOCK:   -6.38 KCAL/MOL
REMARK 924 INTRA-LIGAND FREE ENERGY PREDICTED BY IDOCK:   -1.55 KCAL/MOL
REMARK 927      BINDING AFFINITY PREDICTED BY RF-SCORE:    0.00 PKD
ROOT
HETATM    1  C   UNL     1     -12.213  13.909  69.098  1.00  0.00    -0.305 C  
HETATM    2  C   UNL     1     -13.267  14.674  69.905  1.00  0.00     0.526 C  
HETATM    3  C   UNL     1     -12.702  15.956  70.504  1.00  0.00    -0.085 C  
HETATM    4  C   UNL     1     -11.506  15.657  71.399  1.00  0.00    -0.488 C  
HETATM    5  C   UNL     1     -10.420  14.846  70.693  1.00  0.00     0.232 C  
HETATM    6  C   UNL     1     -10.950  13.631  69.915  1.00  0.00     0.211 C  
HETATM    7  C   UNL     1      -9.894  12.998  68.993  1.00  0.00     0.292 C  
HETATM    8  N   UNL     1      -9.431  13.875  67.913  1.00  0.00    -0.205 NA 
HETATM    9  C   UNL     1     -10.494  14.637  67.232  1.00  0.00    -0.266 C  
HETATM   10  C   UNL     1     -11.945  14.584  67.746  1.00  0.00    -0.345 C  
ENDROOT
BRANCH   8  11
HETATM   11  C   UNL     1      -8.558  13.134  66.967  1.00  0.00    -0.162 C  
BRANCH  11  12
HETATM   12  C   UNL     1      -7.163  12.614  67.450  1.00  0.00    -0.138 C  
HETATM   13  H   UNL     1      -5.962  12.865  69.019  1.00  0.00     0.000 HD 
HETATM   14  O   UNL     1      -6.808  13.180  68.726  1.00  0.00    -0.093 OA 
BRANCH  12  15
HETATM   15  C   UNL     1      -7.033  11.068  67.474  1.00  0.00    -0.086 C  
BRANCH  15  16
HETATM   16  N   UNL     1      -7.262  10.481  68.800  1.00  0.00    -0.078 N  
HETATM   17  C   UNL     1      -6.711   9.287  69.204  1.00  0.00    -0.050 C  
HETATM   18  O   UNL     1      -5.989   8.585  68.505  1.00  0.00    -0.043 OA 
HETATM   19  H   UNL     1      -7.860  10.985  69.455  1.00  0.00     0.000 HD 
BRANCH  17  20
HETATM   20  C   UNL     1      -7.074   8.816  70.561  1.00  0.00    -0.050 A  
HETATM   21  C   UNL     1      -6.202   9.138  71.617  1.00  0.00    -0.056 A  
HETATM   22  H   UNL     1      -9.594   6.379  73.288  1.00  0.00     0.000 HD 
HETATM   23  C   UNL     1      -8.218   8.017  70.781  1.00  0.00    -0.113 A  
HETATM   24  C   UNL     1      -8.421   7.537  72.082  1.00  0.00    -0.111 A  
HETATM   25  C   UNL     1      -6.461   8.687  72.904  1.00  0.00    -0.053 A  
HETATM   26  C   UNL     1      -9.210   7.676  69.698  1.00  0.00    -0.146 C  
HETATM   27  O   UNL     1      -9.457   6.705  72.407  1.00  0.00    -0.149 OA 
HETATM   28  C   UNL     1      -7.571   7.879  73.133  1.00  0.00    -0.165 A  
ENDBRANCH  17  20
ENDBRANCH  15  16
BRANCH  15  29
HETATM   29  C   UNL     1      -7.855  10.362  66.354  1.00  0.00    -0.128 C  
BRANCH  29  30
HETATM   30  S   UNL     1      -9.630  10.100  66.717  1.00  0.00    -0.184 SA 
BRANCH  30  31
HETATM   31  C   UNL     1     -10.476  10.985  65.428  1.00  0.00    -0.241 A  
HETATM   32  C   UNL     1     -12.307  12.485  64.871  1.00  0.00    -0.539 A  
HETATM   33  C   UNL     1     -11.648  11.665  65.787  1.00  0.00    -0.088 A  
HETATM   34  C   UNL     1     -10.638  11.955  63.214  1.00  0.00    -0.420 A  
HETATM   35  C   UNL     1     -11.797  12.635  63.584  1.00  0.00    -0.606 A  
HETATM   36  C   UNL     1      -9.979  11.132  64.132  1.00  0.00    -0.369 A  
ENDBRANCH  30  31
ENDBRANCH  29  30
ENDBRANCH  15  29
ENDBRANCH  12  15
ENDBRANCH  11  12
ENDBRANCH   8  11
BRANCH   9  37
HETATM   37  C   UNL     1     -10.062  16.133  67.128  1.00  0.00    -0.269 C  
HETATM   38  C   UNL     1      -9.444  18.792  68.689  1.00  0.00    -0.412 C  
HETATM   39  O   UNL     1     -10.563  16.943  66.351  1.00  0.00    -0.277 OA 
HETATM   40  C   UNL     1      -7.246  17.690  69.080  1.00  0.00    -0.214 C  
HETATM   41  C   UNL     1      -8.429  17.801  68.103  1.00  0.00    -0.262 C  
HETATM   42  N   UNL     1      -9.012  16.458  67.971  1.00  0.00    -0.184 N  
HETATM   43  C   UNL     1      -7.905  18.327  66.759  1.00  0.00    -0.255 C  
HETATM   44  H   UNL     1      -8.615  15.712  68.541  1.00  0.00     0.000 HD 
ENDBRANCH   9  37
TORSDOF 9
ENDMDL
MODEL      227
REMARK 921   NORMALIZED FREE ENERGY PREDICTED BY IDOCK:   -3.26 KCAL/MOL
REMARK 922        TOTAL FREE ENERGY PREDICTED BY IDOCK:   -7.81 KCAL/MOL
REMARK 923 INTER-LIGAND FREE ENERGY PREDICTED BY IDOCK:   -7.79 KCAL/MOL
REMARK 924 INTRA-LIGAND FREE ENERGY PREDICTED BY IDOCK:   -0.01 KCAL/MOL
REMARK 927      BINDING AFFINITY PREDICTED BY RF-SCORE:    0.00 PKD
ROOT
HETATM    1  C   UNL     1      -6.631  15.233  69.458  1.00  0.00    -0.164 C  
HETATM    2  C   UNL     1      -5.826  16.484  69.824  1.00  0.00    -0.196 C  
HETATM    3  C   UNL     1      -6.006  17.594  68.795  1.00  0.00    -0.178 C  
HETATM    4  C   UNL     1      -5.594  17.122  67.407  1.00  0.00    -0.163 C  
HETATM    5  C   UNL     1      -6.307  15.841  66.976  1.00  0.00     0.160 C  
HETATM    6  C   UNL     1      -6.317  14.737  68.045  1.00  0.00    -0.164 C  
HETATM    7  C   UNL     1      -7.269  13.577  67.705  1.00  0.00    -0.154 C  
HETATM    8  N   UNL     1      -8.685  13.955  67.642  1.00  0.00    -0.175 NA 
HETATM    9  C   UNL     1      -9.137  14.852  68.721  1.00  0.00    -0.189 C  
HETATM   10  C   UNL     1      -8.127  15.430  69.732  1.00  0.00    -0.031 C  
ENDROOT
BRANCH   8  11
HETATM   11  C   UNL     1      -9.546  12.755  67.493  1.00  0.00    -0.192 C  
BRANCH  11  12
HETATM   12  C   UNL     1      -9.354  11.817  66.255  1.00  0.00    -0.225 C  
HETATM   13  H   UNL     1      -7.844  11.087  65.181  1.00  0.00     0.000 HD 
HETATM   14  O   UNL     1      -7.960  11.657  65.932  1.00  0.00     0.150 OA 
BRANCH  12  15
HETATM   15  C   UNL     1     -10.055  10.438  66.387  1.00  0.00    -0.228 C  
BRANCH  15  16
HETATM   16  N   UNL     1      -9.120   9.305  66.407  1.00  0.00    -0.151 N  
HETATM   17  C   UNL     1      -9.522   7.996  66.537  1.00  0.00    -0.214 C  
HETATM   18  O   UNL     1     -10.687   7.637  66.660  1.00  0.00    -0.239 OA 
HETATM   19  H   UNL     1      -8.123   9.500  66.321  1.00  0.00     0.000 HD 
BRANCH  17  20
HETATM   20  C   UNL     1      -8.448   6.976  66.578  1.00  0.00    -0.125 A  
HETATM   21  C   UNL     1      -7.977   6.476  65.350  1.00  0.00    -0.120 A  
HETATM   22  H   UNL     1      -5.874   4.125  68.809  1.00  0.00     0.000 HD 
HETATM   23  C   UNL     1      -7.958   6.473  67.803  1.00  0.00    -0.115 A  
HETATM   24  C   UNL     1      -7.015   5.438  67.737  1.00  0.00    -0.066 A  
HETATM   25  C   UNL     1      -7.006   5.484  65.322  1.00  0.00    -0.060 A  
HETATM   26  C   UNL     1      -8.393   7.000  69.148  1.00  0.00    -0.125 C  
HETATM   27  O   UNL     1      -6.513   4.827  68.854  1.00  0.00    -0.034 OA 
HETATM   28  C   UNL     1      -6.530   4.962  66.520  1.00  0.00    -0.041 A  
ENDBRANCH  17  20
ENDBRANCH  15  16
BRANCH  15  29
HETATM   29  C   UNL     1     -11.093  10.381  67.548  1.00  0.00    -0.267 C  
BRANCH  29  30
HETATM   30  S   UNL     1     -10.393  10.319  69.238  1.00  0.00    -0.245 SA 
BRANCH  30  31
HETATM   31  C   UNL     1     -11.703  10.921  70.277  1.00  0.00    -0.347 A  
HETATM   32  C   UNL     1     -13.308  10.383  72.023  1.00  0.00    -0.440 A  
HETATM   33  C   UNL     1     -12.355   9.981  71.087  1.00  0.00    -0.477 A  
HETATM   34  C   UNL     1     -12.984  12.675  71.350  1.00  0.00    -0.353 A  
HETATM   35  C   UNL     1     -13.618  11.734  72.159  1.00  0.00    -0.158 A  
HETATM   36  C   UNL     1     -12.029  12.271  70.412  1.00  0.00    -0.349 A  
ENDBRANCH  30  31
ENDBRANCH  29  30
ENDBRANCH  15  29
ENDBRANCH  12  15
ENDBRANCH  11  12
ENDBRANCH   8  11
BRANCH   9  37
HETATM   37  C   UNL     1      -9.941  16.036  68.097  1.00  0.00    -0.228 C  
HETATM   38  C   UNL     1     -10.501  19.130  68.140  1.00  0.00    -0.428 C  
HETATM   39  O   UNL     1     -11.156  16.022  67.913  1.00  0.00    -0.338 OA 
HETATM   40  C   UNL     1      -8.408  19.216  66.795  1.00  0.00    -0.305 C  
HETATM   41  C   UNL     1      -9.636  18.356  67.136  1.00  0.00    -0.295 C  
HETATM   42  N   UNL     1      -9.140  17.100  67.717  1.00  0.00    -0.231 N  
HETATM   43  C   UNL     1     -10.432  18.109  65.847  1.00  0.00    -0.292 C  
HETATM   44  H   UNL     1      -8.133  17.006  67.851  1.00  0.00     0.000 HD 
ENDBRANCH   9  37
TORSDOF 9
ENDMDL
MODEL      228
REMARK 921   NORMALIZED FREE ENERGY PREDICTED BY IDOCK:   -3.24 KCAL/MOL
REMARK 922        TOTAL FREE ENERGY PREDICTED BY IDOCK:   -7.78 KCAL/MOL
REMARK 923 INTER-LIGAND FREE ENERGY PREDICTED BY IDOCK:   -6.96 KCAL/MOL
REMARK 924 INTRA-LIGAND FREE ENERGY PREDICTED BY IDOCK:   -0.82 KCAL/MOL
REMARK 927      BINDING AFFINITY PREDICTED BY RF-SCORE:    0.00 PKD
ROOT
HETATM    1  C   UNL     1     -11.811  14.182  67.091  1.00  0.00    -0.454 C  
HETATM    2  C   UNL     1     -11.993  15.529  67.798  1.00  0.00     0.184 C  
HETATM    3  C   UNL     1     -11.144  15.626  69.060  1.00  0.00    -0.279 C  
HETATM    4  C   UNL     1     -11.480  14.502  70.030  1.00  0.00    -0.311 C  
HETATM    5  C   UNL     1     -11.379  13.115  69.396  1.00  0.00    -0.276 C  
HETATM    6  C   UNL     1     -12.068  12.999  68.027  1.00  0.00    -0.220 C  
HETATM    7  C   UNL     1     -11.720  11.697  67.285  1.00  0.00    -0.175 C  
HETATM    8  N   UNL     1     -10.304  11.565  66.927  1.00  0.00    -0.216 NA 
HETATM    9  C   UNL     1      -9.683  12.789  66.387  1.00  0.00    -0.261 C  
HETATM   10  C   UNL     1     -10.468  14.114  66.354  1.00  0.00    -0.283 C  
ENDROOT
BRANCH   8  11
HETATM   11  C   UNL     1     -10.087  10.379  66.059  1.00  0.00    -0.243 C  
BRANCH  11  12
HETATM   12  C   UNL     1      -9.358   9.122  66.640  1.00  0.00    -0.177 C  
HETATM   13  H   UNL     1      -7.488   8.464  66.835  1.00  0.00     0.000 HD 
HETATM   14  O   UNL     1      -7.930   9.227  66.483  1.00  0.00    -0.103 OA 
BRANCH  12  15
HETATM   15  C   UNL     1      -9.731   8.793  68.110  1.00  0.00    -0.158 C  
BRANCH  15  16
HETATM   16  N   UNL     1      -9.189   7.511  68.579  1.00  0.00    -0.143 N  
HETATM   17  C   UNL     1      -9.842   6.310  68.419  1.00  0.00    -0.130 C  
HETATM   18  O   UNL     1     -10.938   6.183  67.885  1.00  0.00    -0.312 OA 
HETATM   19  H   UNL     1      -8.283   7.511  69.048  1.00  0.00     0.000 HD 
BRANCH  17  20
HETATM   20  C   UNL     1      -9.174   5.114  68.985  1.00  0.00    -0.156 A  
HETATM   21  C   UNL     1      -9.963   3.969  69.200  1.00  0.00     0.070 A  
HETATM   22  H   UNL     1      -5.663   3.141  70.858  1.00  0.00     0.000 HD 
HETATM   23  C   UNL     1      -7.812   5.140  69.357  1.00  0.00    -0.080 A  
HETATM   24  C   UNL     1      -7.298   3.993  69.977  1.00  0.00    -0.045 A  
HETATM   25  C   UNL     1      -9.407   2.833  69.772  1.00  0.00    -0.199 A  
HETATM   26  C   UNL     1      -6.908   6.322  69.111  1.00  0.00    -0.062 C  
HETATM   27  O   UNL     1      -6.012   3.918  70.438  1.00  0.00    -0.017 OA 
HETATM   28  C   UNL     1      -8.073   2.849  70.165  1.00  0.00    -0.056 A  
ENDBRANCH  17  20
ENDBRANCH  15  16
BRANCH  15  29
HETATM   29  C   UNL     1      -9.444   9.964  69.097  1.00  0.00    -0.196 C  
BRANCH  29  30
HETATM   30  S   UNL     1      -8.090   9.680  70.296  1.00  0.00    -0.151 SA 
BRANCH  30  31
HETATM   31  C   UNL     1      -8.841   8.713  71.584  1.00  0.00    -0.223 A  
HETATM   32  C   UNL     1      -8.473   7.333  73.553  1.00  0.00    -0.170 A  
HETATM   33  C   UNL     1      -7.978   8.016  72.441  1.00  0.00    -0.168 A  
HETATM   34  C   UNL     1     -10.708   8.025  72.968  1.00  0.00    -0.325 A  
HETATM   35  C   UNL     1      -9.840   7.344  73.820  1.00  0.00    -0.331 A  
HETATM   36  C   UNL     1     -10.211   8.708  71.853  1.00  0.00    -0.404 A  
ENDBRANCH  30  31
ENDBRANCH  29  30
ENDBRANCH  15  29
ENDBRANCH  12  15
ENDBRANCH  11  12
ENDBRANCH   8  11
BRANCH   9  37
HETATM   37  C   UNL     1      -8.327  13.037  67.120  1.00  0.00    -0.150 C  
HETATM   38  C   UNL     1      -5.928  15.017  67.584  1.00  0.00    -0.089 C  
HETATM   39  O   UNL     1      -7.402  12.228  67.150  1.00  0.00    -0.148 OA 
HETATM   40  C   UNL     1      -7.524  16.093  69.163  1.00  0.00    -0.221 C  
HETATM   41  C   UNL     1      -7.114  14.756  68.523  1.00  0.00    -0.110 C  
HETATM   42  N   UNL     1      -8.279  14.252  67.783  1.00  0.00    -0.160 N  
HETATM   43  C   UNL     1      -6.690  13.791  69.640  1.00  0.00    -0.015 C  
HETATM   44  H   UNL     1      -9.112  14.839  67.756  1.00  0.00     0.000 HD 
ENDBRANCH   9  37
TORSDOF 9
ENDMDL
MODEL      229
REMARK 921   NORMALIZED FREE ENERGY PREDICTED BY IDOCK:   -3.22 KCAL/MOL
REMARK 922        TOTAL FREE ENERGY PREDICTED BY IDOCK:   -7.75 KCAL/MOL
REMARK 923 INTER-LIGAND FREE ENERGY PREDICTED BY IDOCK:   -6.96 KCAL/MOL
REMARK 924 INTRA-LIGAND FREE ENERGY PREDICTED BY IDOCK:   -0.79 KCAL/MOL
REMARK 927      BINDING AFFINITY PREDICTED BY RF-SCORE:    0.00 PKD
ROOT
HETATM    1  C   UNL     1     -11.411  14.302  67.837  1.00  0.00    -0.320 C  
HETATM    2  C   UNL     1     -12.441  15.321  68.335  1.00  0.00     0.470 C  
HETATM    3  C   UNL     1     -11.794  16.418  69.172  1.00  0.00     0.077 C  
HETATM    4  C   UNL     1     -11.058  15.826  70.367  1.00  0.00    -0.380 C  
HETATM    5  C   UNL     1     -10.042  14.755  69.972  1.00  0.00     0.213 C  
HETATM    6  C   UNL     1     -10.583  13.713  68.981  1.00  0.00    -0.147 C  
HETATM    7  C   UNL     1      -9.481  12.819  68.385  1.00  0.00    -0.162 C  
HETATM    8  N   UNL     1      -8.497  13.537  67.568  1.00  0.00    -0.180 NA 
HETATM    9  C   UNL     1      -9.065  14.542  66.651  1.00  0.00    -0.251 C  
HETATM   10  C   UNL     1     -10.570  14.872  66.688  1.00  0.00    -0.305 C  
ENDROOT
BRANCH   8  11
HETATM   11  C   UNL     1      -7.583  12.586  66.884  1.00  0.00     0.082 C  
BRANCH  11  12
HETATM   12  C   UNL     1      -8.073  11.131  66.578  1.00  0.00    -0.163 C  
HETATM   13  H   UNL     1      -8.000   9.842  65.061  1.00  0.00     0.000 HD 
HETATM   14  O   UNL     1      -7.703  10.725  65.247  1.00  0.00    -0.074 OA 
BRANCH  12  15
HETATM   15  C   UNL     1      -7.625  10.076  67.625  1.00  0.00    -0.091 C  
BRANCH  15  16
HETATM   16  N   UNL     1      -8.709   9.630  68.508  1.00  0.00    -0.119 N  
HETATM   17  C   UNL     1      -8.493   8.982  69.703  1.00  0.00    -0.128 C  
HETATM   18  O   UNL     1      -7.387   8.700  70.148  1.00  0.00    -0.049 OA 
HETATM   19  H   UNL     1      -9.672   9.809  68.221  1.00  0.00     0.000 HD 
BRANCH  17  20
HETATM   20  C   UNL     1      -9.699   8.564  70.456  1.00  0.00    -0.202 A  
HETATM   21  C   UNL     1     -10.531   9.577  70.967  1.00  0.00    -0.377 A  
HETATM   22  H   UNL     1     -12.162   5.441  72.433  1.00  0.00     0.000 HD 
HETATM   23  C   UNL     1      -9.972   7.202  70.710  1.00  0.00    -0.194 A  
HETATM   24  C   UNL     1     -11.081   6.913  71.518  1.00  0.00    -0.244 A  
HETATM   25  C   UNL     1     -11.650   9.252  71.722  1.00  0.00    -0.458 A  
HETATM   26  C   UNL     1      -9.141   6.073  70.153  1.00  0.00    -0.154 C  
HETATM   27  O   UNL     1     -11.411   5.637  71.886  1.00  0.00    -0.234 OA 
HETATM   28  C   UNL     1     -11.919   7.916  72.001  1.00  0.00    -0.364 A  
ENDBRANCH  17  20
ENDBRANCH  15  16
BRANCH  15  29
HETATM   29  C   UNL     1      -6.829   8.889  67.003  1.00  0.00    -0.073 C  
BRANCH  29  30
HETATM   30  S   UNL     1      -7.562   8.142  65.500  1.00  0.00    -0.092 SA 
BRANCH  30  31
HETATM   31  C   UNL     1      -8.676   6.906  66.125  1.00  0.00    -0.145 A  
HETATM   32  C   UNL     1     -10.889   6.446  67.021  1.00  0.00    -0.464 A  
HETATM   33  C   UNL     1      -9.906   7.353  66.626  1.00  0.00    -0.263 A  
HETATM   34  C   UNL     1      -9.428   4.622  66.428  1.00  0.00    -0.169 A  
HETATM   35  C   UNL     1     -10.651   5.078  66.915  1.00  0.00    -0.183 A  
HETATM   36  C   UNL     1      -8.442   5.533  66.034  1.00  0.00    -0.126 A  
ENDBRANCH  30  31
ENDBRANCH  29  30
ENDBRANCH  15  29
ENDBRANCH  12  15
ENDBRANCH  11  12
ENDBRANCH   8  11
BRANCH   9  37
HETATM   37  C   UNL     1      -8.264  15.874  66.796  1.00  0.00    -0.272 C  
HETATM   38  C   UNL     1      -7.582  18.328  68.641  1.00  0.00    -0.311 C  
HETATM   39  O   UNL     1      -8.246  16.764  65.948  1.00  0.00    -0.446 OA 
HETATM   40  C   UNL     1      -6.005  16.710  69.688  1.00  0.00    -0.214 C  
HETATM   41  C   UNL     1      -6.709  17.094  68.375  1.00  0.00    -0.170 C  
HETATM   42  N   UNL     1      -7.526  15.942  67.966  1.00  0.00    -0.122 N  
HETATM   43  C   UNL     1      -5.638  17.430  67.328  1.00  0.00    -0.155 C  
HETATM   44  H   UNL     1      -7.551  15.135  68.589  1.00  0.00     0.000 HD 
ENDBRANCH   9  37
TORSDOF 9
ENDMDL
MODEL      230
REMARK 921   NORMALIZED FREE ENERGY PREDICTED BY IDOCK:   -3.21 KCAL/MOL
REMARK 922        TOTAL FREE ENERGY PREDICTED BY IDOCK:   -7.74 KCAL/MOL
REMARK 923 INTER-LIGAND FREE ENERGY PREDICTED BY IDOCK:   -5.31 KCAL/MOL
REMARK 924 INTRA-LIGAND FREE ENERGY PREDICTED BY IDOCK:   -2.43 KCAL/MOL
REMARK 927      BINDING AFFINITY PREDICTED BY RF-SCORE:    0.00 PKD
ROOT
HETATM    1  C   UNL     1      -8.002   9.777  69.959  1.00  0.00    -0.196 C  
HETATM    2  C   UNL     1      -7.146  10.831  69.248  1.00  0.00    -0.116 C  
HETATM    3  C   UNL     1      -5.660  10.500  69.325  1.00  0.00    -0.037 C  
HETATM    4  C   UNL     1      -5.204  10.377  70.772  1.00  0.00    -0.069 C  
HETATM    5  C   UNL     1      -6.038   9.384  71.580  1.00  0.00    -0.037 C  
HETATM    6  C   UNL     1      -7.556   9.551  71.405  1.00  0.00     0.400 C  
HETATM    7  C   UNL     1      -8.363   8.381  71.994  1.00  0.00    -0.171 C  
HETATM    8  N   UNL     1      -8.121   7.090  71.342  1.00  0.00    -0.107 NA 
HETATM    9  C   UNL     1      -8.057   7.140  69.870  1.00  0.00    -0.125 C  
HETATM   10  C   UNL     1      -8.108   8.491  69.130  1.00  0.00    -0.117 C  
ENDROOT
BRANCH   8  11
HETATM   11  C   UNL     1      -9.066   6.060  71.842  1.00  0.00    -0.141 C  
BRANCH  11  12
HETATM   12  C   UNL     1      -9.668   5.016  70.843  1.00  0.00    -0.190 C  
HETATM   13  H   UNL     1     -10.361   3.149  70.905  1.00  0.00     0.000 HD 
HETATM   14  O   UNL     1      -9.996   3.782  71.511  1.00  0.00    -0.179 OA 
BRANCH  12  15
HETATM   15  C   UNL     1     -10.877   5.542  70.025  1.00  0.00    -0.231 C  
BRANCH  15  16
HETATM   16  N   UNL     1     -11.065   6.995  70.125  1.00  0.00    -0.275 N  
HETATM   17  C   UNL     1     -12.185   7.576  70.675  1.00  0.00    -0.038 C  
HETATM   18  O   UNL     1     -13.140   6.952  71.123  1.00  0.00    -0.311 OA 
HETATM   19  H   UNL     1     -10.328   7.604  69.769  1.00  0.00     0.000 HD 
BRANCH  17  20
HETATM   20  C   UNL     1     -12.234   9.057  70.664  1.00  0.00    -0.017 A  
HETATM   21  C   UNL     1     -11.382   9.730  69.769  1.00  0.00    -0.201 A  
HETATM   22  H   UNL     1     -13.585  12.916  72.400  1.00  0.00     0.000 HD 
HETATM   23  C   UNL     1     -13.055   9.771  71.564  1.00  0.00    -0.506 A  
HETATM   24  C   UNL     1     -12.955  11.170  71.547  1.00  0.00    -0.437 A  
HETATM   25  C   UNL     1     -11.347  11.118  69.745  1.00  0.00    -0.354 A  
HETATM   26  C   UNL     1     -14.017   9.105  72.515  1.00  0.00    -0.453 C  
HETATM   27  O   UNL     1     -13.653  11.968  72.411  1.00  0.00    -0.338 OA 
HETATM   28  C   UNL     1     -12.132  11.836  70.641  1.00  0.00    -0.407 A  
ENDBRANCH  17  20
ENDBRANCH  15  16
BRANCH  15  29
HETATM   29  C   UNL     1     -10.893   5.034  68.552  1.00  0.00     0.580 C  
BRANCH  29  30
HETATM   30  S   UNL     1     -11.002   6.332  67.265  1.00  0.00    -0.314 SA 
BRANCH  30  31
HETATM   31  C   UNL     1      -9.622   6.004  66.194  1.00  0.00    -0.055 A  
HETATM   32  C   UNL     1      -8.644   4.492  64.559  1.00  0.00    -0.140 A  
HETATM   33  C   UNL     1      -9.622   4.780  65.512  1.00  0.00    -0.172 A  
HETATM   34  C   UNL     1      -7.639   6.647  64.958  1.00  0.00    -0.099 A  
HETATM   35  C   UNL     1      -7.655   5.431  64.278  1.00  0.00    -0.076 A  
HETATM   36  C   UNL     1      -8.619   6.934  65.914  1.00  0.00    -0.152 A  
ENDBRANCH  30  31
ENDBRANCH  29  30
ENDBRANCH  15  29
ENDBRANCH  12  15
ENDBRANCH  11  12
ENDBRANCH   8  11
BRANCH   9  37
HETATM   37  C   UNL     1      -6.791   6.362  69.389  1.00  0.00    -0.065 C  
HETATM   38  C   UNL     1      -5.283   3.603  69.327  1.00  0.00    -0.011 C  
HETATM   39  O   UNL     1      -5.639   6.760  69.540  1.00  0.00    -0.014 OA 
HETATM   40  C   UNL     1      -6.869   3.127  67.467  1.00  0.00    -0.046 C  
HETATM   41  C   UNL     1      -6.099   4.242  68.195  1.00  0.00    -0.031 C  
HETATM   42  N   UNL     1      -7.095   5.186  68.722  1.00  0.00    -0.056 N  
HETATM   43  C   UNL     1      -5.154   4.917  67.191  1.00  0.00    -0.008 C  
HETATM   44  H   UNL     1      -8.079   4.958  68.589  1.00  0.00     0.000 HD 
ENDBRANCH   9  37
TORSDOF 9
ENDMDL
MODEL      231
REMARK 921   NORMALIZED FREE ENERGY PREDICTED BY IDOCK:   -3.10 KCAL/MOL
REMARK 922        TOTAL FREE ENERGY PREDICTED BY IDOCK:   -7.56 KCAL/MOL
REMARK 923 INTER-LIGAND FREE ENERGY PREDICTED BY IDOCK:   -5.68 KCAL/MOL
REMARK 924 INTRA-LIGAND FREE ENERGY PREDICTED BY IDOCK:   -1.89 KCAL/MOL
REMARK 927      BINDING AFFINITY PREDICTED BY RF-SCORE:    0.00 PKD
ROOT
HETATM    1  C   UNL     1     -12.085   7.273  70.993  1.00  0.00    -0.361 C  
HETATM    2  C   UNL     1     -13.602   7.078  71.084  1.00  0.00    -0.149 C  
HETATM    3  C   UNL     1     -14.327   8.390  71.360  1.00  0.00    -0.425 C  
HETATM    4  C   UNL     1     -13.826   9.028  72.648  1.00  0.00    -0.414 C  
HETATM    5  C   UNL     1     -12.310   9.213  72.673  1.00  0.00    -0.063 C  
HETATM    6  C   UNL     1     -11.518   7.972  72.230  1.00  0.00    -0.419 C  
HETATM    7  C   UNL     1     -10.026   8.262  71.994  1.00  0.00    -0.257 C  
HETATM    8  N   UNL     1      -9.758   9.202  70.901  1.00  0.00    -0.264 NA 
HETATM    9  C   UNL     1     -10.563   8.987  69.685  1.00  0.00    -0.224 C  
HETATM   10  C   UNL     1     -11.684   7.930  69.667  1.00  0.00     0.596 C  
ENDROOT
BRANCH   8  11
HETATM   11  C   UNL     1      -8.302   9.285  70.619  1.00  0.00    -0.207 C  
BRANCH  11  12
HETATM   12  C   UNL     1      -7.785   9.059  69.159  1.00  0.00    -0.092 C  
HETATM   13  H   UNL     1      -7.013  10.154  67.685  1.00  0.00     0.000 HD 
HETATM   14  O   UNL     1      -7.326  10.291  68.571  1.00  0.00    -0.078 OA 
BRANCH  12  15
HETATM   15  C   UNL     1      -6.709   7.948  69.030  1.00  0.00    -0.049 C  
BRANCH  15  16
HETATM   16  N   UNL     1      -7.064   6.704  69.724  1.00  0.00    -0.066 N  
HETATM   17  C   UNL     1      -6.552   6.349  70.950  1.00  0.00    -0.053 C  
HETATM   18  O   UNL     1      -5.744   7.018  71.583  1.00  0.00    -0.036 OA 
HETATM   19  H   UNL     1      -7.725   6.071  69.273  1.00  0.00     0.000 HD 
BRANCH  17  20
HETATM   20  C   UNL     1      -6.985   5.041  71.494  1.00  0.00    -0.053 A  
HETATM   21  C   UNL     1      -6.983   3.939  70.619  1.00  0.00    -0.033 A  
HETATM   22  H   UNL     1      -8.787   2.574  74.718  1.00  0.00     0.000 HD 
HETATM   23  C   UNL     1      -7.446   4.914  72.823  1.00  0.00    -0.091 A  
HETATM   24  C   UNL     1      -7.930   3.657  73.214  1.00  0.00    -0.079 A  
HETATM   25  C   UNL     1      -7.423   2.696  71.056  1.00  0.00    -0.033 A  
HETATM   26  C   UNL     1      -7.431   6.048  73.817  1.00  0.00    -0.092 C  
HETATM   27  O   UNL     1      -8.459   3.425  74.454  1.00  0.00    -0.082 OA 
HETATM   28  C   UNL     1      -7.902   2.560  72.355  1.00  0.00    -0.054 A  
ENDBRANCH  17  20
ENDBRANCH  15  16
BRANCH  15  29
HETATM   29  C   UNL     1      -6.245   7.707  67.562  1.00  0.00    -0.050 C  
BRANCH  29  30
HETATM   30  S   UNL     1      -7.480   6.931  66.455  1.00  0.00    -0.075 SA 
BRANCH  30  31
HETATM   31  C   UNL     1      -7.646   8.081  65.110  1.00  0.00    -0.098 A  
HETATM   32  C   UNL     1      -8.225   8.383  62.768  1.00  0.00    -0.166 A  
HETATM   33  C   UNL     1      -7.955   7.547  63.852  1.00  0.00    -0.089 A  
HETATM   34  C   UNL     1      -7.874  10.306  64.179  1.00  0.00    -0.111 A  
HETATM   35  C   UNL     1      -8.191   9.765  62.934  1.00  0.00    -0.153 A  
HETATM   36  C   UNL     1      -7.602   9.467  65.264  1.00  0.00    -0.111 A  
ENDBRANCH  30  31
ENDBRANCH  29  30
ENDBRANCH  15  29
ENDBRANCH  12  15
ENDBRANCH  11  12
ENDBRANCH   8  11
BRANCH   9  37
HETATM   37  C   UNL     1     -11.165  10.352  69.224  1.00  0.00    -0.248 C  
HETATM   38  C   UNL     1     -11.071  13.482  69.511  1.00  0.00    -0.111 C  
HETATM   39  O   UNL     1     -12.370  10.594  69.179  1.00  0.00    -0.341 OA 
HETATM   40  C   UNL     1      -9.148  13.260  67.946  1.00  0.00    -0.203 C  
HETATM   41  C   UNL     1     -10.487  12.635  68.373  1.00  0.00    -0.238 C  
HETATM   42  N   UNL     1     -10.204  11.264  68.820  1.00  0.00    -0.203 N  
HETATM   43  C   UNL     1     -11.440  12.654  67.169  1.00  0.00    -0.406 C  
HETATM   44  H   UNL     1      -9.230  10.962  68.834  1.00  0.00     0.000 HD 
ENDBRANCH   9  37
TORSDOF 9
ENDMDL
MODEL      232
REMARK 921   NORMALIZED FREE ENERGY PREDICTED BY IDOCK:   -3.09 KCAL/MOL
REMARK 922        TOTAL FREE ENERGY PREDICTED BY IDOCK:   -7.55 KCAL/MOL
REMARK 923 INTER-LIGAND FREE ENERGY PREDICTED BY IDOCK:   -6.83 KCAL/MOL
REMARK 924 INTRA-LIGAND FREE ENERGY PREDICTED BY IDOCK:   -0.72 KCAL/MOL
REMARK 927      BINDING AFFINITY PREDICTED BY RF-SCORE:    0.00 PKD
ROOT
HETATM    1  C   UNL     1     -10.213  16.314  66.352  1.00  0.00    -0.322 C  
HETATM    2  C   UNL     1      -9.699  17.723  66.036  1.00  0.00    -0.145 C  
HETATM    3  C   UNL     1      -8.657  18.186  67.046  1.00  0.00    -0.260 C  
HETATM    4  C   UNL     1      -9.222  18.165  68.460  1.00  0.00    -0.326 C  
HETATM    5  C   UNL     1      -9.810  16.809  68.848  1.00  0.00    -0.264 C  
HETATM    6  C   UNL     1     -10.737  16.199  67.785  1.00  0.00    -0.325 C  
HETATM    7  C   UNL     1     -11.090  14.728  68.066  1.00  0.00    -0.286 C  
HETATM    8  N   UNL     1      -9.944  13.814  68.033  1.00  0.00    -0.239 NA 
HETATM    9  C   UNL     1      -9.000  14.040  66.922  1.00  0.00    -0.227 C  
HETATM   10  C   UNL     1      -9.178  15.245  65.979  1.00  0.00    -0.308 C  
ENDROOT
BRANCH   8  11
HETATM   11  C   UNL     1     -10.391  12.401  68.129  1.00  0.00    -0.226 C  
BRANCH  11  12
HETATM   12  C   UNL     1     -10.408  11.509  66.843  1.00  0.00    -0.223 C  
HETATM   13  H   UNL     1     -10.326  11.768  64.870  1.00  0.00     0.000 HD 
HETATM   14  O   UNL     1     -10.315  12.310  65.650  1.00  0.00    -0.245 OA 
BRANCH  12  15
HETATM   15  C   UNL     1      -9.343  10.380  66.838  1.00  0.00    -0.162 C  
BRANCH  15  16
HETATM   16  N   UNL     1      -9.343   9.568  68.061  1.00  0.00    -0.133 N  
HETATM   17  C   UNL     1     -10.163   8.479  68.246  1.00  0.00    -0.205 C  
HETATM   18  O   UNL     1     -10.981   8.081  67.425  1.00  0.00    -0.151 OA 
HETATM   19  H   UNL     1      -8.703   9.825  68.813  1.00  0.00     0.000 HD 
BRANCH  17  20
HETATM   20  C   UNL     1     -10.066   7.792  69.556  1.00  0.00    -0.194 A  
HETATM   21  C   UNL     1      -9.346   6.585  69.605  1.00  0.00    -0.144 A  
HETATM   22  H   UNL     1     -11.261   7.343  73.810  1.00  0.00     0.000 HD 
HETATM   23  C   UNL     1     -10.726   8.294  70.699  1.00  0.00    -0.240 A  
HETATM   24  C   UNL     1     -10.658   7.519  71.866  1.00  0.00    -0.211 A  
HETATM   25  C   UNL     1      -9.258   5.869  70.792  1.00  0.00    -0.167 A  
HETATM   26  C   UNL     1     -11.475   9.602  70.716  1.00  0.00    -0.399 C  
HETATM   27  O   UNL     1     -11.306   7.867  73.019  1.00  0.00    -0.408 OA 
HETATM   28  C   UNL     1      -9.922   6.337  71.921  1.00  0.00    -0.193 A  
ENDBRANCH  17  20
ENDBRANCH  15  16
BRANCH  15  29
HETATM   29  C   UNL     1      -9.367   9.515  65.542  1.00  0.00    -0.255 C  
BRANCH  29  30
HETATM   30  S   UNL     1      -7.730   9.050  64.866  1.00  0.00    -0.116 SA 
BRANCH  30  31
HETATM   31  C   UNL     1      -7.516   7.357  65.361  1.00  0.00    -0.090 A  
HETATM   32  C   UNL     1      -7.347   5.043  64.634  1.00  0.00    -0.063 A  
HETATM   33  C   UNL     1      -7.622   6.382  64.360  1.00  0.00    -0.098 A  
HETATM   34  C   UNL     1      -6.861   5.623  66.923  1.00  0.00    -0.063 A  
HETATM   35  C   UNL     1      -6.959   4.664  65.917  1.00  0.00    -0.063 A  
HETATM   36  C   UNL     1      -7.138   6.966  66.647  1.00  0.00    -0.071 A  
ENDBRANCH  30  31
ENDBRANCH  29  30
ENDBRANCH  15  29
ENDBRANCH  12  15
ENDBRANCH  11  12
ENDBRANCH   8  11
BRANCH   9  37
HETATM   37  C   UNL     1      -7.545  14.066  67.488  1.00  0.00    -0.180 C  
HETATM   38  C   UNL     1      -5.394  15.700  69.098  1.00  0.00    -0.100 C  
HETATM   39  O   UNL     1      -6.546  13.782  66.831  1.00  0.00     0.182 OA 
HETATM   40  C   UNL     1      -6.651  14.829  71.063  1.00  0.00     0.438 C  
HETATM   41  C   UNL     1      -6.248  14.531  69.608  1.00  0.00    -0.133 C  
HETATM   42  N   UNL     1      -7.488  14.398  68.832  1.00  0.00    -0.129 N  
HETATM   43  C   UNL     1      -5.423  13.236  69.587  1.00  0.00    -0.094 C  
HETATM   44  H   UNL     1      -8.370  14.562  69.316  1.00  0.00     0.000 HD 
ENDBRANCH   9  37
TORSDOF 9
ENDMDL
MODEL      233
REMARK 921   NORMALIZED FREE ENERGY PREDICTED BY IDOCK:   -3.00 KCAL/MOL
REMARK 922        TOTAL FREE ENERGY PREDICTED BY IDOCK:   -7.41 KCAL/MOL
REMARK 923 INTER-LIGAND FREE ENERGY PREDICTED BY IDOCK:   -5.44 KCAL/MOL
REMARK 924 INTRA-LIGAND FREE ENERGY PREDICTED BY IDOCK:   -1.97 KCAL/MOL
REMARK 927      BINDING AFFINITY PREDICTED BY RF-SCORE:    0.00 PKD
ROOT
HETATM    1  C   UNL     1     -12.095  13.891  70.480  1.00  0.00    -0.426 C  
HETATM    2  C   UNL     1     -12.305  12.404  70.787  1.00  0.00    -0.377 C  
HETATM    3  C   UNL     1     -11.501  11.512  69.849  1.00  0.00    -0.340 C  
HETATM    4  C   UNL     1     -11.869  11.780  68.396  1.00  0.00    -0.347 C  
HETATM    5  C   UNL     1     -11.743  13.253  68.009  1.00  0.00    -0.394 C  
HETATM    6  C   UNL     1     -12.383  14.223  69.015  1.00  0.00    -0.147 C  
HETATM    7  C   UNL     1     -12.006  15.692  68.758  1.00  0.00    -0.229 C  
HETATM    8  N   UNL     1     -10.578  15.987  68.914  1.00  0.00    -0.240 NA 
HETATM    9  C   UNL     1      -9.940  15.364  70.089  1.00  0.00    -0.063 C  
HETATM   10  C   UNL     1     -10.726  14.376  70.973  1.00  0.00     1.099 C  
ENDROOT
BRANCH   8  11
HETATM   11  C   UNL     1     -10.327  17.448  68.832  1.00  0.00    -0.340 C  
BRANCH  11  12
HETATM   12  C   UNL     1     -10.915  18.265  67.633  1.00  0.00    -0.103 C  
HETATM   13  H   UNL     1     -11.222  20.177  67.164  1.00  0.00     0.000 HD 
HETATM   14  O   UNL     1     -10.865  19.681  67.891  1.00  0.00    -0.359 OA 
BRANCH  12  15
HETATM   15  C   UNL     1     -10.276  17.929  66.259  1.00  0.00    -0.363 C  
BRANCH  15  16
HETATM   16  N   UNL     1     -10.811  16.706  65.647  1.00  0.00    -0.210 N  
HETATM   17  C   UNL     1     -10.091  15.540  65.535  1.00  0.00    -0.373 C  
HETATM   18  O   UNL     1      -8.935  15.399  65.917  1.00  0.00    -0.278 OA 
HETATM   19  H   UNL     1     -11.765  16.723  65.287  1.00  0.00     0.000 HD 
BRANCH  17  20
HETATM   20  C   UNL     1     -10.766  14.409  64.855  1.00  0.00    -0.444 A  
HETATM   21  C   UNL     1     -11.932  14.693  64.122  1.00  0.00    -0.316 A  
HETATM   22  H   UNL     1     -11.264  10.059  64.107  1.00  0.00     0.000 HD 
HETATM   23  C   UNL     1     -10.297  13.084  64.993  1.00  0.00    -0.336 A  
HETATM   24  C   UNL     1     -11.062  12.071  64.396  1.00  0.00    -0.342 A  
HETATM   25  C   UNL     1     -12.637  13.670  63.502  1.00  0.00     0.019 A  
HETATM   26  C   UNL     1      -9.032  12.725  65.730  1.00  0.00     0.448 C  
HETATM   27  O   UNL     1     -10.746  10.745  64.511  1.00  0.00    -0.297 OA 
HETATM   28  C   UNL     1     -12.202  12.356  63.646  1.00  0.00    -0.653 A  
ENDBRANCH  17  20
ENDBRANCH  15  16
BRANCH  15  29
HETATM   29  C   UNL     1     -10.258  19.136  65.275  1.00  0.00     0.831 C  
BRANCH  29  30
HETATM   30  S   UNL     1      -9.021  20.437  65.634  1.00  0.00     0.667 SA 
BRANCH  30  31
HETATM   31  C   UNL     1      -7.589  19.540  66.185  1.00  0.00    -0.308 A  
HETATM   32  C   UNL     1      -6.247  18.846  68.090  1.00  0.00    -0.231 A  
HETATM   33  C   UNL     1      -7.277  19.615  67.549  1.00  0.00    -0.266 A  
HETATM   34  C   UNL     1      -5.813  17.915  65.909  1.00  0.00    -0.237 A  
HETATM   35  C   UNL     1      -5.519  17.989  67.269  1.00  0.00    -0.141 A  
HETATM   36  C   UNL     1      -6.845  18.688  65.367  1.00  0.00    -0.179 A  
ENDBRANCH  30  31
ENDBRANCH  29  30
ENDBRANCH  15  29
ENDBRANCH  12  15
ENDBRANCH  11  12
ENDBRANCH   8  11
BRANCH   9  37
HETATM   37  C   UNL     1      -8.611  14.676  69.642  1.00  0.00     0.314 C  
HETATM   38  C   UNL     1      -5.532  15.032  69.112  1.00  0.00    -0.093 C  
HETATM   39  O   UNL     1      -8.500  13.982  68.634  1.00  0.00    -0.160 OA 
HETATM   40  C   UNL     1      -5.390  14.776  71.585  1.00  0.00    -0.090 C  
HETATM   41  C   UNL     1      -6.196  14.384  70.335  1.00  0.00    -0.173 C  
HETATM   42  N   UNL     1      -7.565  14.885  70.525  1.00  0.00     0.063 N  
HETATM   43  C   UNL     1      -6.166  12.856  70.194  1.00  0.00    -0.026 C  
HETATM   44  H   UNL     1      -7.758  15.425  71.368  1.00  0.00     0.000 HD 
ENDBRANCH   9  37
TORSDOF 9
ENDMDL
MODEL      234
REMARK 921   NORMALIZED FREE ENERGY PREDICTED BY IDOCK:   -3.00 KCAL/MOL
REMARK 922        TOTAL FREE ENERGY PREDICTED BY IDOCK:   -7.41 KCAL/MOL
REMARK 923 INTER-LIGAND FREE ENERGY PREDICTED BY IDOCK:   -6.89 KCAL/MOL
REMARK 924 INTRA-LIGAND FREE ENERGY PREDICTED BY IDOCK:   -0.52 KCAL/MOL
REMARK 927      BINDING AFFINITY PREDICTED BY RF-SCORE:    0.00 PKD
ROOT
HETATM    1  C   UNL     1      -9.364  16.419  66.210  1.00  0.00    -0.348 C  
HETATM    2  C   UNL     1      -8.817  17.843  66.071  1.00  0.00    -0.005 C  
HETATM    3  C   UNL     1      -8.010  18.262  67.295  1.00  0.00    -0.229 C  
HETATM    4  C   UNL     1      -8.854  18.171  68.559  1.00  0.00    -0.312 C  
HETATM    5  C   UNL     1      -9.490  16.795  68.755  1.00  0.00    -0.259 C  
HETATM    6  C   UNL     1     -10.170  16.233  67.497  1.00  0.00    -0.270 C  
HETATM    7  C   UNL     1     -10.554  14.749  67.631  1.00  0.00    -0.262 C  
HETATM    8  N   UNL     1      -9.412  13.842  67.793  1.00  0.00    -0.208 NA 
HETATM    9  C   UNL     1      -8.264  14.125  66.912  1.00  0.00     0.036 C  
HETATM   10  C   UNL     1      -8.260  15.373  66.009  1.00  0.00     0.808 C  
ENDROOT
BRANCH   8  11
HETATM   11  C   UNL     1      -9.851  12.425  67.730  1.00  0.00    -0.203 C  
BRANCH  11  12
HETATM   12  C   UNL     1     -11.378  12.087  67.776  1.00  0.00    -0.303 C  
HETATM   13  H   UNL     1     -12.706  11.119  66.650  1.00  0.00     0.000 HD 
HETATM   14  O   UNL     1     -11.780  11.324  66.622  1.00  0.00    -0.368 OA 
BRANCH  12  15
HETATM   15  C   UNL     1     -11.837  11.394  69.087  1.00  0.00    -0.345 C  
BRANCH  15  16
HETATM   16  N   UNL     1     -10.941  10.316  69.524  1.00  0.00    -0.241 N  
HETATM   17  C   UNL     1     -11.198   9.514  70.612  1.00  0.00    -0.302 C  
HETATM   18  O   UNL     1     -12.184   9.618  71.332  1.00  0.00    -0.332 OA 
HETATM   19  H   UNL     1     -10.084  10.155  68.995  1.00  0.00     0.000 HD 
BRANCH  17  20
HETATM   20  C   UNL     1     -10.171   8.498  70.942  1.00  0.00    -0.246 A  
HETATM   21  C   UNL     1      -9.597   8.545  72.225  1.00  0.00    -0.377 A  
HETATM   22  H   UNL     1      -7.426   5.214  69.753  1.00  0.00     0.000 HD 
HETATM   23  C   UNL     1      -9.734   7.557  69.983  1.00  0.00    -0.172 A  
HETATM   24  C   UNL     1      -8.687   6.703  70.358  1.00  0.00    -0.151 A  
HETATM   25  C   UNL     1      -8.596   7.650  72.579  1.00  0.00    -0.164 A  
HETATM   26  C   UNL     1     -10.341   7.432  68.609  1.00  0.00    -0.215 C  
HETATM   27  O   UNL     1      -8.136   5.792  69.499  1.00  0.00    -0.104 OA 
HETATM   28  C   UNL     1      -8.138   6.733  71.639  1.00  0.00    -0.106 A  
ENDBRANCH  17  20
ENDBRANCH  15  16
BRANCH  15  29
HETATM   29  C   UNL     1     -12.174  12.397  70.230  1.00  0.00    -0.267 C  
BRANCH  29  30
HETATM   30  S   UNL     1     -12.326  14.151  69.729  1.00  0.00    -0.226 SA 
BRANCH  30  31
HETATM   31  C   UNL     1     -12.602  15.020  71.255  1.00  0.00    -0.339 A  
HETATM   32  C   UNL     1     -13.650  14.972  73.448  1.00  0.00     0.121 A  
HETATM   33  C   UNL     1     -13.472  14.424  72.178  1.00  0.00    -0.507 A  
HETATM   34  C   UNL     1     -12.096  16.731  72.895  1.00  0.00    -0.136 A  
HETATM   35  C   UNL     1     -12.955  16.124  73.809  1.00  0.00    -0.571 A  
HETATM   36  C   UNL     1     -11.919  16.182  71.621  1.00  0.00    -0.528 A  
ENDBRANCH  30  31
ENDBRANCH  29  30
ENDBRANCH  15  29
ENDBRANCH  12  15
ENDBRANCH  11  12
ENDBRANCH   8  11
BRANCH   9  37
HETATM   37  C   UNL     1      -6.957  14.130  67.766  1.00  0.00    -0.177 C  
HETATM   38  C   UNL     1      -5.163  15.731  69.794  1.00  0.00    -0.111 C  
HETATM   39  O   UNL     1      -5.847  13.834  67.329  1.00  0.00    -0.326 OA 
HETATM   40  C   UNL     1      -6.810  14.873  71.453  1.00  0.00     1.253 C  
HETATM   41  C   UNL     1      -6.119  14.573  70.111  1.00  0.00    -0.160 C  
HETATM   42  N   UNL     1      -7.174  14.458  69.094  1.00  0.00    -0.122 N  
HETATM   43  C   UNL     1      -5.324  13.267  70.254  1.00  0.00    -0.115 C  
HETATM   44  H   UNL     1      -8.135  14.633  69.388  1.00  0.00     0.000 HD 
ENDBRANCH   9  37
TORSDOF 9
ENDMDL
MODEL      235
REMARK 921   NORMALIZED FREE ENERGY PREDICTED BY IDOCK:   -2.99 KCAL/MOL
REMARK 922        TOTAL FREE ENERGY PREDICTED BY IDOCK:   -7.39 KCAL/MOL
REMARK 923 INTER-LIGAND FREE ENERGY PREDICTED BY IDOCK:   -4.76 KCAL/MOL
REMARK 924 INTRA-LIGAND FREE ENERGY PREDICTED BY IDOCK:   -2.63 KCAL/MOL
REMARK 927      BINDING AFFINITY PREDICTED BY RF-SCORE:    0.00 PKD
ROOT
HETATM    1  C   UNL     1     -11.405   7.984  69.867  1.00  0.00     0.052 C  
HETATM    2  C   UNL     1     -11.815   8.855  71.059  1.00  0.00    -0.324 C  
HETATM    3  C   UNL     1     -10.780   8.810  72.177  1.00  0.00    -0.383 C  
HETATM    4  C   UNL     1     -10.557   7.381  72.655  1.00  0.00    -0.322 C  
HETATM    5  C   UNL     1     -10.194   6.422  71.522  1.00  0.00    -0.221 C  
HETATM    6  C   UNL     1     -11.097   6.544  70.284  1.00  0.00    -0.392 C  
HETATM    7  C   UNL     1     -10.553   5.782  69.063  1.00  0.00    -0.281 C  
HETATM    8  N   UNL     1      -9.271   6.286  68.558  1.00  0.00    -0.124 NA 
HETATM    9  C   UNL     1      -9.165   7.755  68.489  1.00  0.00    -0.137 C  
HETATM   10  C   UNL     1     -10.291   8.647  69.047  1.00  0.00    -0.226 C  
ENDROOT
BRANCH   8  11
HETATM   11  C   UNL     1      -8.909   5.622  67.280  1.00  0.00    -0.106 C  
BRANCH  11  12
HETATM   12  C   UNL     1      -7.650   4.694  67.222  1.00  0.00    -0.086 C  
HETATM   13  H   UNL     1      -5.682   4.866  67.473  1.00  0.00     0.000 HD 
HETATM   14  O   UNL     1      -6.446   5.429  67.508  1.00  0.00    -0.047 OA 
BRANCH  12  15
HETATM   15  C   UNL     1      -7.752   3.428  68.114  1.00  0.00    -0.063 C  
BRANCH  15  16
HETATM   16  N   UNL     1      -8.123   3.719  69.505  1.00  0.00    -0.054 N  
HETATM   17  C   UNL     1      -7.773   2.915  70.565  1.00  0.00    -0.043 C  
HETATM   18  O   UNL     1      -7.132   1.875  70.465  1.00  0.00    -0.033 OA 
HETATM   19  H   UNL     1      -8.668   4.561  69.694  1.00  0.00     0.000 HD 
BRANCH  17  20
HETATM   20  C   UNL     1      -8.260   3.333  71.901  1.00  0.00    -0.063 A  
HETATM   21  C   UNL     1      -7.498   4.283  72.604  1.00  0.00    -0.074 A  
HETATM   22  H   UNL     1     -11.005   2.862  75.361  1.00  0.00     0.000 HD 
HETATM   23  C   UNL     1      -9.411   2.751  72.478  1.00  0.00    -0.151 A  
HETATM   24  C   UNL     1      -9.733   3.138  73.787  1.00  0.00    -0.103 A  
HETATM   25  C   UNL     1      -7.877   4.680  73.880  1.00  0.00    -0.101 A  
HETATM   26  C   UNL     1     -10.289   1.761  71.756  1.00  0.00    -0.037 C  
HETATM   27  O   UNL     1     -10.787   2.600  74.475  1.00  0.00    -0.114 OA 
HETATM   28  C   UNL     1      -8.994   4.100  74.472  1.00  0.00    -0.106 A  
ENDBRANCH  17  20
ENDBRANCH  15  16
BRANCH  15  29
HETATM   29  C   UNL     1      -8.620   2.297  67.485  1.00  0.00    -0.104 C  
BRANCH  29  30
HETATM   30  S   UNL     1      -7.921   1.494  65.996  1.00  0.00    -0.075 SA 
BRANCH  30  31
HETATM   31  C   UNL     1      -8.532   2.471  64.643  1.00  0.00    -0.089 A  
HETATM   32  C   UNL     1     -10.489   3.191  63.391  1.00  0.00    -0.224 A  
HETATM   33  C   UNL     1      -9.900   2.370  64.353  1.00  0.00    -0.030 A  
HETATM   34  C   UNL     1      -8.350   4.227  62.984  1.00  0.00    -0.093 A  
HETATM   35  C   UNL     1      -9.713   4.126  62.710  1.00  0.00    -0.136 A  
HETATM   36  C   UNL     1      -7.760   3.403  63.947  1.00  0.00    -0.079 A  
ENDBRANCH  30  31
ENDBRANCH  29  30
ENDBRANCH  15  29
ENDBRANCH  12  15
ENDBRANCH  11  12
ENDBRANCH   8  11
BRANCH   9  37
HETATM   37  C   UNL     1      -7.816   8.199  69.137  1.00  0.00    -0.107 C  
HETATM   38  C   UNL     1      -5.207   9.927  68.823  1.00  0.00    -0.036 C  
HETATM   39  O   UNL     1      -7.001   7.424  69.632  1.00  0.00    -0.051 OA 
HETATM   40  C   UNL     1      -6.712  11.773  69.548  1.00  0.00    -0.067 C  
HETATM   41  C   UNL     1      -6.450  10.262  69.660  1.00  0.00    -0.069 C  
HETATM   42  N   UNL     1      -7.641   9.573  69.145  1.00  0.00    -0.073 N  
HETATM   43  C   UNL     1      -6.190   9.920  71.135  1.00  0.00     0.016 C  
HETATM   44  H   UNL     1      -8.393  10.148  68.766  1.00  0.00     0.000 HD 
ENDBRANCH   9  37
TORSDOF 9
ENDMDL
MODEL      236
REMARK 921   NORMALIZED FREE ENERGY PREDICTED BY IDOCK:   -2.98 KCAL/MOL
REMARK 922        TOTAL FREE ENERGY PREDICTED BY IDOCK:   -7.39 KCAL/MOL
REMARK 923 INTER-LIGAND FREE ENERGY PREDICTED BY IDOCK:   -5.94 KCAL/MOL
REMARK 924 INTRA-LIGAND FREE ENERGY PREDICTED BY IDOCK:   -1.45 KCAL/MOL
REMARK 927      BINDING AFFINITY PREDICTED BY RF-SCORE:    0.00 PKD
ROOT
HETATM    1  C   UNL     1      -7.691   9.226  69.753  1.00  0.00    -0.096 C  
HETATM    2  C   UNL     1      -6.445   9.727  69.015  1.00  0.00    -0.045 C  
HETATM    3  C   UNL     1      -5.160   9.295  69.712  1.00  0.00    -0.034 C  
HETATM    4  C   UNL     1      -5.126   9.797  71.149  1.00  0.00    -0.049 C  
HETATM    5  C   UNL     1      -6.360   9.390  71.953  1.00  0.00     0.147 C  
HETATM    6  C   UNL     1      -7.692   9.636  71.227  1.00  0.00     0.512 C  
HETATM    7  C   UNL     1      -8.891   8.971  71.924  1.00  0.00     0.104 C  
HETATM    8  N   UNL     1      -8.831   7.506  71.965  1.00  0.00    -0.116 NA 
HETATM    9  C   UNL     1      -8.391   6.868  70.710  1.00  0.00    -0.127 C  
HETATM   10  C   UNL     1      -7.911   7.725  69.524  1.00  0.00    -0.111 C  
ENDROOT
BRANCH   8  11
HETATM   11  C   UNL     1     -10.102   6.939  72.484  1.00  0.00    -0.172 C  
BRANCH  11  12
HETATM   12  C   UNL     1     -10.930   5.957  71.590  1.00  0.00    -0.268 C  
HETATM   13  H   UNL     1     -12.291   4.525  71.846  1.00  0.00     0.000 HD 
HETATM   14  O   UNL     1     -11.788   5.121  72.389  1.00  0.00    -0.000 OA 
BRANCH  12  15
HETATM   15  C   UNL     1     -11.732   6.652  70.457  1.00  0.00    -0.394 C  
BRANCH  15  16
HETATM   16  N   UNL     1     -11.730   8.117  70.551  1.00  0.00    -0.458 N  
HETATM   17  C   UNL     1     -12.779   8.843  71.066  1.00  0.00    -0.063 C  
HETATM   18  O   UNL     1     -13.821   8.354  71.485  1.00  0.00    -0.360 OA 
HETATM   19  H   UNL     1     -10.909   8.622  70.217  1.00  0.00     0.000 HD 
BRANCH  17  20
HETATM   20  C   UNL     1     -12.632  10.318  71.053  1.00  0.00    -0.487 A  
HETATM   21  C   UNL     1     -13.285  11.046  72.063  1.00  0.00    -0.447 A  
HETATM   22  H   UNL     1     -11.320  14.078  69.086  1.00  0.00     0.000 HD 
HETATM   23  C   UNL     1     -11.918  10.976  70.027  1.00  0.00    -0.430 A  
HETATM   24  C   UNL     1     -11.921  12.378  70.046  1.00  0.00    -0.299 A  
HETATM   25  C   UNL     1     -13.225  12.434  72.078  1.00  0.00    -0.514 A  
HETATM   26  C   UNL     1     -11.163  10.247  68.944  1.00  0.00    -0.259 C  
HETATM   27  O   UNL     1     -11.318  13.128  69.074  1.00  0.00    -0.254 OA 
HETATM   28  C   UNL     1     -12.546  13.098  71.062  1.00  0.00    -0.397 A  
ENDBRANCH  17  20
ENDBRANCH  15  16
BRANCH  15  29
HETATM   29  C   UNL     1     -11.359   6.140  69.033  1.00  0.00    -0.183 C  
BRANCH  29  30
HETATM   30  S   UNL     1     -10.200   4.724  68.977  1.00  0.00     0.076 SA 
BRANCH  30  31
HETATM   31  C   UNL     1      -9.503   4.793  67.343  1.00  0.00    -0.146 A  
HETATM   32  C   UNL     1      -9.070   3.588  65.276  1.00  0.00    -0.144 A  
HETATM   33  C   UNL     1      -9.483   3.600  66.608  1.00  0.00    -0.197 A  
HETATM   34  C   UNL     1      -8.677   5.964  65.389  1.00  0.00    -0.109 A  
HETATM   35  C   UNL     1      -8.672   4.774  64.664  1.00  0.00    -0.153 A  
HETATM   36  C   UNL     1      -9.091   5.975  66.725  1.00  0.00    -0.134 A  
ENDBRANCH  30  31
ENDBRANCH  29  30
ENDBRANCH  15  29
ENDBRANCH  12  15
ENDBRANCH  11  12
ENDBRANCH   8  11
BRANCH   9  37
HETATM   37  C   UNL     1      -7.287   5.813  71.036  1.00  0.00    -0.085 C  
HETATM   38  C   UNL     1      -5.695   4.303  73.289  1.00  0.00    -0.008 C  
HETATM   39  O   UNL     1      -6.172   5.800  70.519  1.00  0.00    -0.028 OA 
HETATM   40  C   UNL     1      -7.741   2.885  73.357  1.00  0.00    -0.052 C  
HETATM   41  C   UNL     1      -6.859   3.759  72.449  1.00  0.00    -0.041 C  
HETATM   42  N   UNL     1      -7.703   4.848  71.939  1.00  0.00    -0.100 N  
HETATM   43  C   UNL     1      -6.314   2.884  71.311  1.00  0.00    -0.019 C  
HETATM   44  H   UNL     1      -8.665   4.899  72.276  1.00  0.00     0.000 HD 
ENDBRANCH   9  37
TORSDOF 9
ENDMDL
MODEL      237
REMARK 921   NORMALIZED FREE ENERGY PREDICTED BY IDOCK:   -2.75 KCAL/MOL
REMARK 922        TOTAL FREE ENERGY PREDICTED BY IDOCK:   -7.03 KCAL/MOL
REMARK 923 INTER-LIGAND FREE ENERGY PREDICTED BY IDOCK:   -4.73 KCAL/MOL
REMARK 924 INTRA-LIGAND FREE ENERGY PREDICTED BY IDOCK:   -2.30 KCAL/MOL
REMARK 927      BINDING AFFINITY PREDICTED BY RF-SCORE:    0.00 PKD
ROOT
HETATM    1  C   UNL     1      -7.629   8.649  71.439  1.00  0.00    -0.136 C  
HETATM    2  C   UNL     1      -6.453   9.405  70.812  1.00  0.00    -0.086 C  
HETATM    3  C   UNL     1      -5.143   9.117  71.536  1.00  0.00    -0.041 C  
HETATM    4  C   UNL     1      -5.244   9.483  73.010  1.00  0.00    -0.060 C  
HETATM    5  C   UNL     1      -6.427   8.816  73.712  1.00  0.00    -0.023 C  
HETATM    6  C   UNL     1      -7.752   8.917  72.940  1.00  0.00     0.351 C  
HETATM    7  C   UNL     1      -8.855   8.011  73.516  1.00  0.00    -0.268 C  
HETATM    8  N   UNL     1      -8.562   6.576  73.434  1.00  0.00    -0.123 NA 
HETATM    9  C   UNL     1      -7.978   6.132  72.155  1.00  0.00    -0.109 C  
HETATM   10  C   UNL     1      -7.597   7.160  71.072  1.00  0.00    -0.085 C  
ENDROOT
BRANCH   8  11
HETATM   11  C   UNL     1      -9.744   5.771  73.837  1.00  0.00    -0.169 C  
BRANCH  11  12
HETATM   12  C   UNL     1     -10.272   4.647  72.884  1.00  0.00    -0.179 C  
HETATM   13  H   UNL     1     -11.385   3.001  73.026  1.00  0.00     0.000 HD 
HETATM   14  O   UNL     1     -11.064   3.683  73.603  1.00  0.00    -0.231 OA 
BRANCH  12  15
HETATM   15  C   UNL     1     -11.035   5.174  71.640  1.00  0.00     0.020 C  
BRANCH  15  16
HETATM   16  N   UNL     1     -11.209   6.632  71.633  1.00  0.00    -0.252 N  
HETATM   17  C   UNL     1     -12.349   7.256  71.181  1.00  0.00    -0.345 C  
HETATM   18  O   UNL     1     -13.327   6.671  70.730  1.00  0.00     0.186 OA 
HETATM   19  H   UNL     1     -10.445   7.212  71.981  1.00  0.00     0.000 HD 
BRANCH  17  20
HETATM   20  C   UNL     1     -12.347   8.738  71.207  1.00  0.00    -0.313 A  
HETATM   21  C   UNL     1     -13.240   9.375  72.087  1.00  0.00    -0.541 A  
HETATM   22  H   UNL     1     -11.076  12.654  69.542  1.00  0.00     0.000 HD 
HETATM   23  C   UNL     1     -11.527   9.486  70.334  1.00  0.00    -0.297 A  
HETATM   24  C   UNL     1     -11.671  10.881  70.363  1.00  0.00    -0.350 A  
HETATM   25  C   UNL     1     -13.320  10.761  72.124  1.00  0.00    -0.314 A  
HETATM   26  C   UNL     1     -10.521   8.860  69.401  1.00  0.00    -0.228 C  
HETATM   27  O   UNL     1     -10.978  11.709  69.523  1.00  0.00    -0.200 OA 
HETATM   28  C   UNL     1     -12.536  11.512  71.254  1.00  0.00    -0.452 A  
ENDBRANCH  17  20
ENDBRANCH  15  16
BRANCH  15  29
HETATM   29  C   UNL     1     -10.471   4.630  70.294  1.00  0.00     0.152 C  
BRANCH  29  30
HETATM   30  S   UNL     1      -9.434   3.126  70.416  1.00  0.00    -0.125 SA 
BRANCH  30  31
HETATM   31  C   UNL     1      -8.317   3.250  69.040  1.00  0.00    -0.060 A  
HETATM   32  C   UNL     1      -7.317   4.710  67.372  1.00  0.00    -0.074 A  
HETATM   33  C   UNL     1      -8.253   4.485  68.382  1.00  0.00    -0.086 A  
HETATM   34  C   UNL     1      -6.493   2.461  67.653  1.00  0.00    -0.032 A  
HETATM   35  C   UNL     1      -6.431   3.697  67.012  1.00  0.00    -0.037 A  
HETATM   36  C   UNL     1      -7.433   2.237  68.663  1.00  0.00    -0.047 A  
ENDBRANCH  30  31
ENDBRANCH  29  30
ENDBRANCH  15  29
ENDBRANCH  12  15
ENDBRANCH  11  12
ENDBRANCH   8  11
BRANCH   9  37
HETATM   37  C   UNL     1      -6.733   5.237  72.446  1.00  0.00    -0.069 C  
HETATM   38  C   UNL     1      -5.225   3.460  74.558  1.00  0.00     0.000 C  
HETATM   39  O   UNL     1      -5.575   5.564  72.193  1.00  0.00    -0.017 OA 
HETATM   40  C   UNL     1      -6.884   1.746  73.844  1.00  0.00    -0.022 C  
HETATM   41  C   UNL     1      -6.087   2.978  73.383  1.00  0.00    -0.008 C  
HETATM   42  N   UNL     1      -7.061   4.002  72.981  1.00  0.00    -0.060 N  
HETATM   43  C   UNL     1      -5.184   2.564  72.212  1.00  0.00     0.000 C  
HETATM   44  H   UNL     1      -8.050   3.789  73.106  1.00  0.00     0.000 HD 
ENDBRANCH   9  37
TORSDOF 9
ENDMDL
MODEL      238
REMARK 921   NORMALIZED FREE ENERGY PREDICTED BY IDOCK:   -2.67 KCAL/MOL
REMARK 922        TOTAL FREE ENERGY PREDICTED BY IDOCK:   -6.91 KCAL/MOL
REMARK 923 INTER-LIGAND FREE ENERGY PREDICTED BY IDOCK:   -5.40 KCAL/MOL
REMARK 924 INTRA-LIGAND FREE ENERGY PREDICTED BY IDOCK:   -1.51 KCAL/MOL
REMARK 927      BINDING AFFINITY PREDICTED BY RF-SCORE:    0.00 PKD
ROOT
HETATM    1  C   UNL     1     -10.803  17.038  66.741  1.00  0.00     0.014 C  
HETATM    2  C   UNL     1     -10.732  18.566  66.825  1.00  0.00    -0.303 C  
HETATM    3  C   UNL     1      -9.802  19.030  67.940  1.00  0.00    -0.400 C  
HETATM    4  C   UNL     1     -10.248  18.475  69.286  1.00  0.00     0.050 C  
HETATM    5  C   UNL     1     -10.400  16.954  69.285  1.00  0.00    -0.298 C  
HETATM    6  C   UNL     1     -11.181  16.403  68.081  1.00  0.00    -0.273 C  
HETATM    7  C   UNL     1     -11.084  14.873  67.949  1.00  0.00    -0.298 C  
HETATM    8  N   UNL     1      -9.730  14.374  67.690  1.00  0.00    -0.217 NA 
HETATM    9  C   UNL     1      -8.961  15.147  66.697  1.00  0.00    -0.287 C  
HETATM   10  C   UNL     1      -9.533  16.452  66.110  1.00  0.00    -0.363 C  
ENDROOT
BRANCH   8  11
HETATM   11  C   UNL     1      -9.751  12.919  67.394  1.00  0.00    -0.201 C  
BRANCH  11  12
HETATM   12  C   UNL     1     -11.073  12.108  67.603  1.00  0.00    -0.268 C  
HETATM   13  H   UNL     1     -12.778  11.793  66.621  1.00  0.00     0.000 HD 
HETATM   14  O   UNL     1     -11.975  12.285  66.494  1.00  0.00    -0.596 OA 
BRANCH  12  15
HETATM   15  C   UNL     1     -10.855  10.601  67.906  1.00  0.00    -0.277 C  
BRANCH  15  16
HETATM   16  N   UNL     1      -9.676  10.035  67.239  1.00  0.00    -0.162 N  
HETATM   17  C   UNL     1      -9.722   9.440  65.999  1.00  0.00    -0.275 C  
HETATM   18  O   UNL     1     -10.740   9.308  65.330  1.00  0.00     1.117 OA 
HETATM   19  H   UNL     1      -8.778  10.084  67.719  1.00  0.00     0.000 HD 
BRANCH  17  20
HETATM   20  C   UNL     1      -8.448   8.883  65.485  1.00  0.00    -0.174 A  
HETATM   21  C   UNL     1      -8.208   7.512  65.688  1.00  0.00    -0.133 A  
HETATM   22  H   UNL     1      -4.404   9.409  63.726  1.00  0.00     0.000 HD 
HETATM   23  C   UNL     1      -7.479   9.709  64.874  1.00  0.00    -0.118 A  
HETATM   24  C   UNL     1      -6.265   9.109  64.513  1.00  0.00    -0.071 A  
HETATM   25  C   UNL     1      -7.012   6.941  65.272  1.00  0.00    -0.052 A  
HETATM   26  C   UNL     1      -7.698  11.175  64.593  1.00  0.00     0.734 C  
HETATM   27  O   UNL     1      -5.227   9.816  63.970  1.00  0.00    -0.060 OA 
HETATM   28  C   UNL     1      -6.038   7.745  64.689  1.00  0.00    -0.041 A  
ENDBRANCH  17  20
ENDBRANCH  15  16
BRANCH  15  29
HETATM   29  C   UNL     1     -10.906  10.264  69.426  1.00  0.00    -0.245 C  
BRANCH  29  30
HETATM   30  S   UNL     1     -10.777   8.488  69.851  1.00  0.00    -0.199 SA 
BRANCH  30  31
HETATM   31  C   UNL     1      -9.042   8.233  70.142  1.00  0.00    -0.147 A  
HETATM   32  C   UNL     1      -6.830   8.045  69.149  1.00  0.00    -0.052 A  
HETATM   33  C   UNL     1      -8.217   8.123  69.015  1.00  0.00    -0.127 A  
HETATM   34  C   UNL     1      -7.066   8.179  71.544  1.00  0.00    -0.075 A  
HETATM   35  C   UNL     1      -6.254   8.081  70.416  1.00  0.00    -0.036 A  
HETATM   36  C   UNL     1      -8.456   8.254  71.409  1.00  0.00    -0.172 A  
ENDBRANCH  30  31
ENDBRANCH  29  30
ENDBRANCH  15  29
ENDBRANCH  12  15
ENDBRANCH  11  12
ENDBRANCH   8  11
BRANCH   9  37
HETATM   37  C   UNL     1      -7.541  15.446  67.272  1.00  0.00    -0.212 C  
HETATM   38  C   UNL     1      -5.135  17.468  67.382  1.00  0.00    -0.133 C  
HETATM   39  O   UNL     1      -6.607  14.647  67.252  1.00  0.00    -0.290 OA 
HETATM   40  C   UNL     1      -6.576  18.616  69.056  1.00  0.00    -0.284 C  
HETATM   41  C   UNL     1      -6.215  17.249  68.450  1.00  0.00    -0.153 C  
HETATM   42  N   UNL     1      -7.442  16.696  67.861  1.00  0.00    -0.155 N  
HETATM   43  C   UNL     1      -5.666  16.350  69.568  1.00  0.00    -0.161 C  
HETATM   44  H   UNL     1      -8.282  17.274  67.888  1.00  0.00     0.000 HD 
ENDBRANCH   9  37
TORSDOF 9
ENDMDL
MODEL      239
REMARK 921   NORMALIZED FREE ENERGY PREDICTED BY IDOCK:   -2.67 KCAL/MOL
REMARK 922        TOTAL FREE ENERGY PREDICTED BY IDOCK:   -6.91 KCAL/MOL
REMARK 923 INTER-LIGAND FREE ENERGY PREDICTED BY IDOCK:   -5.19 KCAL/MOL
REMARK 924 INTRA-LIGAND FREE ENERGY PREDICTED BY IDOCK:   -1.72 KCAL/MOL
REMARK 927      BINDING AFFINITY PREDICTED BY RF-SCORE:    0.00 PKD
ROOT
HETATM    1  C   UNL     1      -5.664   5.939  64.620  1.00  0.00    -0.024 C  
HETATM    2  C   UNL     1      -5.699   4.489  64.124  1.00  0.00    -0.014 C  
HETATM    3  C   UNL     1      -6.583   3.611  65.001  1.00  0.00    -0.040 C  
HETATM    4  C   UNL     1      -6.108   3.633  66.448  1.00  0.00    -0.024 C  
HETATM    5  C   UNL     1      -5.989   5.047  67.016  1.00  0.00    -0.026 C  
HETATM    6  C   UNL     1      -5.258   6.035  66.092  1.00  0.00    -0.009 C  
HETATM    7  C   UNL     1      -5.392   7.498  66.548  1.00  0.00    -0.024 C  
HETATM    8  N   UNL     1      -6.764   8.015  66.524  1.00  0.00    -0.061 NA 
HETATM    9  C   UNL     1      -7.546   7.648  65.329  1.00  0.00    -0.089 C  
HETATM   10  C   UNL     1      -6.965   6.678  64.283  1.00  0.00    -0.051 C  
ENDROOT
BRANCH   8  11
HETATM   11  C   UNL     1      -6.784   9.475  66.797  1.00  0.00    -0.072 C  
BRANCH  11  12
HETATM   12  C   UNL     1      -6.563   9.989  68.259  1.00  0.00    -0.055 C  
HETATM   13  H   UNL     1      -5.563  11.451  69.170  1.00  0.00     0.000 HD 
HETATM   14  O   UNL     1      -5.697  11.140  68.283  1.00  0.00    -0.046 OA 
BRANCH  12  15
HETATM   15  C   UNL     1      -7.875  10.265  69.042  1.00  0.00    -0.114 C  
BRANCH  15  16
HETATM   16  N   UNL     1      -8.611  11.439  68.555  1.00  0.00    -0.155 N  
HETATM   17  C   UNL     1      -9.585  11.372  67.585  1.00  0.00    -0.169 C  
HETATM   18  O   UNL     1      -9.931  10.341  67.021  1.00  0.00    -0.185 OA 
HETATM   19  H   UNL     1      -8.388  12.350  68.956  1.00  0.00     0.000 HD 
BRANCH  17  20
HETATM   20  C   UNL     1     -10.204  12.656  67.180  1.00  0.00    -0.230 A  
HETATM   21  C   UNL     1      -9.952  13.117  65.875  1.00  0.00    -0.275 A  
HETATM   22  H   UNL     1     -12.425  16.379  68.147  1.00  0.00     0.000 HD 
HETATM   23  C   UNL     1     -10.964  13.424  68.089  1.00  0.00    -0.277 A  
HETATM   24  C   UNL     1     -11.422  14.672  67.643  1.00  0.00    -0.346 A  
HETATM   25  C   UNL     1     -10.464  14.335  65.451  1.00  0.00    -0.382 A  
HETATM   26  C   UNL     1     -11.301  12.962  69.484  1.00  0.00    -0.221 C  
HETATM   27  O   UNL     1     -12.115  15.533  68.449  1.00  0.00    -0.210 OA 
HETATM   28  C   UNL     1     -11.195  15.115  66.341  1.00  0.00    -0.277 A  
ENDBRANCH  17  20
ENDBRANCH  15  16
BRANCH  15  29
HETATM   29  C   UNL     1      -8.781   9.007  69.191  1.00  0.00    -0.135 C  
BRANCH  29  30
HETATM   30  S   UNL     1      -9.763   8.913  70.734  1.00  0.00    -0.249 SA 
BRANCH  30  31
HETATM   31  C   UNL     1      -9.740   7.188  71.163  1.00  0.00    -0.168 A  
HETATM   32  C   UNL     1     -11.027   5.287  71.964  1.00  0.00    -0.196 A  
HETATM   33  C   UNL     1     -10.913   6.654  71.713  1.00  0.00    -0.276 A  
HETATM   34  C   UNL     1      -8.789   4.960  71.127  1.00  0.00    -0.151 A  
HETATM   35  C   UNL     1      -9.964   4.437  71.664  1.00  0.00    -0.256 A  
HETATM   36  C   UNL     1      -8.676   6.331  70.877  1.00  0.00    -0.136 A  
ENDBRANCH  30  31
ENDBRANCH  29  30
ENDBRANCH  15  29
ENDBRANCH  12  15
ENDBRANCH  11  12
ENDBRANCH   8  11
BRANCH   9  37
HETATM   37  C   UNL     1      -8.941   7.110  65.779  1.00  0.00    -0.008 C  
HETATM   38  C   UNL     1     -10.937   4.679  65.763  1.00  0.00     0.093 C  
HETATM   39  O   UNL     1      -9.997   7.719  65.623  1.00  0.00     0.553 OA 
HETATM   40  C   UNL     1      -9.496   3.881  67.631  1.00  0.00    -0.233 C  
HETATM   41  C   UNL     1     -10.034   5.134  66.918  1.00  0.00    -0.201 C  
HETATM   42  N   UNL     1      -8.872   5.885  66.423  1.00  0.00    -0.130 N  
HETATM   43  C   UNL     1     -10.852   5.954  67.926  1.00  0.00    -0.323 C  
HETATM   44  H   UNL     1      -7.949   5.476  66.563  1.00  0.00     0.000 HD 
ENDBRANCH   9  37
TORSDOF 9
ENDMDL
MODEL      240
REMARK 921   NORMALIZED FREE ENERGY PREDICTED BY IDOCK:   -2.57 KCAL/MOL
REMARK 922        TOTAL FREE ENERGY PREDICTED BY IDOCK:   -6.76 KCAL/MOL
REMARK 923 INTER-LIGAND FREE ENERGY PREDICTED BY IDOCK:   -5.37 KCAL/MOL
REMARK 924 INTRA-LIGAND FREE ENERGY PREDICTED BY IDOCK:   -1.39 KCAL/MOL
REMARK 927      BINDING AFFINITY PREDICTED BY RF-SCORE:    0.00 PKD
ROOT
HETATM    1  C   UNL     1     -11.269   6.786  70.637  1.00  0.00    -0.361 C  
HETATM    2  C   UNL     1     -11.768   7.943  71.509  1.00  0.00    -0.317 C  
HETATM    3  C   UNL     1     -10.847   9.154  71.425  1.00  0.00    -0.419 C  
HETATM    4  C   UNL     1      -9.428   8.789  71.842  1.00  0.00    -0.362 C  
HETATM    5  C   UNL     1      -8.863   7.603  71.062  1.00  0.00    -0.142 C  
HETATM    6  C   UNL     1      -9.821   6.406  70.956  1.00  0.00    -0.200 C  
HETATM    7  C   UNL     1      -9.353   5.347  69.942  1.00  0.00    -0.140 C  
HETATM    8  N   UNL     1      -9.299   5.820  68.555  1.00  0.00    -0.120 NA 
HETATM    9  C   UNL     1     -10.450   6.639  68.132  1.00  0.00    -0.214 C  
HETATM   10  C   UNL     1     -11.531   7.052  69.150  1.00  0.00     0.077 C  
ENDROOT
BRANCH   8  11
HETATM   11  C   UNL     1      -9.019   4.697  67.624  1.00  0.00    -0.113 C  
BRANCH  11  12
HETATM   12  C   UNL     1      -7.606   4.577  66.964  1.00  0.00    -0.086 C  
HETATM   13  H   UNL     1      -5.931   5.651  66.865  1.00  0.00     0.000 HD 
HETATM   14  O   UNL     1      -6.789   5.724  67.266  1.00  0.00    -0.060 OA 
BRANCH  12  15
HETATM   15  C   UNL     1      -6.857   3.259  67.298  1.00  0.00    -0.046 C  
BRANCH  15  16
HETATM   16  N   UNL     1      -6.708   3.019  68.739  1.00  0.00    -0.037 N  
HETATM   17  C   UNL     1      -7.506   2.152  69.447  1.00  0.00    -0.043 C  
HETATM   18  O   UNL     1      -8.425   1.502  68.962  1.00  0.00    -0.051 OA 
HETATM   19  H   UNL     1      -5.975   3.522  69.239  1.00  0.00     0.000 HD 
BRANCH  17  20
HETATM   20  C   UNL     1      -7.248   2.055  70.903  1.00  0.00    -0.033 A  
HETATM   21  C   UNL     1      -5.913   1.900  71.319  1.00  0.00    -0.014 A  
HETATM   22  H   UNL     1      -8.679   1.631  75.087  1.00  0.00     0.000 HD 
HETATM   23  C   UNL     1      -8.307   2.050  71.838  1.00  0.00    -0.058 A  
HETATM   24  C   UNL     1      -7.968   1.851  73.184  1.00  0.00    -0.045 A  
HETATM   25  C   UNL     1      -5.611   1.756  72.666  1.00  0.00    -0.004 A  
HETATM   26  C   UNL     1      -9.751   2.254  71.456  1.00  0.00    -0.224 C  
HETATM   27  O   UNL     1      -8.908   1.766  74.175  1.00  0.00    -0.060 OA 
HETATM   28  C   UNL     1      -6.643   1.726  73.598  1.00  0.00    -0.017 A  
ENDBRANCH  17  20
ENDBRANCH  15  16
BRANCH  15  29
HETATM   29  C   UNL     1      -7.418   2.021  66.537  1.00  0.00    -0.061 C  
BRANCH  29  30
HETATM   30  S   UNL     1      -7.076   1.970  64.739  1.00  0.00    -0.053 SA 
BRANCH  30  31
HETATM   31  C   UNL     1      -8.520   2.694  63.998  1.00  0.00    -0.086 A  
HETATM   32  C   UNL     1      -9.391   4.462  62.572  1.00  0.00    -0.123 A  
HETATM   33  C   UNL     1      -8.339   3.890  63.289  1.00  0.00    -0.091 A  
HETATM   34  C   UNL     1     -10.830   2.656  63.267  1.00  0.00    -0.231 A  
HETATM   35  C   UNL     1     -10.636   3.839  62.557  1.00  0.00    -0.202 A  
HETATM   36  C   UNL     1      -9.775   2.085  63.986  1.00  0.00    -0.130 A  
ENDBRANCH  30  31
ENDBRANCH  29  30
ENDBRANCH  15  29
ENDBRANCH  12  15
ENDBRANCH  11  12
ENDBRANCH   8  11
BRANCH   9  37
HETATM   37  C   UNL     1      -9.926   7.925  67.419  1.00  0.00    -0.198 C  
HETATM   38  C   UNL     1      -7.438   9.406  66.193  1.00  0.00    -0.096 C  
HETATM   39  O   UNL     1     -10.167   9.069  67.797  1.00  0.00    -0.202 OA 
HETATM   40  C   UNL     1      -7.918   7.942  64.237  1.00  0.00    -0.130 C  
HETATM   41  C   UNL     1      -8.552   8.673  65.432  1.00  0.00    -0.181 C  
HETATM   42  N   UNL     1      -9.192   7.655  66.276  1.00  0.00    -0.253 N  
HETATM   43  C   UNL     1      -9.571   9.690  64.897  1.00  0.00    -0.244 C  
HETATM   44  H   UNL     1      -9.088   6.679  66.000  1.00  0.00     0.000 HD 
ENDBRANCH   9  37
TORSDOF 9
ENDMDL
MODEL      241
REMARK 921   NORMALIZED FREE ENERGY PREDICTED BY IDOCK:   -2.57 KCAL/MOL
REMARK 922        TOTAL FREE ENERGY PREDICTED BY IDOCK:   -6.76 KCAL/MOL
REMARK 923 INTER-LIGAND FREE ENERGY PREDICTED BY IDOCK:   -6.80 KCAL/MOL
REMARK 924 INTRA-LIGAND FREE ENERGY PREDICTED BY IDOCK:    0.04 KCAL/MOL
REMARK 927      BINDING AFFINITY PREDICTED BY RF-SCORE:    0.00 PKD
ROOT
HETATM    1  C   UNL     1      -6.001  10.048  65.858  1.00  0.00    -0.077 C  
HETATM    2  C   UNL     1      -5.469   8.622  65.677  1.00  0.00    -0.035 C  
HETATM    3  C   UNL     1      -5.808   7.735  66.868  1.00  0.00    -0.043 C  
HETATM    4  C   UNL     1      -5.247   8.318  68.158  1.00  0.00    -0.034 C  
HETATM    5  C   UNL     1      -5.681   9.763  68.399  1.00  0.00    -0.043 C  
HETATM    6  C   UNL     1      -5.530  10.676  67.172  1.00  0.00    -0.042 C  
HETATM    7  C   UNL     1      -6.225  12.038  67.345  1.00  0.00    -0.136 C  
HETATM    8  N   UNL     1      -7.682  11.959  67.491  1.00  0.00    -0.141 NA 
HETATM    9  C   UNL     1      -8.349  11.018  66.572  1.00  0.00    -0.163 C  
HETATM   10  C   UNL     1      -7.518  10.110  65.645  1.00  0.00    -0.144 C  
ENDROOT
BRANCH   8  11
HETATM   11  C   UNL     1      -8.290  13.314  67.468  1.00  0.00    -0.186 C  
BRANCH  11  12
HETATM   12  C   UNL     1      -9.615  13.579  68.257  1.00  0.00    -0.218 C  
HETATM   13  H   UNL     1     -10.683  12.686  69.682  1.00  0.00     0.000 HD 
HETATM   14  O   UNL     1      -9.879  12.525  69.203  1.00  0.00     0.190 OA 
BRANCH  12  15
HETATM   15  C   UNL     1      -9.680  14.970  68.943  1.00  0.00    -0.224 C  
BRANCH  15  16
HETATM   16  N   UNL     1      -8.611  15.883  68.519  1.00  0.00    -0.181 N  
HETATM   17  C   UNL     1      -8.796  16.887  67.597  1.00  0.00    -0.214 C  
HETATM   18  O   UNL     1      -9.856  17.118  67.028  1.00  0.00    -0.258 OA 
HETATM   19  H   UNL     1      -7.684  15.766  68.929  1.00  0.00     0.000 HD 
BRANCH  17  20
HETATM   20  C   UNL     1      -7.603  17.695  67.251  1.00  0.00    -0.217 A  
HETATM   21  C   UNL     1      -6.340  17.136  67.515  1.00  0.00    -0.166 A  
HETATM   22  H   UNL     1      -5.730  21.513  65.968  1.00  0.00     0.000 HD 
HETATM   23  C   UNL     1      -7.726  19.005  66.738  1.00  0.00    -0.256 A  
HETATM   24  C   UNL     1      -6.541  19.726  66.538  1.00  0.00    -0.194 A  
HETATM   25  C   UNL     1      -5.184  17.861  67.257  1.00  0.00    -0.148 A  
HETATM   26  C   UNL     1      -9.051  19.639  66.397  1.00  0.00    -0.437 C  
HETATM   27  O   UNL     1      -6.533  21.024  66.104  1.00  0.00    -0.249 OA 
HETATM   28  C   UNL     1      -5.288  19.161  66.773  1.00  0.00    -0.166 A  
ENDBRANCH  17  20
ENDBRANCH  15  16
BRANCH  15  29
HETATM   29  C   UNL     1     -11.092  15.625  68.877  1.00  0.00    -0.290 C  
BRANCH  29  30
HETATM   30  S   UNL     1     -12.491  14.475  68.605  1.00  0.00     0.382 SA 
BRANCH  30  31
HETATM   31  C   UNL     1     -12.296  13.937  66.922  1.00  0.00    -0.292 A  
HETATM   32  C   UNL     1     -11.853  14.603  64.626  1.00  0.00    -0.459 A  
HETATM   33  C   UNL     1     -12.135  14.935  65.951  1.00  0.00     0.017 A  
HETATM   34  C   UNL     1     -11.894  12.265  65.215  1.00  0.00    -0.411 A  
HETATM   35  C   UNL     1     -11.725  13.265  64.259  1.00  0.00    -0.454 A  
HETATM   36  C   UNL     1     -12.179  12.599  66.543  1.00  0.00    -0.130 A  
ENDBRANCH  30  31
ENDBRANCH  29  30
ENDBRANCH  15  29
ENDBRANCH  12  15
ENDBRANCH  11  12
ENDBRANCH   8  11
BRANCH   9  37
HETATM   37  C   UNL     1      -9.334  10.122  67.387  1.00  0.00    -0.148 C  
HETATM   38  C   UNL     1      -9.696   7.484  69.060  1.00  0.00    -0.162 C  
HETATM   39  O   UNL     1     -10.447   9.785  66.991  1.00  0.00    -0.238 OA 
HETATM   40  C   UNL     1      -8.697   8.863  70.876  1.00  0.00    -0.256 C  
HETATM   41  C   UNL     1      -9.552   8.914  69.599  1.00  0.00    -0.169 C  
HETATM   42  N   UNL     1      -8.850   9.777  68.639  1.00  0.00    -0.123 N  
HETATM   43  C   UNL     1     -10.935   9.476  69.960  1.00  0.00    -0.284 C  
HETATM   44  H   UNL     1      -7.940  10.148  68.913  1.00  0.00     0.000 HD 
ENDBRANCH   9  37
TORSDOF 9
ENDMDL
MODEL      242
REMARK 921   NORMALIZED FREE ENERGY PREDICTED BY IDOCK:   -2.56 KCAL/MOL
REMARK 922        TOTAL FREE ENERGY PREDICTED BY IDOCK:   -6.73 KCAL/MOL
REMARK 923 INTER-LIGAND FREE ENERGY PREDICTED BY IDOCK:   -5.14 KCAL/MOL
REMARK 924 INTRA-LIGAND FREE ENERGY PREDICTED BY IDOCK:   -1.59 KCAL/MOL
REMARK 927      BINDING AFFINITY PREDICTED BY RF-SCORE:    0.00 PKD
ROOT
HETATM    1  C   UNL     1      -7.508   8.875  72.079  1.00  0.00     0.062 C  
HETATM    2  C   UNL     1      -6.249   9.740  71.964  1.00  0.00     0.411 C  
HETATM    3  C   UNL     1      -5.126   9.228  72.857  1.00  0.00    -0.081 C  
HETATM    4  C   UNL     1      -5.568   9.179  74.314  1.00  0.00    -0.126 C  
HETATM    5  C   UNL     1      -6.853   8.380  74.521  1.00  0.00    -0.206 C  
HETATM    6  C   UNL     1      -7.975   8.725  73.529  1.00  0.00     0.248 C  
HETATM    7  C   UNL     1      -9.146   7.728  73.571  1.00  0.00    -0.283 C  
HETATM    8  N   UNL     1      -8.792   6.362  73.170  1.00  0.00    -0.129 NA 
HETATM    9  C   UNL     1      -7.921   6.270  71.983  1.00  0.00    -0.109 C  
HETATM   10  C   UNL     1      -7.342   7.543  71.337  1.00  0.00    -0.078 C  
ENDROOT
BRANCH   8  11
HETATM   11  C   UNL     1     -10.004   5.512  73.060  1.00  0.00    -0.176 C  
BRANCH  11  12
HETATM   12  C   UNL     1     -10.060   4.384  71.977  1.00  0.00    -0.186 C  
HETATM   13  H   UNL     1     -10.917   2.599  71.753  1.00  0.00     0.000 HD 
HETATM   14  O   UNL     1     -10.883   3.284  72.410  1.00  0.00     0.078 OA 
BRANCH  12  15
HETATM   15  C   UNL     1     -10.488   4.875  70.568  1.00  0.00    -0.100 C  
BRANCH  15  16
HETATM   16  N   UNL     1     -10.619   6.335  70.471  1.00  0.00    -0.233 N  
HETATM   17  C   UNL     1     -11.730   7.023  70.901  1.00  0.00    -0.343 C  
HETATM   18  O   UNL     1     -12.722   6.500  71.394  1.00  0.00    -0.228 OA 
HETATM   19  H   UNL     1      -9.848   6.864  70.064  1.00  0.00     0.000 HD 
BRANCH  17  20
HETATM   20  C   UNL     1     -11.719   8.491  70.696  1.00  0.00    -0.161 A  
HETATM   21  C   UNL     1     -10.856   9.003  69.710  1.00  0.00    -0.215 A  
HETATM   22  H   UNL     1     -12.883  12.599  71.920  1.00  0.00     0.000 HD 
HETATM   23  C   UNL     1     -12.495   9.352  71.502  1.00  0.00    -0.450 A  
HETATM   24  C   UNL     1     -12.339  10.730  71.299  1.00  0.00    -0.365 A  
HETATM   25  C   UNL     1     -10.764  10.373  69.502  1.00  0.00    -0.284 A  
HETATM   26  C   UNL     1     -13.468   8.858  72.544  1.00  0.00    -0.462 C  
HETATM   27  O   UNL     1     -12.988  11.665  72.058  1.00  0.00    -0.416 OA 
HETATM   28  C   UNL     1     -11.504  11.236  70.303  1.00  0.00    -0.286 A  
ENDBRANCH  17  20
ENDBRANCH  15  16
BRANCH  15  29
HETATM   29  C   UNL     1      -9.628   4.272  69.417  1.00  0.00    -0.197 C  
BRANCH  29  30
HETATM   30  S   UNL     1      -9.762   5.116  67.798  1.00  0.00    -0.156 SA 
BRANCH  30  31
HETATM   31  C   UNL     1      -8.362   6.211  67.758  1.00  0.00    -0.116 A  
HETATM   32  C   UNL     1      -7.576   8.474  67.340  1.00  0.00    -0.097 A  
HETATM   33  C   UNL     1      -8.586   7.513  67.290  1.00  0.00    -0.118 A  
HETATM   34  C   UNL     1      -6.093   6.847  68.322  1.00  0.00    -0.033 A  
HETATM   35  C   UNL     1      -6.329   8.141  67.864  1.00  0.00    -0.052 A  
HETATM   36  C   UNL     1      -7.106   5.884  68.270  1.00  0.00    -0.078 A  
ENDBRANCH  30  31
ENDBRANCH  29  30
ENDBRANCH  15  29
ENDBRANCH  12  15
ENDBRANCH  11  12
ENDBRANCH   8  11
BRANCH   9  37
HETATM   37  C   UNL     1      -6.741   5.294  72.293  1.00  0.00    -0.061 C  
HETATM   38  C   UNL     1      -5.367   3.448  74.436  1.00  0.00     0.000 C  
HETATM   39  O   UNL     1      -5.563   5.535  72.038  1.00  0.00    -0.016 OA 
HETATM   40  C   UNL     1      -7.140   1.844  73.742  1.00  0.00    -0.024 C  
HETATM   41  C   UNL     1      -6.257   3.010  73.265  1.00  0.00    -0.012 C  
HETATM   42  N   UNL     1      -7.157   4.094  72.845  1.00  0.00    -0.061 N  
HETATM   43  C   UNL     1      -5.383   2.516  72.104  1.00  0.00     0.000 C  
HETATM   44  H   UNL     1      -8.159   3.952  72.969  1.00  0.00     0.000 HD 
ENDBRANCH   9  37
TORSDOF 9
ENDMDL
MODEL      243
REMARK 921   NORMALIZED FREE ENERGY PREDICTED BY IDOCK:   -2.52 KCAL/MOL
REMARK 922        TOTAL FREE ENERGY PREDICTED BY IDOCK:   -6.68 KCAL/MOL
REMARK 923 INTER-LIGAND FREE ENERGY PREDICTED BY IDOCK:   -5.27 KCAL/MOL
REMARK 924 INTRA-LIGAND FREE ENERGY PREDICTED BY IDOCK:   -1.41 KCAL/MOL
REMARK 927      BINDING AFFINITY PREDICTED BY RF-SCORE:    0.00 PKD
ROOT
HETATM    1  C   UNL     1     -11.891   7.371  71.305  1.00  0.00    -0.330 C  
HETATM    2  C   UNL     1     -13.422   7.315  71.350  1.00  0.00    -0.400 C  
HETATM    3  C   UNL     1     -14.044   8.700  71.224  1.00  0.00    -0.244 C  
HETATM    4  C   UNL     1     -13.544   9.623  72.328  1.00  0.00    -0.449 C  
HETATM    5  C   UNL     1     -12.020   9.701  72.397  1.00  0.00     0.381 C  
HETATM    6  C   UNL     1     -11.319   8.334  72.346  1.00  0.00    -0.457 C  
HETATM    7  C   UNL     1      -9.799   8.444  72.135  1.00  0.00    -0.302 C  
HETATM    8  N   UNL     1      -9.408   9.036  70.852  1.00  0.00    -0.241 NA 
HETATM    9  C   UNL     1     -10.178   8.561  69.688  1.00  0.00    -0.209 C  
HETATM   10  C   UNL     1     -11.382   7.619  69.879  1.00  0.00    -0.017 C  
ENDROOT
BRANCH   8  11
HETATM   11  C   UNL     1      -7.940   8.937  70.649  1.00  0.00    -0.129 C  
BRANCH  11  12
HETATM   12  C   UNL     1      -7.383   8.159  69.411  1.00  0.00    -0.076 C  
HETATM   13  H   UNL     1      -6.397   8.578  67.731  1.00  0.00     0.000 HD 
HETATM   14  O   UNL     1      -6.734   9.050  68.483  1.00  0.00    -0.058 OA 
BRANCH  12  15
HETATM   15  C   UNL     1      -6.459   6.966  69.772  1.00  0.00    -0.043 C  
BRANCH  15  16
HETATM   16  N   UNL     1      -7.124   5.933  70.577  1.00  0.00    -0.068 N  
HETATM   17  C   UNL     1      -7.035   5.869  71.948  1.00  0.00    -0.081 C  
HETATM   18  O   UNL     1      -6.389   6.650  72.637  1.00  0.00    -0.053 OA 
HETATM   19  H   UNL     1      -7.679   5.226  70.094  1.00  0.00     0.000 HD 
BRANCH  17  20
HETATM   20  C   UNL     1      -7.735   4.740  72.605  1.00  0.00    -0.092 A  
HETATM   21  C   UNL     1      -7.217   4.276  73.827  1.00  0.00    -0.067 A  
HETATM   22  H   UNL     1     -10.762   1.490  72.565  1.00  0.00     0.000 HD 
HETATM   23  C   UNL     1      -8.841   4.108  71.996  1.00  0.00    -0.135 A  
HETATM   24  C   UNL     1      -9.372   2.985  72.646  1.00  0.00    -0.101 A  
HETATM   25  C   UNL     1      -7.799   3.191  74.468  1.00  0.00    -0.061 A  
HETATM   26  C   UNL     1      -9.465   4.588  70.709  1.00  0.00    -0.238 C  
HETATM   27  O   UNL     1     -10.403   2.251  72.125  1.00  0.00    -0.152 OA 
HETATM   28  C   UNL     1      -8.875   2.542  73.871  1.00  0.00    -0.074 A  
ENDBRANCH  17  20
ENDBRANCH  15  16
BRANCH  15  29
HETATM   29  C   UNL     1      -5.703   6.377  68.543  1.00  0.00    -0.019 C  
BRANCH  29  30
HETATM   30  S   UNL     1      -5.899   4.576  68.278  1.00  0.00    -0.026 SA 
BRANCH  30  31
HETATM   31  C   UNL     1      -6.230   4.422  66.538  1.00  0.00    -0.032 A  
HETATM   32  C   UNL     1      -7.308   5.402  64.591  1.00  0.00    -0.064 A  
HETATM   33  C   UNL     1      -7.090   5.371  65.969  1.00  0.00    -0.068 A  
HETATM   34  C   UNL     1      -5.813   3.528  64.325  1.00  0.00    -0.014 A  
HETATM   35  C   UNL     1      -6.662   4.482  63.768  1.00  0.00    -0.043 A  
HETATM   36  C   UNL     1      -5.597   3.497  65.706  1.00  0.00    -0.018 A  
ENDBRANCH  30  31
ENDBRANCH  29  30
ENDBRANCH  15  29
ENDBRANCH  12  15
ENDBRANCH  11  12
ENDBRANCH   8  11
BRANCH   9  37
HETATM   37  C   UNL     1     -10.643   9.792  68.848  1.00  0.00    -0.218 C  
HETATM   38  C   UNL     1     -10.964  12.919  68.747  1.00  0.00    -0.292 C  
HETATM   39  O   UNL     1     -11.727   9.864  68.272  1.00  0.00     0.030 OA 
HETATM   40  C   UNL     1      -8.543  12.841  68.173  1.00  0.00    -0.185 C  
HETATM   41  C   UNL     1      -9.873  12.074  68.076  1.00  0.00    -0.199 C  
HETATM   42  N   UNL     1      -9.688  10.793  68.770  1.00  0.00    -0.185 N  
HETATM   43  C   UNL     1     -10.211  11.871  66.592  1.00  0.00    -0.236 C  
HETATM   44  H   UNL     1      -8.792  10.628  69.229  1.00  0.00     0.000 HD 
ENDBRANCH   9  37
TORSDOF 9
ENDMDL
MODEL      244
REMARK 921   NORMALIZED FREE ENERGY PREDICTED BY IDOCK:   -2.50 KCAL/MOL
REMARK 922        TOTAL FREE ENERGY PREDICTED BY IDOCK:   -6.65 KCAL/MOL
REMARK 923 INTER-LIGAND FREE ENERGY PREDICTED BY IDOCK:   -5.88 KCAL/MOL
REMARK 924 INTRA-LIGAND FREE ENERGY PREDICTED BY IDOCK:   -0.77 KCAL/MOL
REMARK 927      BINDING AFFINITY PREDICTED BY RF-SCORE:    0.00 PKD
ROOT
HETATM    1  C   UNL     1     -11.110  12.579  64.263  1.00  0.00    -0.403 C  
HETATM    2  C   UNL     1     -12.102  13.555  63.622  1.00  0.00    -0.459 C  
HETATM    3  C   UNL     1     -12.552  14.631  64.603  1.00  0.00    -0.173 C  
HETATM    4  C   UNL     1     -13.189  14.008  65.838  1.00  0.00     0.290 C  
HETATM    5  C   UNL     1     -12.291  12.976  66.518  1.00  0.00    -0.175 C  
HETATM    6  C   UNL     1     -11.657  11.962  65.551  1.00  0.00    -0.281 C  
HETATM    7  C   UNL     1     -10.550  11.117  66.205  1.00  0.00    -0.253 C  
HETATM    8  N   UNL     1      -9.384  11.888  66.649  1.00  0.00    -0.200 NA 
HETATM    9  C   UNL     1      -8.921  12.916  65.699  1.00  0.00     0.670 C  
HETATM   10  C   UNL     1      -9.721  13.212  64.416  1.00  0.00     0.279 C  
ENDROOT
BRANCH   8  11
HETATM   11  C   UNL     1      -8.293  10.985  67.096  1.00  0.00    -0.132 C  
BRANCH  11  12
HETATM   12  C   UNL     1      -8.363  10.336  68.518  1.00  0.00    -0.116 C  
HETATM   13  H   UNL     1      -8.089  10.900  70.409  1.00  0.00     0.000 HD 
HETATM   14  O   UNL     1      -8.047  11.294  69.546  1.00  0.00     0.126 OA 
BRANCH  12  15
HETATM   15  C   UNL     1      -9.704   9.616  68.824  1.00  0.00    -0.163 C  
BRANCH  15  16
HETATM   16  N   UNL     1      -9.564   8.165  68.998  1.00  0.00    -0.155 N  
HETATM   17  C   UNL     1      -9.669   7.266  67.962  1.00  0.00    -0.141 C  
HETATM   18  O   UNL     1      -9.901   7.573  66.798  1.00  0.00    -0.201 OA 
HETATM   19  H   UNL     1      -9.379   7.805  69.934  1.00  0.00     0.000 HD 
BRANCH  17  20
HETATM   20  C   UNL     1      -9.540   5.832  68.315  1.00  0.00    -0.139 A  
HETATM   21  C   UNL     1      -9.415   4.911  67.259  1.00  0.00    -0.157 A  
HETATM   22  H   UNL     1      -9.677   2.530  71.282  1.00  0.00     0.000 HD 
HETATM   23  C   UNL     1      -9.607   5.397  69.656  1.00  0.00    -0.217 A  
HETATM   24  C   UNL     1      -9.578   4.013  69.881  1.00  0.00    -0.211 A  
HETATM   25  C   UNL     1      -9.339   3.549  67.522  1.00  0.00    -0.249 A  
HETATM   26  C   UNL     1      -9.698   6.340  70.830  1.00  0.00    -0.202 C  
HETATM   27  O   UNL     1      -9.697   3.467  71.130  1.00  0.00    -0.173 OA 
HETATM   28  C   UNL     1      -9.426   3.102  68.837  1.00  0.00    -0.183 A  
ENDBRANCH  17  20
ENDBRANCH  15  16
BRANCH  15  29
HETATM   29  C   UNL     1     -10.514  10.284  69.975  1.00  0.00    -0.241 C  
BRANCH  29  30
HETATM   30  S   UNL     1     -12.149  10.962  69.507  1.00  0.00    -0.249 SA 
BRANCH  30  31
HETATM   31  C   UNL     1     -12.382  12.341  70.604  1.00  0.00    -0.286 A  
HETATM   32  C   UNL     1     -11.618  14.555  71.259  1.00  0.00    -0.174 A  
HETATM   33  C   UNL     1     -11.445  13.380  70.526  1.00  0.00     0.250 A  
HETATM   34  C   UNL     1     -13.668  13.670  72.170  1.00  0.00    -0.649 A  
HETATM   35  C   UNL     1     -12.735  14.702  72.077  1.00  0.00    -0.405 A  
HETATM   36  C   UNL     1     -13.492  12.493  71.436  1.00  0.00     0.116 A  
ENDBRANCH  30  31
ENDBRANCH  29  30
ENDBRANCH  15  29
ENDBRANCH  12  15
ENDBRANCH  11  12
ENDBRANCH   8  11
BRANCH   9  37
HETATM   37  C   UNL     1      -8.706  14.259  66.467  1.00  0.00     0.023 C  
HETATM   38  C   UNL     1      -8.179  15.625  69.250  1.00  0.00    -0.253 C  
HETATM   39  O   UNL     1      -9.430  15.245  66.346  1.00  0.00    -0.255 OA 
HETATM   40  C   UNL     1      -5.824  14.964  68.782  1.00  0.00    -0.085 C  
HETATM   41  C   UNL     1      -7.159  15.368  68.132  1.00  0.00    -0.121 C  
HETATM   42  N   UNL     1      -7.580  14.252  67.273  1.00  0.00    -0.319 N  
HETATM   43  C   UNL     1      -6.938  16.654  67.324  1.00  0.00    -0.211 C  
HETATM   44  H   UNL     1      -7.001  13.412  67.271  1.00  0.00     0.000 HD 
ENDBRANCH   9  37
TORSDOF 9
ENDMDL
MODEL      245
REMARK 921   NORMALIZED FREE ENERGY PREDICTED BY IDOCK:   -2.48 KCAL/MOL
REMARK 922        TOTAL FREE ENERGY PREDICTED BY IDOCK:   -6.63 KCAL/MOL
REMARK 923 INTER-LIGAND FREE ENERGY PREDICTED BY IDOCK:   -5.59 KCAL/MOL
REMARK 924 INTRA-LIGAND FREE ENERGY PREDICTED BY IDOCK:   -1.03 KCAL/MOL
REMARK 927      BINDING AFFINITY PREDICTED BY RF-SCORE:    0.00 PKD
ROOT
HETATM    1  C   UNL     1      -9.888  13.613  65.342  1.00  0.00    -0.153 C  
HETATM    2  C   UNL     1     -10.697  14.733  64.679  1.00  0.00    -0.279 C  
HETATM    3  C   UNL     1     -12.138  14.761  65.173  1.00  0.00    -0.240 C  
HETATM    4  C   UNL     1     -12.826  13.427  64.917  1.00  0.00    -0.292 C  
HETATM    5  C   UNL     1     -12.061  12.239  65.498  1.00  0.00    -0.326 C  
HETATM    6  C   UNL     1     -10.557  12.247  65.183  1.00  0.00    -0.320 C  
HETATM    7  C   UNL     1      -9.765  11.210  65.999  1.00  0.00    -0.226 C  
HETATM    8  N   UNL     1      -9.776  11.444  67.447  1.00  0.00    -0.180 NA 
HETATM    9  C   UNL     1      -9.587  12.850  67.851  1.00  0.00    -0.215 C  
HETATM   10  C   UNL     1      -9.527  13.966  66.790  1.00  0.00    -0.287 C  
ENDROOT
BRANCH   8  11
HETATM   11  C   UNL     1      -8.845  10.517  68.140  1.00  0.00    -0.134 C  
BRANCH  11  12
HETATM   12  C   UNL     1      -8.463   9.159  67.462  1.00  0.00    -0.116 C  
HETATM   13  H   UNL     1      -7.458   8.548  65.854  1.00  0.00     0.000 HD 
HETATM   14  O   UNL     1      -7.690   9.372  66.266  1.00  0.00    -0.096 OA 
BRANCH  12  15
HETATM   15  C   UNL     1      -7.756   8.152  68.408  1.00  0.00    -0.113 C  
BRANCH  15  16
HETATM   16  N   UNL     1      -8.686   7.375  69.237  1.00  0.00    -0.137 N  
HETATM   17  C   UNL     1      -8.674   7.400  70.612  1.00  0.00    -0.142 C  
HETATM   18  O   UNL     1      -7.888   8.055  71.287  1.00  0.00    -0.082 OA 
HETATM   19  H   UNL     1      -9.375   6.787  68.769  1.00  0.00     0.000 HD 
BRANCH  17  20
HETATM   20  C   UNL     1      -9.655   6.526  71.298  1.00  0.00    -0.175 A  
HETATM   21  C   UNL     1      -9.238   5.229  71.649  1.00  0.00    -0.170 A  
HETATM   22  H   UNL     1     -13.781   5.659  72.693  1.00  0.00     0.000 HD 
HETATM   23  C   UNL     1     -10.981   6.953  71.533  1.00  0.00    -0.268 A  
HETATM   24  C   UNL     1     -11.862   6.018  72.095  1.00  0.00    -0.247 A  
HETATM   25  C   UNL     1     -10.125   4.346  72.250  1.00  0.00    -0.253 A  
HETATM   26  C   UNL     1     -11.471   8.343  71.217  1.00  0.00    -0.325 C  
HETATM   27  O   UNL     1     -13.184   6.292  72.313  1.00  0.00     0.002 OA 
HETATM   28  C   UNL     1     -11.440   4.743  72.467  1.00  0.00     0.069 A  
ENDBRANCH  17  20
ENDBRANCH  15  16
BRANCH  15  29
HETATM   29  C   UNL     1      -6.705   7.259  67.684  1.00  0.00    -0.065 C  
BRANCH  29  30
HETATM   30  S   UNL     1      -7.328   5.663  67.038  1.00  0.00    -0.080 SA 
BRANCH  30  31
HETATM   31  C   UNL     1      -6.621   5.542  65.412  1.00  0.00    -0.040 A  
HETATM   32  C   UNL     1      -6.291   4.144  63.449  1.00  0.00    -0.022 A  
HETATM   33  C   UNL     1      -6.708   4.298  64.772  1.00  0.00    -0.045 A  
HETATM   34  C   UNL     1      -5.684   6.477  63.383  1.00  0.00    -0.030 A  
HETATM   35  C   UNL     1      -5.785   5.238  62.752  1.00  0.00    -0.014 A  
HETATM   36  C   UNL     1      -6.101   6.629  64.709  1.00  0.00    -0.035 A  
ENDBRANCH  30  31
ENDBRANCH  29  30
ENDBRANCH  15  29
ENDBRANCH  12  15
ENDBRANCH  11  12
ENDBRANCH   8  11
BRANCH   9  37
HETATM   37  C   UNL     1     -10.676  13.228  68.904  1.00  0.00    -0.184 C  
HETATM   38  C   UNL     1     -11.295  14.696  71.615  1.00  0.00     0.141 C  
HETATM   39  O   UNL     1     -11.474  12.428  69.387  1.00  0.00    -0.272 OA 
HETATM   40  C   UNL     1     -11.320  16.716  70.161  1.00  0.00     0.097 C  
HETATM   41  C   UNL     1     -11.587  15.202  70.196  1.00  0.00    -0.292 C  
HETATM   42  N   UNL     1     -10.691  14.579  69.213  1.00  0.00    -0.290 N  
HETATM   43  C   UNL     1     -13.064  14.960  69.852  1.00  0.00     0.246 C  
HETATM   44  H   UNL     1     -10.032  15.183  68.723  1.00  0.00     0.000 HD 
ENDBRANCH   9  37
TORSDOF 9
ENDMDL
MODEL      246
REMARK 921   NORMALIZED FREE ENERGY PREDICTED BY IDOCK:   -2.46 KCAL/MOL
REMARK 922        TOTAL FREE ENERGY PREDICTED BY IDOCK:   -6.59 KCAL/MOL
REMARK 923 INTER-LIGAND FREE ENERGY PREDICTED BY IDOCK:   -5.47 KCAL/MOL
REMARK 924 INTRA-LIGAND FREE ENERGY PREDICTED BY IDOCK:   -1.12 KCAL/MOL
REMARK 927      BINDING AFFINITY PREDICTED BY RF-SCORE:    0.00 PKD
ROOT
HETATM    1  C   UNL     1     -10.545   9.763  66.826  1.00  0.00    -0.208 C  
HETATM    2  C   UNL     1     -10.628  10.799  65.701  1.00  0.00    -0.199 C  
HETATM    3  C   UNL     1      -9.768  12.023  65.992  1.00  0.00    -0.256 C  
HETATM    4  C   UNL     1     -10.179  12.677  67.304  1.00  0.00    -0.227 C  
HETATM    5  C   UNL     1     -10.180  11.703  68.482  1.00  0.00    -0.216 C  
HETATM    6  C   UNL     1     -10.881  10.367  68.192  1.00  0.00    -0.311 C  
HETATM    7  C   UNL     1     -10.630   9.306  69.277  1.00  0.00    -0.222 C  
HETATM    8  N   UNL     1      -9.228   8.894  69.407  1.00  0.00    -0.145 NA 
HETATM    9  C   UNL     1      -8.524   8.676  68.130  1.00  0.00    -0.131 C  
HETATM   10  C   UNL     1      -9.212   9.004  66.792  1.00  0.00    -0.198 C  
ENDROOT
BRANCH   8  11
HETATM   11  C   UNL     1      -9.099   7.745  70.339  1.00  0.00    -0.155 C  
BRANCH  11  12
HETATM   12  C   UNL     1      -9.817   6.395  70.003  1.00  0.00    -0.168 C  
HETATM   13  H   UNL     1     -11.222   5.748  68.747  1.00  0.00     0.000 HD 
HETATM   14  O   UNL     1     -10.786   6.567  68.951  1.00  0.00    -0.221 OA 
BRANCH  12  15
HETATM   15  C   UNL     1      -8.851   5.223  69.681  1.00  0.00    -0.107 C  
BRANCH  15  16
HETATM   16  N   UNL     1      -8.372   5.223  68.293  1.00  0.00    -0.097 N  
HETATM   17  C   UNL     1      -8.807   4.327  67.344  1.00  0.00    -0.110 C  
HETATM   18  O   UNL     1      -9.621   3.436  67.553  1.00  0.00    -0.208 OA 
HETATM   19  H   UNL     1      -7.682   5.922  68.019  1.00  0.00     0.000 HD 
BRANCH  17  20
HETATM   20  C   UNL     1      -8.195   4.439  65.999  1.00  0.00    -0.109 A  
HETATM   21  C   UNL     1      -8.782   5.337  65.089  1.00  0.00    -0.146 A  
HETATM   22  H   UNL     1      -5.351   3.031  62.891  1.00  0.00     0.000 HD 
HETATM   23  C   UNL     1      -7.103   3.628  65.619  1.00  0.00    -0.066 A  
HETATM   24  C   UNL     1      -6.659   3.735  64.293  1.00  0.00    -0.042 A  
HETATM   25  C   UNL     1      -8.283   5.453  63.798  1.00  0.00    -0.122 A  
HETATM   26  C   UNL     1      -6.407   2.680  66.563  1.00  0.00    -0.025 C  
HETATM   27  O   UNL     1      -5.651   2.959  63.789  1.00  0.00    -0.009 OA 
HETATM   28  C   UNL     1      -7.223   4.644  63.400  1.00  0.00    -0.049 A  
ENDBRANCH  17  20
ENDBRANCH  15  16
BRANCH  15  29
HETATM   29  C   UNL     1      -7.696   5.074  70.716  1.00  0.00    -0.078 C  
BRANCH  29  30
HETATM   30  S   UNL     1      -8.145   5.393  72.461  1.00  0.00    -0.103 SA 
BRANCH  30  31
HETATM   31  C   UNL     1      -9.110   3.976  72.931  1.00  0.00    -0.107 A  
HETATM   32  C   UNL     1     -11.265   3.166  73.714  1.00  0.00    -0.245 A  
HETATM   33  C   UNL     1     -10.394   4.220  73.437  1.00  0.00    -0.236 A  
HETATM   34  C   UNL     1      -9.579   1.600  72.992  1.00  0.00    -0.113 A  
HETATM   35  C   UNL     1     -10.858   1.854  73.484  1.00  0.00    -0.252 A  
HETATM   36  C   UNL     1      -8.707   2.657  72.716  1.00  0.00    -0.077 A  
ENDBRANCH  30  31
ENDBRANCH  29  30
ENDBRANCH  15  29
ENDBRANCH  12  15
ENDBRANCH  11  12
ENDBRANCH   8  11
BRANCH   9  37
HETATM   37  C   UNL     1      -7.150   9.417  68.173  1.00  0.00    -0.076 C  
HETATM   38  C   UNL     1      -5.385  11.725  66.971  1.00  0.00    -0.122 C  
HETATM   39  O   UNL     1      -6.060   8.850  68.161  1.00  0.00    -0.049 OA 
HETATM   40  C   UNL     1      -6.737  13.143  68.507  1.00  0.00    -0.092 C  
HETATM   41  C   UNL     1      -6.149  11.736  68.302  1.00  0.00    -0.049 C  
HETATM   42  N   UNL     1      -7.276  10.793  68.277  1.00  0.00    -0.081 N  
HETATM   43  C   UNL     1      -5.184  11.438  69.458  1.00  0.00    -0.045 C  
HETATM   44  H   UNL     1      -8.217  11.178  68.341  1.00  0.00     0.000 HD 
ENDBRANCH   9  37
TORSDOF 9
ENDMDL
MODEL      247
REMARK 921   NORMALIZED FREE ENERGY PREDICTED BY IDOCK:   -2.42 KCAL/MOL
REMARK 922        TOTAL FREE ENERGY PREDICTED BY IDOCK:   -6.53 KCAL/MOL
REMARK 923 INTER-LIGAND FREE ENERGY PREDICTED BY IDOCK:   -4.24 KCAL/MOL
REMARK 924 INTRA-LIGAND FREE ENERGY PREDICTED BY IDOCK:   -2.29 KCAL/MOL
REMARK 927      BINDING AFFINITY PREDICTED BY RF-SCORE:    0.00 PKD
ROOT
HETATM    1  C   UNL     1      -7.342  12.334  67.933  1.00  0.00    -0.111 C  
HETATM    2  C   UNL     1      -8.200  13.598  67.819  1.00  0.00    -0.179 C  
HETATM    3  C   UNL     1      -9.650  13.271  67.481  1.00  0.00    -0.218 C  
HETATM    4  C   UNL     1      -9.741  12.486  66.180  1.00  0.00    -0.259 C  
HETATM    5  C   UNL     1      -8.871  11.229  66.178  1.00  0.00    -0.194 C  
HETATM    6  C   UNL     1      -7.437  11.458  66.683  1.00  0.00    -0.110 C  
HETATM    7  C   UNL     1      -6.672  10.148  66.937  1.00  0.00    -0.079 C  
HETATM    8  N   UNL     1      -7.241   9.312  68.000  1.00  0.00    -0.078 NA 
HETATM    9  C   UNL     1      -7.664  10.045  69.207  1.00  0.00    -0.117 C  
HETATM   10  C   UNL     1      -7.620  11.585  69.242  1.00  0.00     0.075 C  
ENDROOT
BRANCH   8  11
HETATM   11  C   UNL     1      -6.347   8.167  68.307  1.00  0.00    -0.051 C  
BRANCH  11  12
HETATM   12  C   UNL     1      -6.402   6.884  67.412  1.00  0.00    -0.045 C  
HETATM   13  H   UNL     1      -5.193   5.903  66.170  1.00  0.00     0.000 HD 
HETATM   14  O   UNL     1      -5.159   6.681  66.713  1.00  0.00    -0.008 OA 
BRANCH  12  15
HETATM   15  C   UNL     1      -6.828   5.598  68.169  1.00  0.00    -0.060 C  
BRANCH  15  16
HETATM   16  N   UNL     1      -7.779   5.848  69.260  1.00  0.00    -0.092 N  
HETATM   17  C   UNL     1      -7.672   5.269  70.504  1.00  0.00    -0.079 C  
HETATM   18  O   UNL     1      -6.791   4.481  70.828  1.00  0.00    -0.034 OA 
HETATM   19  H   UNL     1      -8.558   6.483  69.087  1.00  0.00     0.000 HD 
BRANCH  17  20
HETATM   20  C   UNL     1      -8.737   5.597  71.480  1.00  0.00    -0.133 A  
HETATM   21  C   UNL     1      -9.946   4.883  71.390  1.00  0.00    -0.266 A  
HETATM   22  H   UNL     1     -10.407   8.166  74.696  1.00  0.00     0.000 HD 
HETATM   23  C   UNL     1      -8.574   6.634  72.424  1.00  0.00    -0.124 A  
HETATM   24  C   UNL     1      -9.675   6.938  73.237  1.00  0.00    -0.185 A  
HETATM   25  C   UNL     1     -10.999   5.177  72.245  1.00  0.00    -0.209 A  
HETATM   26  C   UNL     1      -7.288   7.404  72.595  1.00  0.00    -0.082 C  
HETATM   27  O   UNL     1      -9.661   7.960  74.146  1.00  0.00     0.051 OA 
HETATM   28  C   UNL     1     -10.863   6.211  73.166  1.00  0.00    -0.279 A  
ENDBRANCH  17  20
ENDBRANCH  15  16
BRANCH  15  29
HETATM   29  C   UNL     1      -7.288   4.449  67.223  1.00  0.00    -0.073 C  
BRANCH  29  30
HETATM   30  S   UNL     1      -7.973   4.975  65.609  1.00  0.00    -0.110 SA 
BRANCH  30  31
HETATM   31  C   UNL     1      -9.201   6.189  66.029  1.00  0.00    -0.095 A  
HETATM   32  C   UNL     1     -11.285   6.637  67.199  1.00  0.00    -0.306 A  
HETATM   33  C   UNL     1     -10.333   5.736  66.721  1.00  0.00    -0.312 A  
HETATM   34  C   UNL     1      -9.998   8.462  66.292  1.00  0.00    -0.216 A  
HETATM   35  C   UNL     1     -11.114   8.003  66.989  1.00  0.00     0.408 A  
HETATM   36  C   UNL     1      -9.044   7.559  65.812  1.00  0.00    -0.020 A  
ENDBRANCH  30  31
ENDBRANCH  29  30
ENDBRANCH  15  29
ENDBRANCH  12  15
ENDBRANCH  11  12
ENDBRANCH   8  11
BRANCH   9  37
HETATM   37  C   UNL     1      -9.102   9.584  69.605  1.00  0.00    -0.196 C  
HETATM   38  C   UNL     1     -11.460   9.856  71.668  1.00  0.00    -0.181 C  
HETATM   39  O   UNL     1      -9.459   8.409  69.657  1.00  0.00    -0.164 OA 
HETATM   40  C   UNL     1     -11.967  11.907  70.351  1.00  0.00    -0.400 C  
HETATM   41  C   UNL     1     -11.365  10.494  70.275  1.00  0.00    -0.327 C  
HETATM   42  N   UNL     1      -9.966  10.639  69.850  1.00  0.00    -0.409 N  
HETATM   43  C   UNL     1     -12.181   9.670  69.269  1.00  0.00     1.032 C  
HETATM   44  H   UNL     1      -9.604  11.585  69.726  1.00  0.00     0.000 HD 
ENDBRANCH   9  37
TORSDOF 9
ENDMDL
MODEL      248
REMARK 921   NORMALIZED FREE ENERGY PREDICTED BY IDOCK:   -2.38 KCAL/MOL
REMARK 922        TOTAL FREE ENERGY PREDICTED BY IDOCK:   -6.47 KCAL/MOL
REMARK 923 INTER-LIGAND FREE ENERGY PREDICTED BY IDOCK:   -4.01 KCAL/MOL
REMARK 924 INTRA-LIGAND FREE ENERGY PREDICTED BY IDOCK:   -2.46 KCAL/MOL
REMARK 927      BINDING AFFINITY PREDICTED BY RF-SCORE:    0.00 PKD
ROOT
HETATM    1  C   UNL     1     -10.526   7.714  68.660  1.00  0.00    -0.203 C  
HETATM    2  C   UNL     1     -11.686   6.923  69.275  1.00  0.00     0.132 C  
HETATM    3  C   UNL     1     -12.384   7.708  70.379  1.00  0.00     0.292 C  
HETATM    4  C   UNL     1     -11.403   8.092  71.478  1.00  0.00    -0.308 C  
HETATM    5  C   UNL     1     -10.180   8.841  70.951  1.00  0.00    -0.284 C  
HETATM    6  C   UNL     1      -9.530   8.193  69.718  1.00  0.00    -0.159 C  
HETATM    7  C   UNL     1      -8.487   9.098  69.040  1.00  0.00    -0.132 C  
HETATM    8  N   UNL     1      -9.034  10.339  68.481  1.00  0.00    -0.129 NA 
HETATM    9  C   UNL     1     -10.308  10.184  67.755  1.00  0.00    -0.210 C  
HETATM   10  C   UNL     1     -11.035   8.825  67.734  1.00  0.00     0.063 C  
ENDROOT
BRANCH   8  11
HETATM   11  C   UNL     1      -8.006  11.062  67.690  1.00  0.00    -0.115 C  
BRANCH  11  12
HETATM   12  C   UNL     1      -6.536  11.136  68.222  1.00  0.00    -0.057 C  
HETATM   13  H   UNL     1      -4.713  11.426  67.473  1.00  0.00     0.000 HD 
HETATM   14  O   UNL     1      -5.605  11.382  67.151  1.00  0.00    -0.061 OA 
BRANCH  12  15
HETATM   15  C   UNL     1      -6.328  12.147  69.381  1.00  0.00    -0.116 C  
BRANCH  15  16
HETATM   16  N   UNL     1      -6.990  13.438  69.157  1.00  0.00    -0.227 N  
HETATM   17  C   UNL     1      -6.599  14.330  68.185  1.00  0.00    -0.130 C  
HETATM   18  O   UNL     1      -5.660  14.151  67.418  1.00  0.00    -0.345 OA 
HETATM   19  H   UNL     1      -7.780  13.687  69.752  1.00  0.00     0.000 HD 
BRANCH  17  20
HETATM   20  C   UNL     1      -7.350  15.606  68.117  1.00  0.00    -0.123 A  
HETATM   21  C   UNL     1      -7.012  16.610  69.043  1.00  0.00    -0.212 A  
HETATM   22  H   UNL     1     -10.696  18.071  66.550  1.00  0.00     0.000 HD 
HETATM   23  C   UNL     1      -8.410  15.787  67.202  1.00  0.00    -0.231 A  
HETATM   24  C   UNL     1      -9.126  16.990  67.284  1.00  0.00    -0.223 A  
HETATM   25  C   UNL     1      -7.710  17.810  69.062  1.00  0.00    -0.126 A  
HETATM   26  C   UNL     1      -8.789  14.764  66.160  1.00  0.00     0.077 C  
HETATM   27  O   UNL     1     -10.211  17.256  66.495  1.00  0.00    -0.308 OA 
HETATM   28  C   UNL     1      -8.773  17.995  68.183  1.00  0.00    -0.277 A  
ENDBRANCH  17  20
ENDBRANCH  15  16
BRANCH  15  29
HETATM   29  C   UNL     1      -6.637  11.548  70.785  1.00  0.00     1.131 C  
BRANCH  29  30
HETATM   30  S   UNL     1      -5.257  10.655  71.590  1.00  0.00     0.065 SA 
BRANCH  30  31
HETATM   31  C   UNL     1      -5.737   8.946  71.514  1.00  0.00    -0.054 A  
HETATM   32  C   UNL     1      -7.343   7.263  72.223  1.00  0.00    -0.072 A  
HETATM   33  C   UNL     1      -6.820   8.553  72.313  1.00  0.00    -0.093 A  
HETATM   34  C   UNL     1      -5.703   6.728  70.539  1.00  0.00    -0.023 A  
HETATM   35  C   UNL     1      -6.787   6.351  71.330  1.00  0.00    -0.067 A  
HETATM   36  C   UNL     1      -5.179   8.021  70.630  1.00  0.00    -0.023 A  
ENDBRANCH  30  31
ENDBRANCH  29  30
ENDBRANCH  15  29
ENDBRANCH  12  15
ENDBRANCH  11  12
ENDBRANCH   8  11
BRANCH   9  37
HETATM   37  C   UNL     1     -11.312  11.273  68.248  1.00  0.00    -0.289 C  
HETATM   38  C   UNL     1     -12.235  13.085  70.647  1.00  0.00    -0.390 C  
HETATM   39  O   UNL     1     -12.529  11.212  68.089  1.00  0.00    -0.202 OA 
HETATM   40  C   UNL     1     -10.322  14.499  69.914  1.00  0.00     0.205 C  
HETATM   41  C   UNL     1     -11.393  13.506  69.435  1.00  0.00    -0.233 C  
HETATM   42  N   UNL     1     -10.690  12.356  68.849  1.00  0.00    -0.354 N  
HETATM   43  C   UNL     1     -12.285  14.211  68.402  1.00  0.00    -0.200 C  
HETATM   44  H   UNL     1      -9.671  12.354  68.889  1.00  0.00     0.000 HD 
ENDBRANCH   9  37
TORSDOF 9
ENDMDL
MODEL      249
REMARK 921   NORMALIZED FREE ENERGY PREDICTED BY IDOCK:   -2.32 KCAL/MOL
REMARK 922        TOTAL FREE ENERGY PREDICTED BY IDOCK:   -6.37 KCAL/MOL
REMARK 923 INTER-LIGAND FREE ENERGY PREDICTED BY IDOCK:   -4.21 KCAL/MOL
REMARK 924 INTRA-LIGAND FREE ENERGY PREDICTED BY IDOCK:   -2.16 KCAL/MOL
REMARK 927      BINDING AFFINITY PREDICTED BY RF-SCORE:    0.00 PKD
ROOT
HETATM    1  C   UNL     1     -12.227  10.705  71.335  1.00  0.00    -0.405 C  
HETATM    2  C   UNL     1     -12.632   9.999  72.633  1.00  0.00     0.645 C  
HETATM    3  C   UNL     1     -13.063   8.559  72.385  1.00  0.00    -0.338 C  
HETATM    4  C   UNL     1     -14.224   8.500  71.401  1.00  0.00    -0.378 C  
HETATM    5  C   UNL     1     -13.932   9.228  70.090  1.00  0.00     1.558 C  
HETATM    6  C   UNL     1     -13.323  10.628  70.271  1.00  0.00     0.313 C  
HETATM    7  C   UNL     1     -12.783  11.224  68.959  1.00  0.00     0.851 C  
HETATM    8  N   UNL     1     -11.665  10.478  68.371  1.00  0.00    -0.363 NA 
HETATM    9  C   UNL     1     -10.643  10.029  69.335  1.00  0.00    -0.233 C  
HETATM   10  C   UNL     1     -10.851  10.234  70.847  1.00  0.00     0.005 C  
ENDROOT
BRANCH   8  11
HETATM   11  C   UNL     1     -11.086  11.214  67.219  1.00  0.00    -0.302 C  
BRANCH  11  12
HETATM   12  C   UNL     1      -9.643  11.811  67.332  1.00  0.00    -0.168 C  
HETATM   13  H   UNL     1      -8.012  11.941  66.196  1.00  0.00     0.000 HD 
HETATM   14  O   UNL     1      -8.887  11.580  66.128  1.00  0.00    -0.198 OA 
BRANCH  12  15
HETATM   15  C   UNL     1      -9.604  13.310  67.732  1.00  0.00    -0.214 C  
BRANCH  15  16
HETATM   16  N   UNL     1     -10.393  13.617  68.932  1.00  0.00    -0.397 N  
HETATM   17  C   UNL     1     -11.493  14.442  68.923  1.00  0.00    -0.289 C  
HETATM   18  O   UNL     1     -11.923  15.014  67.927  1.00  0.00    -0.291 OA 
HETATM   19  H   UNL     1     -10.110  13.196  69.817  1.00  0.00     0.000 HD 
BRANCH  17  20
HETATM   20  C   UNL     1     -12.154  14.678  70.228  1.00  0.00    -0.380 A  
HETATM   21  C   UNL     1     -13.389  14.044  70.456  1.00  0.00     0.154 A  
HETATM   22  H   UNL     1     -12.458  16.834  74.100  1.00  0.00     0.000 HD 
HETATM   23  C   UNL     1     -11.600  15.559  71.183  1.00  0.00    -0.446 A  
HETATM   24  C   UNL     1     -12.350  15.795  72.344  1.00  0.00    -0.456 A  
HETATM   25  C   UNL     1     -14.081  14.263  71.640  1.00  0.00    -0.471 A  
HETATM   26  C   UNL     1     -10.262  16.232  71.011  1.00  0.00     1.522 C  
HETATM   27  O   UNL     1     -11.950  16.673  73.313  1.00  0.00    -0.475 OA 
HETATM   28  C   UNL     1     -13.561  15.145  72.582  1.00  0.00    -0.594 A  
ENDBRANCH  17  20
ENDBRANCH  15  16
BRANCH  15  29
HETATM   29  C   UNL     1      -8.161  13.894  67.795  1.00  0.00    -0.172 C  
BRANCH  29  30
HETATM   30  S   UNL     1      -7.896  15.226  69.023  1.00  0.00    -0.200 SA 
BRANCH  30  31
HETATM   31  C   UNL     1      -8.030  16.726  68.079  1.00  0.00    -0.178 A  
HETATM   32  C   UNL     1      -8.691  17.733  65.967  1.00  0.00    -0.029 A  
HETATM   33  C   UNL     1      -8.440  16.602  66.744  1.00  0.00    -0.270 A  
HETATM   34  C   UNL     1      -8.120  19.135  67.843  1.00  0.00    -0.323 A  
HETATM   35  C   UNL     1      -8.538  19.002  66.520  1.00  0.00    -0.316 A  
HETATM   36  C   UNL     1      -7.867  18.001  68.621  1.00  0.00    -0.298 A  
ENDBRANCH  30  31
ENDBRANCH  29  30
ENDBRANCH  15  29
ENDBRANCH  12  15
ENDBRANCH  11  12
ENDBRANCH   8  11
BRANCH   9  37
HETATM   37  C   UNL     1     -10.329   8.521  69.079  1.00  0.00    -0.216 C  
HETATM   38  C   UNL     1      -9.672   6.312  66.940  1.00  0.00    -0.184 C  
HETATM   39  O   UNL     1     -10.989   7.593  69.541  1.00  0.00    -0.204 OA 
HETATM   40  C   UNL     1      -7.372   7.248  67.130  1.00  0.00    -0.094 C  
HETATM   41  C   UNL     1      -8.688   7.008  67.890  1.00  0.00    -0.125 C  
HETATM   42  N   UNL     1      -9.193   8.322  68.312  1.00  0.00    -0.135 N  
HETATM   43  C   UNL     1      -8.396   6.100  69.094  1.00  0.00    -0.116 C  
HETATM   44  H   UNL     1      -8.670   9.147  68.018  1.00  0.00     0.000 HD 
ENDBRANCH   9  37
TORSDOF 9
ENDMDL
MODEL      250
REMARK 921   NORMALIZED FREE ENERGY PREDICTED BY IDOCK:   -2.31 KCAL/MOL
REMARK 922        TOTAL FREE ENERGY PREDICTED BY IDOCK:   -6.36 KCAL/MOL
REMARK 923 INTER-LIGAND FREE ENERGY PREDICTED BY IDOCK:   -6.12 KCAL/MOL
REMARK 924 INTRA-LIGAND FREE ENERGY PREDICTED BY IDOCK:   -0.24 KCAL/MOL
REMARK 927      BINDING AFFINITY PREDICTED BY RF-SCORE:    0.00 PKD
ROOT
HETATM    1  C   UNL     1      -8.796  11.026  66.767  1.00  0.00    -0.158 C  
HETATM    2  C   UNL     1      -8.479  12.489  67.093  1.00  0.00    -0.186 C  
HETATM    3  C   UNL     1      -9.537  13.111  67.996  1.00  0.00    -0.220 C  
HETATM    4  C   UNL     1     -10.916  13.029  67.354  1.00  0.00    -0.284 C  
HETATM    5  C   UNL     1     -11.299  11.608  66.943  1.00  0.00    -0.364 C  
HETATM    6  C   UNL     1     -10.198  10.857  66.178  1.00  0.00    -0.304 C  
HETATM    7  C   UNL     1     -10.490   9.355  66.021  1.00  0.00     0.159 C  
HETATM    8  N   UNL     1     -10.545   8.613  67.285  1.00  0.00    -0.281 NA 
HETATM    9  C   UNL     1      -9.486   8.957  68.253  1.00  0.00    -0.140 C  
HETATM   10  C   UNL     1      -8.507  10.111  67.963  1.00  0.00    -0.118 C  
ENDROOT
BRANCH   8  11
HETATM   11  C   UNL     1     -10.646   7.153  67.038  1.00  0.00    -0.343 C  
BRANCH  11  12
HETATM   12  C   UNL     1     -10.025   6.151  68.068  1.00  0.00    -0.141 C  
HETATM   13  H   UNL     1     -10.277   4.250  68.608  1.00  0.00     0.000 HD 
HETATM   14  O   UNL     1     -10.653   4.858  67.983  1.00  0.00     0.028 OA 
BRANCH  12  15
HETATM   15  C   UNL     1      -8.481   6.025  67.982  1.00  0.00    -0.115 C  
BRANCH  15  16
HETATM   16  N   UNL     1      -7.807   6.175  69.278  1.00  0.00    -0.102 N  
HETATM   17  C   UNL     1      -8.066   5.369  70.363  1.00  0.00    -0.101 C  
HETATM   18  O   UNL     1      -8.885   4.458  70.369  1.00  0.00    -0.083 OA 
HETATM   19  H   UNL     1      -7.113   6.916  69.379  1.00  0.00     0.000 HD 
BRANCH  17  20
HETATM   20  C   UNL     1      -7.327   5.680  71.609  1.00  0.00    -0.091 A  
HETATM   21  C   UNL     1      -7.246   4.672  72.586  1.00  0.00    -0.082 A  
HETATM   22  H   UNL     1      -5.282   8.560  74.302  1.00  0.00     0.000 HD 
HETATM   23  C   UNL     1      -6.782   6.962  71.839  1.00  0.00    -0.057 A  
HETATM   24  C   UNL     1      -6.190   7.189  73.090  1.00  0.00    -0.057 A  
HETATM   25  C   UNL     1      -6.608   4.917  73.795  1.00  0.00    -0.064 A  
HETATM   26  C   UNL     1      -6.802   8.068  70.813  1.00  0.00    -0.037 C  
HETATM   27  O   UNL     1      -5.682   8.406  73.454  1.00  0.00    -0.068 OA 
HETATM   28  C   UNL     1      -6.086   6.181  74.047  1.00  0.00    -0.064 A  
ENDBRANCH  17  20
ENDBRANCH  15  16
BRANCH  15  29
HETATM   29  C   UNL     1      -8.008   4.762  67.202  1.00  0.00    -0.102 C  
BRANCH  29  30
HETATM   30  S   UNL     1      -8.460   4.707  65.428  1.00  0.00    -0.131 SA 
BRANCH  30  31
HETATM   31  C   UNL     1      -7.462   5.974  64.682  1.00  0.00    -0.080 A  
HETATM   32  C   UNL     1      -7.283   8.329  64.104  1.00  0.00    -0.089 A  
HETATM   33  C   UNL     1      -8.035   7.248  64.563  1.00  0.00    -0.112 A  
HETATM   34  C   UNL     1      -5.369   6.883  63.866  1.00  0.00    -0.028 A  
HETATM   35  C   UNL     1      -5.946   8.147  63.762  1.00  0.00    -0.066 A  
HETATM   36  C   UNL     1      -6.124   5.799  64.325  1.00  0.00    -0.025 A  
ENDBRANCH  30  31
ENDBRANCH  29  30
ENDBRANCH  15  29
ENDBRANCH  12  15
ENDBRANCH  11  12
ENDBRANCH   8  11
BRANCH   9  37
HETATM   37  C   UNL     1     -10.134   9.199  69.652  1.00  0.00    -0.198 C  
HETATM   38  C   UNL     1     -12.806   9.567  71.269  1.00  0.00    -0.414 C  
HETATM   39  O   UNL     1      -9.776  10.076  70.435  1.00  0.00    -0.173 OA 
HETATM   40  C   UNL     1     -12.864   7.081  71.144  1.00  0.00    -0.328 C  
HETATM   41  C   UNL     1     -11.935   8.306  71.188  1.00  0.00    -0.265 C  
HETATM   42  N   UNL     1     -11.135   8.290  69.955  1.00  0.00    -0.396 N  
HETATM   43  C   UNL     1     -11.051   8.203  72.439  1.00  0.00    -0.437 C  
HETATM   44  H   UNL     1     -11.330   7.557  69.273  1.00  0.00     0.000 HD 
ENDBRANCH   9  37
TORSDOF 9
ENDMDL
MODEL      251
REMARK 921   NORMALIZED FREE ENERGY PREDICTED BY IDOCK:   -2.22 KCAL/MOL
REMARK 922        TOTAL FREE ENERGY PREDICTED BY IDOCK:   -6.22 KCAL/MOL
REMARK 923 INTER-LIGAND FREE ENERGY PREDICTED BY IDOCK:   -6.99 KCAL/MOL
REMARK 924 INTRA-LIGAND FREE ENERGY PREDICTED BY IDOCK:    0.77 KCAL/MOL
REMARK 927      BINDING AFFINITY PREDICTED BY RF-SCORE:    0.00 PKD
ROOT
HETATM    1  C   UNL     1      -6.417  11.078  65.984  1.00  0.00    -0.046 C  
HETATM    2  C   UNL     1      -5.280  10.146  65.552  1.00  0.00    -0.063 C  
HETATM    3  C   UNL     1      -5.268   8.854  66.360  1.00  0.00    -0.034 C  
HETATM    4  C   UNL     1      -5.138   9.146  67.849  1.00  0.00    -0.034 C  
HETATM    5  C   UNL     1      -6.201  10.114  68.363  1.00  0.00    -0.048 C  
HETATM    6  C   UNL     1      -6.390  11.363  67.487  1.00  0.00    -0.069 C  
HETATM    7  C   UNL     1      -7.642  12.177  67.858  1.00  0.00    -0.123 C  
HETATM    8  N   UNL     1      -8.908  11.465  67.655  1.00  0.00    -0.137 NA 
HETATM    9  C   UNL     1      -8.997  10.703  66.396  1.00  0.00    -0.162 C  
HETATM   10  C   UNL     1      -7.774  10.582  65.467  1.00  0.00    -0.127 C  
ENDROOT
BRANCH   8  11
HETATM   11  C   UNL     1     -10.064  12.375  67.859  1.00  0.00    -0.208 C  
BRANCH  11  12
HETATM   12  C   UNL     1     -11.169  11.996  68.900  1.00  0.00    -0.261 C  
HETATM   13  H   UNL     1     -11.562  10.495  70.150  1.00  0.00     0.000 HD 
HETATM   14  O   UNL     1     -10.891  10.725  69.518  1.00  0.00    -0.225 OA 
BRANCH  12  15
HETATM   15  C   UNL     1     -11.435  13.087  69.972  1.00  0.00    -0.014 C  
BRANCH  15  16
HETATM   16  N   UNL     1     -10.980  14.424  69.572  1.00  0.00    -0.358 N  
HETATM   17  C   UNL     1     -11.284  14.994  68.357  1.00  0.00    -0.293 C  
HETATM   18  O   UNL     1     -11.949  14.450  67.483  1.00  0.00    -0.384 OA 
HETATM   19  H   UNL     1     -10.409  14.958  70.228  1.00  0.00     0.000 HD 
BRANCH  17  20
HETATM   20  C   UNL     1     -10.713  16.336  68.095  1.00  0.00    -0.322 A  
HETATM   21  C   UNL     1     -10.427  17.150  69.206  1.00  0.00    -0.267 A  
HETATM   22  H   UNL     1      -9.609  19.617  65.311  1.00  0.00     0.000 HD 
HETATM   23  C   UNL     1     -10.525  16.810  66.778  1.00  0.00    -0.258 A  
HETATM   24  C   UNL     1     -10.075  18.130  66.632  1.00  0.00    -0.373 A  
HETATM   25  C   UNL     1      -9.935  18.436  69.024  1.00  0.00    -0.304 A  
HETATM   26  C   UNL     1     -10.774  15.968  65.551  1.00  0.00    -0.374 C  
HETATM   27  O   UNL     1      -9.913  18.722  65.410  1.00  0.00    -0.205 OA 
HETATM   28  C   UNL     1      -9.766  18.926  67.734  1.00  0.00    -0.371 A  
ENDBRANCH  17  20
ENDBRANCH  15  16
BRANCH  15  29
HETATM   29  C   UNL     1     -12.899  13.084  70.505  1.00  0.00     0.079 C  
BRANCH  29  30
HETATM   30  S   UNL     1     -13.167  12.204  72.088  1.00  0.00    -0.117 SA 
BRANCH  30  31
HETATM   31  C   UNL     1     -13.188  10.486  71.636  1.00  0.00    -0.391 A  
HETATM   32  C   UNL     1     -11.950   8.393  71.585  1.00  0.00    -0.357 A  
HETATM   33  C   UNL     1     -11.992   9.771  71.797  1.00  0.00    -0.388 A  
HETATM   34  C   UNL     1     -14.298   8.417  71.038  1.00  0.00    -0.093 A  
HETATM   35  C   UNL     1     -13.107   7.714  71.212  1.00  0.00    -0.279 A  
HETATM   36  C   UNL     1     -14.339   9.798  71.250  1.00  0.00     0.508 A  
ENDBRANCH  30  31
ENDBRANCH  29  30
ENDBRANCH  15  29
ENDBRANCH  12  15
ENDBRANCH  11  12
ENDBRANCH   8  11
BRANCH   9  37
HETATM   37  C   UNL     1      -9.524   9.266  66.707  1.00  0.00    -0.175 C  
HETATM   38  C   UNL     1      -8.820   6.207  66.903  1.00  0.00    -0.117 C  
HETATM   39  O   UNL     1     -10.555   8.793  66.235  1.00  0.00    -0.023 OA 
HETATM   40  C   UNL     1      -7.914   6.872  69.125  1.00  0.00    -0.119 C  
HETATM   41  C   UNL     1      -8.976   7.201  68.062  1.00  0.00    -0.127 C  
HETATM   42  N   UNL     1      -8.735   8.581  67.617  1.00  0.00    -0.136 N  
HETATM   43  C   UNL     1     -10.366   7.045  68.696  1.00  0.00    -0.200 C  
HETATM   44  H   UNL     1      -7.928   9.069  68.006  1.00  0.00     0.000 HD 
ENDBRANCH   9  37
TORSDOF 9
ENDMDL
MODEL      252
REMARK 921   NORMALIZED FREE ENERGY PREDICTED BY IDOCK:   -2.16 KCAL/MOL
REMARK 922        TOTAL FREE ENERGY PREDICTED BY IDOCK:   -6.14 KCAL/MOL
REMARK 923 INTER-LIGAND FREE ENERGY PREDICTED BY IDOCK:   -5.24 KCAL/MOL
REMARK 924 INTRA-LIGAND FREE ENERGY PREDICTED BY IDOCK:   -0.90 KCAL/MOL
REMARK 927      BINDING AFFINITY PREDICTED BY RF-SCORE:    0.00 PKD
ROOT
HETATM    1  C   UNL     1     -12.376  13.688  68.266  1.00  0.00     0.044 C  
HETATM    2  C   UNL     1     -12.350  15.202  68.034  1.00  0.00     0.392 C  
HETATM    3  C   UNL     1     -10.972  15.794  68.303  1.00  0.00    -0.325 C  
HETATM    4  C   UNL     1     -10.522  15.499  69.727  1.00  0.00    -0.308 C  
HETATM    5  C   UNL     1     -10.565  14.011  70.071  1.00  0.00     0.513 C  
HETATM    6  C   UNL     1     -11.870  13.310  69.660  1.00  0.00    -0.391 C  
HETATM    7  C   UNL     1     -11.786  11.776  69.757  1.00  0.00    -0.349 C  
HETATM    8  N   UNL     1     -10.811  11.166  68.847  1.00  0.00    -0.203 NA 
HETATM    9  C   UNL     1     -10.806  11.717  67.480  1.00  0.00    -0.239 C  
HETATM   10  C   UNL     1     -11.680  12.935  67.125  1.00  0.00    -0.437 C  
ENDROOT
BRANCH   8  11
HETATM   11  C   UNL     1     -10.923   9.685  68.870  1.00  0.00    -0.121 C  
BRANCH  11  12
HETATM   12  C   UNL     1     -11.053   8.942  70.241  1.00  0.00    -0.228 C  
HETATM   13  H   UNL     1     -12.394   8.777  71.705  1.00  0.00     0.000 HD 
HETATM   14  O   UNL     1     -12.315   9.227  70.872  1.00  0.00    -0.264 OA 
BRANCH  12  15
HETATM   15  C   UNL     1     -10.806   7.411  70.162  1.00  0.00    -0.256 C  
BRANCH  15  16
HETATM   16  N   UNL     1     -10.119   6.992  68.933  1.00  0.00    -0.168 N  
HETATM   17  C   UNL     1      -9.878   5.675  68.614  1.00  0.00    -0.145 C  
HETATM   18  O   UNL     1     -10.194   4.723  69.317  1.00  0.00    -0.189 OA 
HETATM   19  H   UNL     1      -9.805   7.713  68.284  1.00  0.00     0.000 HD 
BRANCH  17  20
HETATM   20  C   UNL     1      -9.138   5.425  67.355  1.00  0.00    -0.111 A  
HETATM   21  C   UNL     1      -9.890   5.094  66.213  1.00  0.00    -0.209 A  
HETATM   22  H   UNL     1      -5.345   4.794  65.132  1.00  0.00     0.000 HD 
HETATM   23  C   UNL     1      -7.727   5.452  67.314  1.00  0.00    -0.096 A  
HETATM   24  C   UNL     1      -7.117   5.102  66.101  1.00  0.00    -0.072 A  
HETATM   25  C   UNL     1      -9.253   4.802  65.014  1.00  0.00    -0.136 A  
HETATM   26  C   UNL     1      -6.871   5.841  68.493  1.00  0.00    -0.063 C  
HETATM   27  O   UNL     1      -5.759   5.031  65.953  1.00  0.00    -0.017 OA 
HETATM   28  C   UNL     1      -7.863   4.801  64.963  1.00  0.00    -0.094 A  
ENDBRANCH  17  20
ENDBRANCH  15  16
BRANCH  15  29
HETATM   29  C   UNL     1     -10.150   6.825  71.447  1.00  0.00    -0.182 C  
BRANCH  29  30
HETATM   30  S   UNL     1      -9.361   8.042  72.564  1.00  0.00    -0.253 SA 
BRANCH  30  31
HETATM   31  C   UNL     1      -8.123   7.105  73.429  1.00  0.00    -0.108 A  
HETATM   32  C   UNL     1      -7.331   4.892  74.054  1.00  0.00    -0.082 A  
HETATM   33  C   UNL     1      -8.312   5.718  73.504  1.00  0.00    -0.111 A  
HETATM   34  C   UNL     1      -5.955   6.827  74.476  1.00  0.00    -0.071 A  
HETATM   35  C   UNL     1      -6.148   5.448  74.534  1.00  0.00    -0.059 A  
HETATM   36  C   UNL     1      -6.939   7.654  73.925  1.00  0.00    -0.111 A  
ENDBRANCH  30  31
ENDBRANCH  29  30
ENDBRANCH  15  29
ENDBRANCH  12  15
ENDBRANCH  11  12
ENDBRANCH   8  11
BRANCH   9  37
HETATM   37  C   UNL     1      -9.334  12.028  67.062  1.00  0.00    -0.191 C  
HETATM   38  C   UNL     1      -6.629  13.423  67.855  1.00  0.00    -0.149 C  
HETATM   39  O   UNL     1      -9.009  12.474  65.964  1.00  0.00    -0.021 OA 
HETATM   40  C   UNL     1      -6.312  11.352  69.201  1.00  0.00    -0.074 C  
HETATM   41  C   UNL     1      -6.960  11.926  67.929  1.00  0.00    -0.085 C  
HETATM   42  N   UNL     1      -8.409  11.705  68.041  1.00  0.00    -0.141 N  
HETATM   43  C   UNL     1      -6.368  11.201  66.711  1.00  0.00    -0.125 C  
HETATM   44  H   UNL     1      -8.758  11.285  68.902  1.00  0.00     0.000 HD 
ENDBRANCH   9  37
TORSDOF 9
ENDMDL
MODEL      253
REMARK 921   NORMALIZED FREE ENERGY PREDICTED BY IDOCK:   -2.15 KCAL/MOL
REMARK 922        TOTAL FREE ENERGY PREDICTED BY IDOCK:   -6.11 KCAL/MOL
REMARK 923 INTER-LIGAND FREE ENERGY PREDICTED BY IDOCK:   -5.41 KCAL/MOL
REMARK 924 INTRA-LIGAND FREE ENERGY PREDICTED BY IDOCK:   -0.70 KCAL/MOL
REMARK 927      BINDING AFFINITY PREDICTED BY RF-SCORE:    0.00 PKD
ROOT
HETATM    1  C   UNL     1     -10.836  12.647  63.917  1.00  0.00    -0.468 C  
HETATM    2  C   UNL     1     -11.855  13.682  63.429  1.00  0.00    -0.101 C  
HETATM    3  C   UNL     1     -12.562  14.372  64.589  1.00  0.00    -0.256 C  
HETATM    4  C   UNL     1     -13.267  13.357  65.479  1.00  0.00     0.270 C  
HETATM    5  C   UNL     1     -12.338  12.249  65.973  1.00  0.00     0.193 C  
HETATM    6  C   UNL     1     -11.461  11.629  64.873  1.00  0.00    -0.205 C  
HETATM    7  C   UNL     1     -10.348  10.724  65.430  1.00  0.00    -0.247 C  
HETATM    8  N   UNL     1      -9.356  11.423  66.254  1.00  0.00    -0.206 NA 
HETATM    9  C   UNL     1      -8.912  12.724  65.722  1.00  0.00     0.470 C  
HETATM   10  C   UNL     1      -9.572  13.321  64.464  1.00  0.00     0.516 C  
ENDROOT
BRANCH   8  11
HETATM   11  C   UNL     1      -8.225  10.524  66.596  1.00  0.00    -0.129 C  
BRANCH  11  12
HETATM   12  C   UNL     1      -8.190   9.825  67.996  1.00  0.00    -0.109 C  
HETATM   13  H   UNL     1      -8.174  10.369  69.912  1.00  0.00     0.000 HD 
HETATM   14  O   UNL     1      -8.195  10.793  69.063  1.00  0.00    -0.142 OA 
BRANCH  12  15
HETATM   15  C   UNL     1      -9.303   8.764  68.204  1.00  0.00    -0.140 C  
BRANCH  15  16
HETATM   16  N   UNL     1      -9.061   7.878  69.351  1.00  0.00    -0.146 N  
HETATM   17  C   UNL     1      -8.114   6.880  69.348  1.00  0.00    -0.127 C  
HETATM   18  O   UNL     1      -7.389   6.616  68.396  1.00  0.00    -0.083 OA 
HETATM   19  H   UNL     1      -9.623   8.011  70.192  1.00  0.00     0.000 HD 
BRANCH  17  20
HETATM   20  C   UNL     1      -8.024   6.051  70.573  1.00  0.00    -0.111 A  
HETATM   21  C   UNL     1      -8.576   4.758  70.526  1.00  0.00    -0.114 A  
HETATM   22  H   UNL     1      -7.098   5.582  74.891  1.00  0.00     0.000 HD 
HETATM   23  C   UNL     1      -7.464   6.560  71.765  1.00  0.00    -0.093 A  
HETATM   24  C   UNL     1      -7.516   5.736  72.898  1.00  0.00    -0.092 A  
HETATM   25  C   UNL     1      -8.566   3.950  71.655  1.00  0.00    -0.116 A  
HETATM   26  C   UNL     1      -6.820   7.921  71.862  1.00  0.00    -0.064 C  
HETATM   27  O   UNL     1      -7.063   6.140  74.124  1.00  0.00    -0.086 OA 
HETATM   28  C   UNL     1      -8.039   4.445  72.844  1.00  0.00    -0.095 A  
ENDBRANCH  17  20
ENDBRANCH  15  16
BRANCH  15  29
HETATM   29  C   UNL     1     -10.740   9.367  68.204  1.00  0.00    -0.178 C  
BRANCH  29  30
HETATM   30  S   UNL     1     -11.048  10.685  69.437  1.00  0.00    -0.280 SA 
BRANCH  30  31
HETATM   31  C   UNL     1     -12.049   9.899  70.678  1.00  0.00    -0.257 A  
HETATM   32  C   UNL     1     -14.034  10.057  72.074  1.00  0.00     0.002 A  
HETATM   33  C   UNL     1     -13.124  10.638  71.190  1.00  0.00    -0.415 A  
HETATM   34  C   UNL     1     -12.806   7.986  71.957  1.00  0.00    -0.313 A  
HETATM   35  C   UNL     1     -13.877   8.727  72.453  1.00  0.00    -0.477 A  
HETATM   36  C   UNL     1     -11.894   8.569  71.072  1.00  0.00    -0.290 A  
ENDBRANCH  30  31
ENDBRANCH  29  30
ENDBRANCH  15  29
ENDBRANCH  12  15
ENDBRANCH  11  12
ENDBRANCH   8  11
BRANCH   9  37
HETATM   37  C   UNL     1      -8.971  13.789  66.862  1.00  0.00    -0.221 C  
HETATM   38  C   UNL     1      -7.359  15.375  69.047  1.00  0.00    -0.159 C  
HETATM   39  O   UNL     1      -9.801  13.781  67.769  1.00  0.00    -0.223 OA 
HETATM   40  C   UNL     1      -6.723  16.797  67.105  1.00  0.00    -0.224 C  
HETATM   41  C   UNL     1      -7.825  15.890  67.679  1.00  0.00    -0.146 C  
HETATM   42  N   UNL     1      -8.018  14.785  66.730  1.00  0.00    -0.327 N  
HETATM   43  C   UNL     1      -9.104  16.724  67.846  1.00  0.00    -0.224 C  
HETATM   44  H   UNL     1      -7.405  14.748  65.916  1.00  0.00     0.000 HD 
ENDBRANCH   9  37
TORSDOF 9
ENDMDL
MODEL      254
REMARK 921   NORMALIZED FREE ENERGY PREDICTED BY IDOCK:   -2.14 KCAL/MOL
REMARK 922        TOTAL FREE ENERGY PREDICTED BY IDOCK:   -6.10 KCAL/MOL
REMARK 923 INTER-LIGAND FREE ENERGY PREDICTED BY IDOCK:   -7.02 KCAL/MOL
REMARK 924 INTRA-LIGAND FREE ENERGY PREDICTED BY IDOCK:    0.92 KCAL/MOL
REMARK 927      BINDING AFFINITY PREDICTED BY RF-SCORE:    0.00 PKD
ROOT
HETATM    1  C   UNL     1      -5.922   9.812  65.369  1.00  0.00    -0.072 C  
HETATM    2  C   UNL     1      -5.345   8.405  65.189  1.00  0.00    -0.035 C  
HETATM    3  C   UNL     1      -5.681   7.499  66.368  1.00  0.00    -0.036 C  
HETATM    4  C   UNL     1      -5.164   8.089  67.673  1.00  0.00    -0.033 C  
HETATM    5  C   UNL     1      -5.645   9.519  67.914  1.00  0.00    -0.040 C  
HETATM    6  C   UNL     1      -5.497  10.445  66.696  1.00  0.00    -0.049 C  
HETATM    7  C   UNL     1      -6.235  11.785  66.864  1.00  0.00    -0.134 C  
HETATM    8  N   UNL     1      -7.692  11.662  66.980  1.00  0.00    -0.155 NA 
HETATM    9  C   UNL     1      -8.312  10.709  66.041  1.00  0.00    -0.160 C  
HETATM   10  C   UNL     1      -7.436   9.832  65.126  1.00  0.00    -0.122 C  
ENDROOT
BRANCH   8  11
HETATM   11  C   UNL     1      -8.339  12.999  66.953  1.00  0.00    -0.022 C  
BRANCH  11  12
HETATM   12  C   UNL     1      -9.681  13.221  67.725  1.00  0.00    -0.217 C  
HETATM   13  H   UNL     1     -10.616  12.448  69.305  1.00  0.00     0.000 HD 
HETATM   14  O   UNL     1      -9.802  12.314  68.836  1.00  0.00    -0.064 OA 
BRANCH  12  15
HETATM   15  C   UNL     1      -9.920  14.687  68.178  1.00  0.00    -0.224 C  
BRANCH  15  16
HETATM   16  N   UNL     1      -8.821  15.595  67.826  1.00  0.00    -0.170 N  
HETATM   17  C   UNL     1      -9.010  16.915  67.487  1.00  0.00    -0.206 C  
HETATM   18  O   UNL     1     -10.102  17.466  67.431  1.00  0.00    -0.299 OA 
HETATM   19  H   UNL     1      -7.869  15.228  67.832  1.00  0.00     0.000 HD 
BRANCH  17  20
HETATM   20  C   UNL     1      -7.797  17.684  67.121  1.00  0.00    -0.229 A  
HETATM   21  C   UNL     1      -7.044  17.228  66.023  1.00  0.00    -0.200 A  
HETATM   22  H   UNL     1      -4.789  20.840  67.969  1.00  0.00     0.000 HD 
HETATM   23  C   UNL     1      -7.372  18.793  67.883  1.00  0.00    -0.259 A  
HETATM   24  C   UNL     1      -6.158  19.392  67.518  1.00  0.00    -0.194 A  
HETATM   25  C   UNL     1      -5.872  17.877  65.658  1.00  0.00    -0.179 A  
HETATM   26  C   UNL     1      -8.159  19.352  69.043  1.00  0.00    -0.280 C  
HETATM   27  O   UNL     1      -5.611  20.434  68.216  1.00  0.00    -0.221 OA 
HETATM   28  C   UNL     1      -5.427  18.957  66.413  1.00  0.00    -0.172 A  
ENDBRANCH  17  20
ENDBRANCH  15  16
BRANCH  15  29
HETATM   29  C   UNL     1     -11.315  15.242  67.762  1.00  0.00    -0.326 C  
BRANCH  29  30
HETATM   30  S   UNL     1     -12.144  16.313  68.994  1.00  0.00     0.543 SA 
BRANCH  30  31
HETATM   31  C   UNL     1     -12.894  15.172  70.132  1.00  0.00    -0.164 A  
HETATM   32  C   UNL     1     -13.034  12.863  70.884  1.00  0.00    -0.101 A  
HETATM   33  C   UNL     1     -12.591  13.814  69.964  1.00  0.00    -0.207 A  
HETATM   34  C   UNL     1     -14.101  14.611  72.157  1.00  0.00    -0.604 A  
HETATM   35  C   UNL     1     -13.785  13.265  71.986  1.00  0.00    -0.519 A  
HETATM   36  C   UNL     1     -13.657  15.563  71.233  1.00  0.00    -0.520 A  
ENDBRANCH  30  31
ENDBRANCH  29  30
ENDBRANCH  15  29
ENDBRANCH  12  15
ENDBRANCH  11  12
ENDBRANCH   8  11
BRANCH   9  37
HETATM   37  C   UNL     1      -9.286   9.778  66.831  1.00  0.00    -0.149 C  
HETATM   38  C   UNL     1     -10.689   6.966  66.960  1.00  0.00    -0.432 C  
HETATM   39  O   UNL     1     -10.394  10.125  67.235  1.00  0.00    -0.208 OA 
HETATM   40  C   UNL     1      -8.493   6.257  67.896  1.00  0.00    -0.117 C  
HETATM   41  C   UNL     1      -9.472   7.437  67.769  1.00  0.00    -0.140 C  
HETATM   42  N   UNL     1      -8.760   8.521  67.079  1.00  0.00    -0.124 N  
HETATM   43  C   UNL     1      -9.915   7.856  69.178  1.00  0.00    -0.184 C  
HETATM   44  H   UNL     1      -7.810   8.335  66.758  1.00  0.00     0.000 HD 
ENDBRANCH   9  37
TORSDOF 9
ENDMDL
MODEL      255
REMARK 921   NORMALIZED FREE ENERGY PREDICTED BY IDOCK:   -2.06 KCAL/MOL
REMARK 922        TOTAL FREE ENERGY PREDICTED BY IDOCK:   -5.98 KCAL/MOL
REMARK 923 INTER-LIGAND FREE ENERGY PREDICTED BY IDOCK:   -6.62 KCAL/MOL
REMARK 924 INTRA-LIGAND FREE ENERGY PREDICTED BY IDOCK:    0.64 KCAL/MOL
REMARK 927      BINDING AFFINITY PREDICTED BY RF-SCORE:    0.00 PKD
ROOT
HETATM    1  C   UNL     1     -10.432   8.230  72.420  1.00  0.00    -0.404 C  
HETATM    2  C   UNL     1     -10.366   7.068  73.417  1.00  0.00    -0.370 C  
HETATM    3  C   UNL     1     -11.141   5.853  72.924  1.00  0.00    -0.306 C  
HETATM    4  C   UNL     1     -12.599   6.206  72.663  1.00  0.00     0.328 C  
HETATM    5  C   UNL     1     -12.766   7.395  71.718  1.00  0.00    -0.367 C  
HETATM    6  C   UNL     1     -11.872   8.598  72.058  1.00  0.00    -0.443 C  
HETATM    7  C   UNL     1     -11.847   9.663  70.948  1.00  0.00    -0.323 C  
HETATM    8  N   UNL     1     -11.270   9.202  69.681  1.00  0.00    -0.087 NA 
HETATM    9  C   UNL     1     -10.044   8.394  69.814  1.00  0.00    -0.197 C  
HETATM   10  C   UNL     1      -9.529   7.978  71.206  1.00  0.00    -0.190 C  
ENDROOT
BRANCH   8  11
HETATM   11  C   UNL     1     -11.113  10.331  68.729  1.00  0.00    -0.228 C  
BRANCH  11  12
HETATM   12  C   UNL     1     -11.377  11.794  69.218  1.00  0.00    -0.286 C  
HETATM   13  H   UNL     1     -10.406  13.203  70.238  1.00  0.00     0.000 HD 
HETATM   14  O   UNL     1     -10.246  12.316  69.941  1.00  0.00     1.041 OA 
BRANCH  12  15
HETATM   15  C   UNL     1     -11.816  12.772  68.095  1.00  0.00    -0.324 C  
BRANCH  15  16
HETATM   16  N   UNL     1     -11.199  14.100  68.201  1.00  0.00    -0.265 N  
HETATM   17  C   UNL     1     -11.657  15.203  67.517  1.00  0.00    -0.257 C  
HETATM   18  O   UNL     1     -12.610  15.194  66.747  1.00  0.00     0.568 OA 
HETATM   19  H   UNL     1     -10.390  14.211  68.812  1.00  0.00     0.000 HD 
BRANCH  17  20
HETATM   20  C   UNL     1     -10.897  16.461  67.706  1.00  0.00    -0.306 A  
HETATM   21  C   UNL     1     -10.660  16.886  69.026  1.00  0.00    -0.338 A  
HETATM   22  H   UNL     1      -9.047  20.166  66.099  1.00  0.00     0.000 HD 
HETATM   23  C   UNL     1     -10.483  17.241  66.605  1.00  0.00    -0.257 A  
HETATM   24  C   UNL     1      -9.860  18.465  66.888  1.00  0.00    -0.338 A  
HETATM   25  C   UNL     1      -9.995  18.080  69.269  1.00  0.00    -0.095 A  
HETATM   26  C   UNL     1     -10.672  16.816  65.170  1.00  0.00    -0.159 C  
HETATM   27  O   UNL     1      -9.469  19.336  65.908  1.00  0.00    -0.429 OA 
HETATM   28  C   UNL     1      -9.600  18.872  68.195  1.00  0.00    -0.386 A  
ENDBRANCH  17  20
ENDBRANCH  15  16
BRANCH  15  29
HETATM   29  C   UNL     1     -11.693  12.164  66.666  1.00  0.00    -0.313 C  
BRANCH  29  30
HETATM   30  S   UNL     1     -10.051  11.480  66.231  1.00  0.00    -0.235 SA 
BRANCH  30  31
HETATM   31  C   UNL     1      -8.896  12.650  66.908  1.00  0.00    -0.201 A  
HETATM   32  C   UNL     1      -8.051  14.929  66.839  1.00  0.00    -0.119 A  
HETATM   33  C   UNL     1      -8.837  13.911  66.299  1.00  0.00     0.207 A  
HETATM   34  C   UNL     1      -7.361  13.442  68.607  1.00  0.00    -0.106 A  
HETATM   35  C   UNL     1      -7.318  14.695  68.000  1.00  0.00    -0.142 A  
HETATM   36  C   UNL     1      -8.148  12.421  68.064  1.00  0.00    -0.162 A  
ENDBRANCH  30  31
ENDBRANCH  29  30
ENDBRANCH  15  29
ENDBRANCH  12  15
ENDBRANCH  11  12
ENDBRANCH   8  11
BRANCH   9  37
HETATM   37  C   UNL     1     -10.182   7.110  68.936  1.00  0.00    -0.186 C  
HETATM   38  C   UNL     1      -9.784   5.833  66.090  1.00  0.00    -0.105 C  
HETATM   39  O   UNL     1     -11.195   6.416  68.884  1.00  0.00    -0.343 OA 
HETATM   40  C   UNL     1      -7.420   5.638  66.846  1.00  0.00    -0.088 C  
HETATM   41  C   UNL     1      -8.883   5.661  67.320  1.00  0.00    -0.106 C  
HETATM   42  N   UNL     1      -9.023   6.794  68.246  1.00  0.00    -0.124 N  
HETATM   43  C   UNL     1      -9.193   4.324  68.009  1.00  0.00    -0.182 C  
HETATM   44  H   UNL     1      -8.208   7.390  68.390  1.00  0.00     0.000 HD 
ENDBRANCH   9  37
TORSDOF 9
ENDMDL
MODEL      256
REMARK 921   NORMALIZED FREE ENERGY PREDICTED BY IDOCK:   -1.95 KCAL/MOL
REMARK 922        TOTAL FREE ENERGY PREDICTED BY IDOCK:   -5.82 KCAL/MOL
REMARK 923 INTER-LIGAND FREE ENERGY PREDICTED BY IDOCK:   -3.92 KCAL/MOL
REMARK 924 INTRA-LIGAND FREE ENERGY PREDICTED BY IDOCK:   -1.90 KCAL/MOL
REMARK 927      BINDING AFFINITY PREDICTED BY RF-SCORE:    0.00 PKD
ROOT
HETATM    1  C   UNL     1     -10.209   7.948  68.560  1.00  0.00    -0.229 C  
HETATM    2  C   UNL     1     -11.189   9.016  68.065  1.00  0.00     0.372 C  
HETATM    3  C   UNL     1     -10.477  10.311  67.694  1.00  0.00    -0.285 C  
HETATM    4  C   UNL     1      -9.694  10.860  68.879  1.00  0.00    -0.198 C  
HETATM    5  C   UNL     1      -8.724   9.843  69.478  1.00  0.00    -0.200 C  
HETATM    6  C   UNL     1      -9.338   8.453  69.711  1.00  0.00    -0.158 C  
HETATM    7  C   UNL     1      -8.288   7.379  70.046  1.00  0.00    -0.137 C  
HETATM    8  N   UNL     1      -7.330   7.113  68.967  1.00  0.00    -0.090 NA 
HETATM    9  C   UNL     1      -7.921   7.026  67.619  1.00  0.00    -0.114 C  
HETATM   10  C   UNL     1      -9.414   7.337  67.399  1.00  0.00    -0.159 C  
ENDROOT
BRANCH   8  11
HETATM   11  C   UNL     1      -6.474   5.945  69.296  1.00  0.00    -0.042 C  
BRANCH  11  12
HETATM   12  C   UNL     1      -6.609   4.630  68.458  1.00  0.00    -0.046 C  
HETATM   13  H   UNL     1      -5.501   3.027  68.046  1.00  0.00     0.000 HD 
HETATM   14  O   UNL     1      -5.419   3.825  68.554  1.00  0.00    -0.012 OA 
BRANCH  12  15
HETATM   15  C   UNL     1      -7.873   3.792  68.789  1.00  0.00    -0.055 C  
BRANCH  15  16
HETATM   16  N   UNL     1      -8.594   4.263  69.979  1.00  0.00    -0.068 N  
HETATM   17  C   UNL     1      -8.445   3.698  71.225  1.00  0.00    -0.068 C  
HETATM   18  O   UNL     1      -7.715   2.746  71.471  1.00  0.00    -0.046 OA 
HETATM   19  H   UNL     1      -9.237   5.048  69.876  1.00  0.00     0.000 HD 
BRANCH  17  20
HETATM   20  C   UNL     1      -9.276   4.268  72.312  1.00  0.00    -0.155 A  
HETATM   21  C   UNL     1     -10.466   3.596  72.642  1.00  0.00    -0.188 A  
HETATM   22  H   UNL     1     -10.234   7.528  75.172  1.00  0.00     0.000 HD 
HETATM   23  C   UNL     1      -8.922   5.478  72.949  1.00  0.00    -0.123 A  
HETATM   24  C   UNL     1      -9.824   5.989  73.894  1.00  0.00    -0.197 A  
HETATM   25  C   UNL     1     -11.311   4.105  73.619  1.00  0.00    -0.270 A  
HETATM   26  C   UNL     1      -7.640   6.219  72.666  1.00  0.00    -0.100 C  
HETATM   27  O   UNL     1      -9.623   7.182  74.532  1.00  0.00    -0.177 OA 
HETATM   28  C   UNL     1     -10.989   5.308  74.240  1.00  0.00     0.277 A  
ENDBRANCH  17  20
ENDBRANCH  15  16
BRANCH  15  29
HETATM   29  C   UNL     1      -8.811   3.580  67.563  1.00  0.00    -0.126 C  
BRANCH  29  30
HETATM   30  S   UNL     1      -8.219   2.389  66.305  1.00  0.00    -0.093 SA 
BRANCH  30  31
HETATM   31  C   UNL     1      -8.410   3.250  64.762  1.00  0.00    -0.090 A  
HETATM   32  C   UNL     1      -9.969   4.214  63.164  1.00  0.00    -0.095 A  
HETATM   33  C   UNL     1      -9.719   3.443  64.299  1.00  0.00    -0.166 A  
HETATM   34  C   UNL     1      -7.602   4.608  62.925  1.00  0.00    -0.061 A  
HETATM   35  C   UNL     1      -8.908   4.803  62.480  1.00  0.00    -0.123 A  
HETATM   36  C   UNL     1      -7.353   3.833  64.062  1.00  0.00    -0.059 A  
ENDBRANCH  30  31
ENDBRANCH  29  30
ENDBRANCH  15  29
ENDBRANCH  12  15
ENDBRANCH  11  12
ENDBRANCH   8  11
BRANCH   9  37
HETATM   37  C   UNL     1      -7.084   7.907  66.638  1.00  0.00    -0.076 C  
HETATM   38  C   UNL     1      -6.455   8.604  63.637  1.00  0.00    -0.084 C  
HETATM   39  O   UNL     1      -5.868   8.063  66.719  1.00  0.00    -0.042 OA 
HETATM   40  C   UNL     1      -8.533   9.961  63.837  1.00  0.00    -0.183 C  
HETATM   41  C   UNL     1      -7.328   9.404  64.614  1.00  0.00    -0.104 C  
HETATM   42  N   UNL     1      -7.858   8.544  65.681  1.00  0.00    -0.098 N  
HETATM   43  C   UNL     1      -6.525  10.583  65.181  1.00  0.00    -0.052 C  
HETATM   44  H   UNL     1      -8.867   8.406  65.720  1.00  0.00     0.000 HD 
ENDBRANCH   9  37
TORSDOF 9
ENDMDL
MODEL      257
REMARK 921   NORMALIZED FREE ENERGY PREDICTED BY IDOCK:   -1.75 KCAL/MOL
REMARK 922        TOTAL FREE ENERGY PREDICTED BY IDOCK:   -5.51 KCAL/MOL
REMARK 923 INTER-LIGAND FREE ENERGY PREDICTED BY IDOCK:   -4.10 KCAL/MOL
REMARK 924 INTRA-LIGAND FREE ENERGY PREDICTED BY IDOCK:   -1.41 KCAL/MOL
REMARK 927      BINDING AFFINITY PREDICTED BY RF-SCORE:    0.00 PKD
ROOT
HETATM    1  C   UNL     1     -11.507   7.786  70.900  1.00  0.00    -0.294 C  
HETATM    2  C   UNL     1     -12.972   8.140  71.175  1.00  0.00    -0.082 C  
HETATM    3  C   UNL     1     -13.319   9.540  70.683  1.00  0.00     0.123 C  
HETATM    4  C   UNL     1     -12.421  10.583  71.334  1.00  0.00    -0.516 C  
HETATM    5  C   UNL     1     -10.933  10.284  71.158  1.00  0.00     0.155 C  
HETATM    6  C   UNL     1     -10.544   8.830  71.469  1.00  0.00    -0.379 C  
HETATM    7  C   UNL     1      -9.114   8.480  71.022  1.00  0.00    -0.179 C  
HETATM    8  N   UNL     1      -8.899   8.551  69.573  1.00  0.00    -0.139 NA 
HETATM    9  C   UNL     1      -9.980   7.971  68.755  1.00  0.00    -0.189 C  
HETATM   10  C   UNL     1     -11.277   7.468  69.417  1.00  0.00     0.081 C  
ENDROOT
BRANCH   8  11
HETATM   11  C   UNL     1      -7.558   8.024  69.212  1.00  0.00    -0.096 C  
BRANCH  11  12
HETATM   12  C   UNL     1      -7.372   7.249  67.865  1.00  0.00    -0.097 C  
HETATM   13  H   UNL     1      -6.353   7.470  66.167  1.00  0.00     0.000 HD 
HETATM   14  O   UNL     1      -6.466   7.940  66.985  1.00  0.00    -0.053 OA 
BRANCH  12  15
HETATM   15  C   UNL     1      -6.952   5.764  68.038  1.00  0.00    -0.065 C  
BRANCH  15  16
HETATM   16  N   UNL     1      -7.773   5.033  69.012  1.00  0.00    -0.079 N  
HETATM   17  C   UNL     1      -7.368   4.777  70.301  1.00  0.00    -0.051 C  
HETATM   18  O   UNL     1      -6.287   5.116  70.769  1.00  0.00    -0.022 OA 
HETATM   19  H   UNL     1      -8.690   4.698  68.716  1.00  0.00     0.000 HD 
BRANCH  17  20
HETATM   20  C   UNL     1      -8.301   3.992  71.144  1.00  0.00    -0.085 A  
HETATM   21  C   UNL     1      -9.034   2.966  70.521  1.00  0.00    -0.169 A  
HETATM   22  H   UNL     1     -10.467   3.324  74.964  1.00  0.00     0.000 HD 
HETATM   23  C   UNL     1      -8.500   4.304  72.507  1.00  0.00    -0.105 A  
HETATM   24  C   UNL     1      -9.478   3.571  73.194  1.00  0.00    -0.106 A  
HETATM   25  C   UNL     1      -9.959   2.226  71.246  1.00  0.00    -0.041 A  
HETATM   26  C   UNL     1      -7.714   5.364  73.237  1.00  0.00    -0.100 C  
HETATM   27  O   UNL     1      -9.804   3.821  74.499  1.00  0.00    -0.118 OA 
HETATM   28  C   UNL     1     -10.183   2.535  72.583  1.00  0.00    -0.236 A  
ENDBRANCH  17  20
ENDBRANCH  15  16
BRANCH  15  29
HETATM   29  C   UNL     1      -6.802   5.004  66.687  1.00  0.00    -0.062 C  
BRANCH  29  30
HETATM   30  S   UNL     1      -7.436   3.287  66.666  1.00  0.00    -0.076 SA 
BRANCH  30  31
HETATM   31  C   UNL     1      -8.443   3.209  65.203  1.00  0.00    -0.097 A  
HETATM   32  C   UNL     1      -9.848   1.819  63.787  1.00  0.00    -0.130 A  
HETATM   33  C   UNL     1      -8.950   1.952  64.846  1.00  0.00    -0.122 A  
HETATM   34  C   UNL     1      -9.743   4.199  63.414  1.00  0.00    -0.112 A  
HETATM   35  C   UNL     1     -10.250   2.946  63.074  1.00  0.00    -0.137 A  
HETATM   36  C   UNL     1      -8.842   4.331  64.475  1.00  0.00    -0.143 A  
ENDBRANCH  30  31
ENDBRANCH  29  30
ENDBRANCH  15  29
ENDBRANCH  12  15
ENDBRANCH  11  12
ENDBRANCH   8  11
BRANCH   9  37
HETATM   37  C   UNL     1     -10.361   8.980  67.626  1.00  0.00    -0.257 C  
HETATM   38  C   UNL     1      -9.922  11.855  66.430  1.00  0.00    -0.237 C  
HETATM   39  O   UNL     1     -11.516   9.237  67.293  1.00  0.00     0.604 OA 
HETATM   40  C   UNL     1      -7.885  10.804  65.457  1.00  0.00    -0.041 C  
HETATM   41  C   UNL     1      -9.327  10.535  65.920  1.00  0.00    -0.181 C  
HETATM   42  N   UNL     1      -9.260   9.532  66.992  1.00  0.00    -0.137 N  
HETATM   43  C   UNL     1     -10.138  10.028  64.719  1.00  0.00    -0.129 C  
HETATM   44  H   UNL     1      -8.336   9.220  67.292  1.00  0.00     0.000 HD 
ENDBRANCH   9  37
TORSDOF 9
ENDMDL
MODEL      258
REMARK 921   NORMALIZED FREE ENERGY PREDICTED BY IDOCK:   -1.67 KCAL/MOL
REMARK 922        TOTAL FREE ENERGY PREDICTED BY IDOCK:   -5.38 KCAL/MOL
REMARK 923 INTER-LIGAND FREE ENERGY PREDICTED BY IDOCK:   -3.43 KCAL/MOL
REMARK 924 INTRA-LIGAND FREE ENERGY PREDICTED BY IDOCK:   -1.95 KCAL/MOL
REMARK 927      BINDING AFFINITY PREDICTED BY RF-SCORE:    0.00 PKD
ROOT
HETATM    1  C   UNL     1     -12.058   6.880  70.205  1.00  0.00    -0.111 C  
HETATM    2  C   UNL     1     -13.314   7.107  71.052  1.00  0.00    -0.130 C  
HETATM    3  C   UNL     1     -13.316   8.483  71.707  1.00  0.00    -0.396 C  
HETATM    4  C   UNL     1     -12.083   8.672  72.580  1.00  0.00    -0.368 C  
HETATM    5  C   UNL     1     -10.776   8.413  71.832  1.00  0.00    -0.373 C  
HETATM    6  C   UNL     1     -10.774   7.119  71.002  1.00  0.00    -0.252 C  
HETATM    7  C   UNL     1      -9.572   7.019  70.046  1.00  0.00    -0.164 C  
HETATM    8  N   UNL     1      -9.540   8.051  69.004  1.00  0.00    -0.155 NA 
HETATM    9  C   UNL     1     -10.840   8.329  68.364  1.00  0.00     0.092 C  
HETATM   10  C   UNL     1     -12.126   7.658  68.884  1.00  0.00     2.265 C  
ENDROOT
BRANCH   8  11
HETATM   11  C   UNL     1      -8.462   7.776  68.020  1.00  0.00    -0.123 C  
BRANCH  11  12
HETATM   12  C   UNL     1      -8.299   6.332  67.438  1.00  0.00    -0.109 C  
HETATM   13  H   UNL     1      -7.771   5.493  65.710  1.00  0.00     0.000 HD 
HETATM   14  O   UNL     1      -7.869   6.369  66.064  1.00  0.00    -0.096 OA 
BRANCH  12  15
HETATM   15  C   UNL     1      -7.384   5.405  68.281  1.00  0.00    -0.072 C  
BRANCH  15  16
HETATM   16  N   UNL     1      -7.373   5.737  69.712  1.00  0.00    -0.069 N  
HETATM   17  C   UNL     1      -6.251   6.171  70.379  1.00  0.00    -0.035 C  
HETATM   18  O   UNL     1      -5.149   6.314  69.862  1.00  0.00    -0.012 OA 
HETATM   19  H   UNL     1      -8.242   5.640  70.238  1.00  0.00     0.000 HD 
BRANCH  17  20
HETATM   20  C   UNL     1      -6.402   6.425  71.831  1.00  0.00    -0.043 A  
HETATM   21  C   UNL     1      -6.301   5.323  72.699  1.00  0.00    -0.043 A  
HETATM   22  H   UNL     1      -7.438   9.098  75.224  1.00  0.00     0.000 HD 
HETATM   23  C   UNL     1      -6.702   7.714  72.324  1.00  0.00    -0.057 A  
HETATM   24  C   UNL     1      -6.927   7.834  73.703  1.00  0.00    -0.094 A  
HETATM   25  C   UNL     1      -6.480   5.488  74.066  1.00  0.00    -0.074 A  
HETATM   26  C   UNL     1      -6.781   8.939  71.447  1.00  0.00    -0.085 C  
HETATM   27  O   UNL     1      -7.285   9.017  74.290  1.00  0.00    -0.404 OA 
HETATM   28  C   UNL     1      -6.799   6.747  74.565  1.00  0.00    -0.095 A  
ENDBRANCH  17  20
ENDBRANCH  15  16
BRANCH  15  29
HETATM   29  C   UNL     1      -7.629   3.890  68.017  1.00  0.00    -0.066 C  
BRANCH  29  30
HETATM   30  S   UNL     1      -6.781   2.737  69.159  1.00  0.00    -0.033 SA 
BRANCH  30  31
HETATM   31  C   UNL     1      -7.870   2.628  70.560  1.00  0.00    -0.042 A  
HETATM   32  C   UNL     1      -8.151   1.855  72.848  1.00  0.00    -0.053 A  
HETATM   33  C   UNL     1      -7.417   1.891  71.662  1.00  0.00    -0.040 A  
HETATM   34  C   UNL     1      -9.812   3.289  71.850  1.00  0.00    -0.238 A  
HETATM   35  C   UNL     1      -9.347   2.562  72.944  1.00  0.00    -0.126 A  
HETATM   36  C   UNL     1      -9.077   3.323  70.661  1.00  0.00    -0.190 A  
ENDBRANCH  30  31
ENDBRANCH  29  30
ENDBRANCH  15  29
ENDBRANCH  12  15
ENDBRANCH  11  12
ENDBRANCH   8  11
BRANCH   9  37
HETATM   37  C   UNL     1     -11.069   9.873  68.327  1.00  0.00    -0.150 C  
HETATM   38  C   UNL     1      -9.754  12.704  67.945  1.00  0.00    -0.216 C  
HETATM   39  O   UNL     1     -11.689  10.498  69.184  1.00  0.00    -0.252 OA 
HETATM   40  C   UNL     1      -9.961  12.135  65.530  1.00  0.00    -0.269 C  
HETATM   41  C   UNL     1     -10.584  11.918  66.920  1.00  0.00    -0.230 C  
HETATM   42  N   UNL     1     -10.543  10.475  67.196  1.00  0.00    -0.253 N  
HETATM   43  C   UNL     1     -12.024  12.451  66.898  1.00  0.00    -0.266 C  
HETATM   44  H   UNL     1     -10.095   9.874  66.505  1.00  0.00     0.000 HD 
ENDBRANCH   9  37
TORSDOF 9
ENDMDL
MODEL      259
REMARK 921   NORMALIZED FREE ENERGY PREDICTED BY IDOCK:   -1.53 KCAL/MOL
REMARK 922        TOTAL FREE ENERGY PREDICTED BY IDOCK:   -5.17 KCAL/MOL
REMARK 923 INTER-LIGAND FREE ENERGY PREDICTED BY IDOCK:   -4.97 KCAL/MOL
REMARK 924 INTRA-LIGAND FREE ENERGY PREDICTED BY IDOCK:   -0.21 KCAL/MOL
REMARK 927      BINDING AFFINITY PREDICTED BY RF-SCORE:    0.00 PKD
ROOT
HETATM    1  C   UNL     1     -10.055   8.218  68.353  1.00  0.00    -0.227 C  
HETATM    2  C   UNL     1     -10.874   6.953  68.629  1.00  0.00    -0.236 C  
HETATM    3  C   UNL     1     -11.681   7.070  69.916  1.00  0.00    -0.123 C  
HETATM    4  C   UNL     1     -10.771   7.347  71.105  1.00  0.00    -0.246 C  
HETATM    5  C   UNL     1      -9.872   8.564  70.899  1.00  0.00    -0.234 C  
HETATM    6  C   UNL     1      -9.162   8.597  69.536  1.00  0.00    -0.150 C  
HETATM    7  C   UNL     1      -8.492   9.949  69.237  1.00  0.00    -0.158 C  
HETATM    8  N   UNL     1      -9.426  11.075  69.123  1.00  0.00    -0.109 NA 
HETATM    9  C   UNL     1     -10.652  10.789  68.355  1.00  0.00    -0.197 C  
HETATM   10  C   UNL     1     -10.944   9.363  67.851  1.00  0.00    -0.122 C  
ENDROOT
BRANCH   8  11
HETATM   11  C   UNL     1      -8.726  12.298  68.655  1.00  0.00     0.023 C  
BRANCH  11  12
HETATM   12  C   UNL     1      -7.200  12.475  68.954  1.00  0.00    -0.050 C  
HETATM   13  H   UNL     1      -5.718  11.395  69.733  1.00  0.00     0.000 HD 
HETATM   14  O   UNL     1      -6.644  11.288  69.551  1.00  0.00    -0.103 OA 
BRANCH  12  15
HETATM   15  C   UNL     1      -6.359  12.926  67.730  1.00  0.00    -0.144 C  
BRANCH  15  16
HETATM   16  N   UNL     1      -6.622  12.140  66.517  1.00  0.00    -0.254 N  
HETATM   17  C   UNL     1      -5.989  10.952  66.233  1.00  0.00    -0.139 C  
HETATM   18  O   UNL     1      -5.137  10.433  66.946  1.00  0.00    -0.039 OA 
HETATM   19  H   UNL     1      -7.310  12.493  65.851  1.00  0.00     0.000 HD 
BRANCH  17  20
HETATM   20  C   UNL     1      -6.341  10.305  64.948  1.00  0.00    -0.121 A  
HETATM   21  C   UNL     1      -5.296   9.741  64.195  1.00  0.00    -0.073 A  
HETATM   22  H   UNL     1      -9.257   9.396  61.723  1.00  0.00     0.000 HD 
HETATM   23  C   UNL     1      -7.667  10.311  64.462  1.00  0.00    -0.107 A  
HETATM   24  C   UNL     1      -7.883   9.764  63.189  1.00  0.00    -0.139 A  
HETATM   25  C   UNL     1      -5.555   9.162  62.960  1.00  0.00    -0.080 A  
HETATM   26  C   UNL     1      -8.834  10.863  65.243  1.00  0.00    -0.179 C  
HETATM   27  O   UNL     1      -9.111   9.767  62.585  1.00  0.00    -0.260 OA 
HETATM   28  C   UNL     1      -6.852   9.180  62.456  1.00  0.00    -0.092 A  
ENDBRANCH  17  20
ENDBRANCH  15  16
BRANCH  15  29
HETATM   29  C   UNL     1      -6.415  14.462  67.475  1.00  0.00    -0.042 C  
BRANCH  29  30
HETATM   30  S   UNL     1      -6.362  15.518  68.969  1.00  0.00    -0.119 SA 
BRANCH  30  31
HETATM   31  C   UNL     1      -7.866  16.461  68.893  1.00  0.00    -0.234 A  
HETATM   32  C   UNL     1      -8.864  18.652  68.552  1.00  0.00    -0.361 A  
HETATM   33  C   UNL     1      -7.740  17.849  68.745  1.00  0.00    -0.263 A  
HETATM   34  C   UNL     1     -10.267  16.694  68.661  1.00  0.00    -0.284 A  
HETATM   35  C   UNL     1     -10.129  18.072  68.503  1.00  0.00    -0.399 A  
HETATM   36  C   UNL     1      -9.139  15.890  68.855  1.00  0.00    -0.233 A  
ENDBRANCH  30  31
ENDBRANCH  29  30
ENDBRANCH  15  29
ENDBRANCH  12  15
ENDBRANCH  11  12
ENDBRANCH   8  11
BRANCH   9  37
HETATM   37  C   UNL     1     -11.889  11.289  69.165  1.00  0.00    -0.355 C  
HETATM   38  C   UNL     1     -13.073  11.915  72.011  1.00  0.00    -0.441 C  
HETATM   39  O   UNL     1     -13.034  10.873  69.002  1.00  0.00     0.124 OA 
HETATM   40  C   UNL     1     -11.797  14.036  71.736  1.00  0.00     0.356 C  
HETATM   41  C   UNL     1     -12.544  12.923  70.981  1.00  0.00    -0.287 C  
HETATM   42  N   UNL     1     -11.581  12.295  70.066  1.00  0.00    -0.524 N  
HETATM   43  C   UNL     1     -13.720  13.555  70.221  1.00  0.00     1.655 C  
HETATM   44  H   UNL     1     -10.616  12.623  70.097  1.00  0.00     0.000 HD 
ENDBRANCH   9  37
TORSDOF 9
ENDMDL
MODEL      260
REMARK 921   NORMALIZED FREE ENERGY PREDICTED BY IDOCK:   -1.49 KCAL/MOL
REMARK 922        TOTAL FREE ENERGY PREDICTED BY IDOCK:   -5.10 KCAL/MOL
REMARK 923 INTER-LIGAND FREE ENERGY PREDICTED BY IDOCK:   -3.55 KCAL/MOL
REMARK 924 INTRA-LIGAND FREE ENERGY PREDICTED BY IDOCK:   -1.55 KCAL/MOL
REMARK 927      BINDING AFFINITY PREDICTED BY RF-SCORE:    0.00 PKD
ROOT
HETATM    1  C   UNL     1     -10.570   7.114  69.582  1.00  0.00    -0.249 C  
HETATM    2  C   UNL     1     -11.764   8.048  69.806  1.00  0.00     0.509 C  
HETATM    3  C   UNL     1     -11.328   9.501  69.951  1.00  0.00    -0.161 C  
HETATM    4  C   UNL     1     -10.345   9.661  71.102  1.00  0.00    -0.236 C  
HETATM    5  C   UNL     1      -9.141   8.727  70.994  1.00  0.00    -0.272 C  
HETATM    6  C   UNL     1      -9.505   7.269  70.669  1.00  0.00    -0.164 C  
HETATM    7  C   UNL     1      -8.284   6.413  70.291  1.00  0.00    -0.125 C  
HETATM    8  N   UNL     1      -7.603   6.839  69.063  1.00  0.00    -0.099 NA 
HETATM    9  C   UNL     1      -8.499   7.196  67.948  1.00  0.00    -0.121 C  
HETATM   10  C   UNL     1     -10.026   7.234  68.153  1.00  0.00    -0.181 C  
ENDROOT
BRANCH   8  11
HETATM   11  C   UNL     1      -6.558   5.860  68.671  1.00  0.00    -0.058 C  
BRANCH  11  12
HETATM   12  C   UNL     1      -6.833   4.871  67.490  1.00  0.00    -0.060 C  
HETATM   13  H   UNL     1      -5.772   3.741  66.238  1.00  0.00     0.000 HD 
HETATM   14  O   UNL     1      -5.605   4.341  66.955  1.00  0.00    -0.019 OA 
BRANCH  12  15
HETATM   15  C   UNL     1      -7.827   3.729  67.834  1.00  0.00    -0.073 C  
BRANCH  15  16
HETATM   16  N   UNL     1      -7.834   3.368  69.257  1.00  0.00    -0.051 N  
HETATM   17  C   UNL     1      -6.877   2.569  69.839  1.00  0.00    -0.033 C  
HETATM   18  O   UNL     1      -5.934   2.067  69.239  1.00  0.00    -0.022 OA 
HETATM   19  H   UNL     1      -8.587   3.728  69.844  1.00  0.00     0.000 HD 
BRANCH  17  20
HETATM   20  C   UNL     1      -7.053   2.269  71.280  1.00  0.00    -0.032 A  
HETATM   21  C   UNL     1      -5.905   1.931  72.019  1.00  0.00    -0.009 A  
HETATM   22  H   UNL     1      -9.645   1.484  74.801  1.00  0.00     0.000 HD 
HETATM   23  C   UNL     1      -8.333   2.257  71.877  1.00  0.00    -0.064 A  
HETATM   24  C   UNL     1      -8.407   1.862  73.220  1.00  0.00    -0.057 A  
HETATM   25  C   UNL     1      -6.010   1.594  73.362  1.00  0.00    -0.004 A  
HETATM   26  C   UNL     1      -9.592   2.651  71.146  1.00  0.00    -0.220 C  
HETATM   27  O   UNL     1      -9.594   1.752  73.891  1.00  0.00    -0.070 OA 
HETATM   28  C   UNL     1      -7.266   1.555  73.960  1.00  0.00    -0.024 A  
ENDBRANCH  17  20
ENDBRANCH  15  16
BRANCH  15  29
HETATM   29  C   UNL     1      -9.258   3.964  67.266  1.00  0.00    -0.176 C  
BRANCH  29  30
HETATM   30  S   UNL     1      -9.552   3.344  65.568  1.00  0.00    -0.029 SA 
BRANCH  30  31
HETATM   31  C   UNL     1      -8.376   4.227  64.570  1.00  0.00    -0.107 A  
HETATM   32  C   UNL     1      -7.629   6.398  63.769  1.00  0.00    -0.092 A  
HETATM   33  C   UNL     1      -8.569   5.608  64.430  1.00  0.00     0.016 A  
HETATM   34  C   UNL     1      -6.284   4.437  63.365  1.00  0.00    -0.018 A  
HETATM   35  C   UNL     1      -6.481   5.812  63.241  1.00  0.00    -0.028 A  
HETATM   36  C   UNL     1      -7.228   3.646  64.027  1.00  0.00    -0.051 A  
ENDBRANCH  30  31
ENDBRANCH  29  30
ENDBRANCH  15  29
ENDBRANCH  12  15
ENDBRANCH  11  12
ENDBRANCH   8  11
BRANCH   9  37
HETATM   37  C   UNL     1      -8.047   8.566  67.350  1.00  0.00    -0.106 C  
HETATM   38  C   UNL     1      -7.220  10.143  64.758  1.00  0.00    -0.130 C  
HETATM   39  O   UNL     1      -7.143   9.256  67.815  1.00  0.00    -0.080 OA 
HETATM   40  C   UNL     1      -9.684  10.268  64.419  1.00  0.00    -0.381 C  
HETATM   41  C   UNL     1      -8.574  10.187  65.481  1.00  0.00    -0.151 C  
HETATM   42  N   UNL     1      -8.802   8.960  66.258  1.00  0.00    -0.149 N  
HETATM   43  C   UNL     1      -8.651  11.440  66.364  1.00  0.00    -0.174 C  
HETATM   44  H   UNL     1      -9.572   8.356  65.972  1.00  0.00     0.000 HD 
ENDBRANCH   9  37
TORSDOF 9
ENDMDL
MODEL      261
REMARK 921   NORMALIZED FREE ENERGY PREDICTED BY IDOCK:   -1.31 KCAL/MOL
REMARK 922        TOTAL FREE ENERGY PREDICTED BY IDOCK:   -4.83 KCAL/MOL
REMARK 923 INTER-LIGAND FREE ENERGY PREDICTED BY IDOCK:   -4.07 KCAL/MOL
REMARK 924 INTRA-LIGAND FREE ENERGY PREDICTED BY IDOCK:   -0.76 KCAL/MOL
REMARK 927      BINDING AFFINITY PREDICTED BY RF-SCORE:    0.00 PKD
ROOT
HETATM    1  C   UNL     1     -10.986  13.779  68.875  1.00  0.00    -0.281 C  
HETATM    2  C   UNL     1     -12.298  14.479  69.243  1.00  0.00    -0.185 C  
HETATM    3  C   UNL     1     -12.100  15.972  69.471  1.00  0.00    -0.109 C  
HETATM    4  C   UNL     1     -11.073  16.224  70.567  1.00  0.00    -0.293 C  
HETATM    5  C   UNL     1      -9.743  15.518  70.313  1.00  0.00     0.265 C  
HETATM    6  C   UNL     1      -9.883  14.043  69.901  1.00  0.00     1.116 C  
HETATM    7  C   UNL     1      -8.568  13.434  69.384  1.00  0.00     1.025 C  
HETATM    8  N   UNL     1      -8.061  14.049  68.152  1.00  0.00    -0.140 NA 
HETATM    9  C   UNL     1      -9.084  14.319  67.125  1.00  0.00    -0.228 C  
HETATM   10  C   UNL     1     -10.577  14.083  67.428  1.00  0.00    -0.278 C  
ENDROOT
BRANCH   8  11
HETATM   11  C   UNL     1      -6.900  13.290  67.622  1.00  0.00    -0.163 C  
BRANCH  11  12
HETATM   12  C   UNL     1      -7.109  11.832  67.092  1.00  0.00    -0.146 C  
HETATM   13  H   UNL     1      -6.851  10.833  65.388  1.00  0.00     0.000 HD 
HETATM   14  O   UNL     1      -6.724  11.718  65.709  1.00  0.00     0.572 OA 
BRANCH  12  15
HETATM   15  C   UNL     1      -6.421  10.738  67.952  1.00  0.00    -0.062 C  
BRANCH  15  16
HETATM   16  N   UNL     1      -7.288  10.183  68.999  1.00  0.00    -0.080 N  
HETATM   17  C   UNL     1      -8.624   9.915  68.811  1.00  0.00    -0.130 C  
HETATM   18  O   UNL     1      -9.231  10.119  67.766  1.00  0.00    -0.137 OA 
HETATM   19  H   UNL     1      -6.879   9.987  69.913  1.00  0.00     0.000 HD 
BRANCH  17  20
HETATM   20  C   UNL     1      -9.366   9.394  69.983  1.00  0.00    -0.253 A  
HETATM   21  C   UNL     1      -8.657   8.595  70.899  1.00  0.00    -0.204 A  
HETATM   22  H   UNL     1     -13.156   8.696  72.191  1.00  0.00     0.000 HD 
HETATM   23  C   UNL     1     -10.749   9.632  70.143  1.00  0.00    -0.321 A  
HETATM   24  C   UNL     1     -11.382   9.012  71.229  1.00  0.00    -0.319 A  
HETATM   25  C   UNL     1      -9.307   8.038  71.992  1.00  0.00    -0.237 A  
HETATM   26  C   UNL     1     -11.550  10.513  69.218  1.00  0.00    -0.308 C  
HETATM   27  O   UNL     1     -12.727   9.116  71.455  1.00  0.00    -0.316 OA 
HETATM   28  C   UNL     1     -10.673   8.243  72.151  1.00  0.00    -0.389 A  
ENDBRANCH  17  20
ENDBRANCH  15  16
BRANCH  15  29
HETATM   29  C   UNL     1      -5.723   9.634  67.102  1.00  0.00    -0.051 C  
BRANCH  29  30
HETATM   30  S   UNL     1      -6.788   8.775  65.885  1.00  0.00    -0.069 SA 
BRANCH  30  31
HETATM   31  C   UNL     1      -6.977   7.137  66.548  1.00  0.00    -0.076 A  
HETATM   32  C   UNL     1      -8.483   5.262  66.906  1.00  0.00    -0.106 A  
HETATM   33  C   UNL     1      -8.265   6.585  66.522  1.00  0.00    -0.113 A  
HETATM   34  C   UNL     1      -6.128   5.017  67.359  1.00  0.00    -0.030 A  
HETATM   35  C   UNL     1      -7.411   4.475  67.319  1.00  0.00    -0.078 A  
HETATM   36  C   UNL     1      -5.910   6.344  66.975  1.00  0.00    -0.020 A  
ENDBRANCH  30  31
ENDBRANCH  29  30
ENDBRANCH  15  29
ENDBRANCH  12  15
ENDBRANCH  11  12
ENDBRANCH   8  11
BRANCH   9  37
HETATM   37  C   UNL     1      -8.912  15.781  66.606  1.00  0.00    -0.280 C  
HETATM   38  C   UNL     1      -9.208  18.842  67.264  1.00  0.00    -0.308 C  
HETATM   39  O   UNL     1      -9.325  16.181  65.520  1.00  0.00    -0.405 OA 
HETATM   40  C   UNL     1      -7.033  18.490  68.422  1.00  0.00    -0.278 C  
HETATM   41  C   UNL     1      -7.916  18.014  67.256  1.00  0.00    -0.212 C  
HETATM   42  N   UNL     1      -8.196  16.588  67.476  1.00  0.00    -0.152 N  
HETATM   43  C   UNL     1      -7.157  18.247  65.942  1.00  0.00    -0.291 C  
HETATM   44  H   UNL     1      -7.838  16.162  68.331  1.00  0.00     0.000 HD 
ENDBRANCH   9  37
TORSDOF 9
ENDMDL
MODEL      262
REMARK 921   NORMALIZED FREE ENERGY PREDICTED BY IDOCK:   -1.29 KCAL/MOL
REMARK 922        TOTAL FREE ENERGY PREDICTED BY IDOCK:   -4.81 KCAL/MOL
REMARK 923 INTER-LIGAND FREE ENERGY PREDICTED BY IDOCK:   -3.99 KCAL/MOL
REMARK 924 INTRA-LIGAND FREE ENERGY PREDICTED BY IDOCK:   -0.82 KCAL/MOL
REMARK 927      BINDING AFFINITY PREDICTED BY RF-SCORE:    0.00 PKD
ROOT
HETATM    1  C   UNL     1     -10.733   8.881  66.718  1.00  0.00    -0.098 C  
HETATM    2  C   UNL     1     -10.724   9.843  65.525  1.00  0.00     0.548 C  
HETATM    3  C   UNL     1      -9.852  11.065  65.789  1.00  0.00    -0.282 C  
HETATM    4  C   UNL     1     -10.321  11.810  67.031  1.00  0.00    -0.243 C  
HETATM    5  C   UNL     1     -10.414  10.915  68.266  1.00  0.00    -0.205 C  
HETATM    6  C   UNL     1     -11.132   9.578  68.019  1.00  0.00    -0.056 C  
HETATM    7  C   UNL     1     -10.970   8.585  69.183  1.00  0.00     0.076 C  
HETATM    8  N   UNL     1      -9.589   8.152  69.421  1.00  0.00    -0.166 NA 
HETATM    9  C   UNL     1      -8.818   7.836  68.205  1.00  0.00    -0.125 C  
HETATM   10  C   UNL     1      -9.420   8.092  66.810  1.00  0.00    -0.256 C  
ENDROOT
BRANCH   8  11
HETATM   11  C   UNL     1      -9.543   7.063  70.430  1.00  0.00    -0.169 C  
BRANCH  11  12
HETATM   12  C   UNL     1     -10.616   5.924  70.385  1.00  0.00    -0.286 C  
HETATM   13  H   UNL     1     -12.263   5.494  69.350  1.00  0.00     0.000 HD 
HETATM   14  O   UNL     1     -11.612   6.184  69.377  1.00  0.00    -0.372 OA 
BRANCH  12  15
HETATM   15  C   UNL     1     -10.025   4.498  70.225  1.00  0.00    -0.218 C  
BRANCH  15  16
HETATM   16  N   UNL     1      -9.043   4.390  69.138  1.00  0.00    -0.115 N  
HETATM   17  C   UNL     1      -9.389   4.374  67.806  1.00  0.00    -0.153 C  
HETATM   18  O   UNL     1     -10.539   4.435  67.388  1.00  0.00     0.212 OA 
HETATM   19  H   UNL     1      -8.055   4.323  69.383  1.00  0.00     0.000 HD 
BRANCH  17  20
HETATM   20  C   UNL     1      -8.279   4.220  66.837  1.00  0.00    -0.101 A  
HETATM   21  C   UNL     1      -7.288   5.218  66.818  1.00  0.00    -0.086 A  
HETATM   22  H   UNL     1      -6.409   2.193  63.355  1.00  0.00     0.000 HD 
HETATM   23  C   UNL     1      -8.249   3.148  65.918  1.00  0.00    -0.094 A  
HETATM   24  C   UNL     1      -7.212   3.145  64.974  1.00  0.00    -0.070 A  
HETATM   25  C   UNL     1      -6.247   5.156  65.901  1.00  0.00    -0.034 A  
HETATM   26  C   UNL     1      -9.259   2.028  65.919  1.00  0.00     0.018 C  
HETATM   27  O   UNL     1      -7.111   2.195  63.995  1.00  0.00    -0.041 OA 
HETATM   28  C   UNL     1      -6.215   4.119  64.974  1.00  0.00    -0.027 A  
ENDBRANCH  17  20
ENDBRANCH  15  16
BRANCH  15  29
HETATM   29  C   UNL     1      -9.509   3.890  71.563  1.00  0.00    -0.155 C  
BRANCH  29  30
HETATM   30  S   UNL     1     -10.216   4.613  73.089  1.00  0.00    -0.182 SA 
BRANCH  30  31
HETATM   31  C   UNL     1      -8.955   5.721  73.674  1.00  0.00    -0.127 A  
HETATM   32  C   UNL     1      -6.569   6.158  73.847  1.00  0.00    -0.071 A  
HETATM   33  C   UNL     1      -7.624   5.303  73.530  1.00  0.00    -0.096 A  
HETATM   34  C   UNL     1      -8.154   7.866  74.467  1.00  0.00    -0.275 A  
HETATM   35  C   UNL     1      -6.835   7.445  74.310  1.00  0.00    -0.101 A  
HETATM   36  C   UNL     1      -9.212   7.008  74.150  1.00  0.00    -0.267 A  
ENDBRANCH  30  31
ENDBRANCH  29  30
ENDBRANCH  15  29
ENDBRANCH  12  15
ENDBRANCH  11  12
ENDBRANCH   8  11
BRANCH   9  37
HETATM   37  C   UNL     1      -7.431   8.549  68.282  1.00  0.00    -0.096 C  
HETATM   38  C   UNL     1      -5.135   9.984  66.683  1.00  0.00    -0.040 C  
HETATM   39  O   UNL     1      -6.458   8.099  68.882  1.00  0.00    -0.046 OA 
HETATM   40  C   UNL     1      -6.678  11.933  66.818  1.00  0.00    -0.009 C  
HETATM   41  C   UNL     1      -6.231  10.645  67.529  1.00  0.00    -0.056 C  
HETATM   42  N   UNL     1      -7.413   9.778  67.642  1.00  0.00    -0.090 N  
HETATM   43  C   UNL     1      -5.669  11.019  68.908  1.00  0.00    -0.039 C  
HETATM   44  H   UNL     1      -8.281  10.104  67.219  1.00  0.00     0.000 HD 
ENDBRANCH   9  37
TORSDOF 9
ENDMDL
MODEL      263
REMARK 921   NORMALIZED FREE ENERGY PREDICTED BY IDOCK:   -1.17 KCAL/MOL
REMARK 922        TOTAL FREE ENERGY PREDICTED BY IDOCK:   -4.63 KCAL/MOL
REMARK 923 INTER-LIGAND FREE ENERGY PREDICTED BY IDOCK:   -4.43 KCAL/MOL
REMARK 924 INTRA-LIGAND FREE ENERGY PREDICTED BY IDOCK:   -0.19 KCAL/MOL
REMARK 927      BINDING AFFINITY PREDICTED BY RF-SCORE:    0.00 PKD
ROOT
HETATM    1  C   UNL     1     -10.364  17.115  66.734  1.00  0.00    -0.302 C  
HETATM    2  C   UNL     1      -9.595  18.063  65.808  1.00  0.00     0.248 C  
HETATM    3  C   UNL     1      -8.172  18.304  66.297  1.00  0.00    -0.241 C  
HETATM    4  C   UNL     1      -8.172  18.874  67.709  1.00  0.00    -0.296 C  
HETATM    5  C   UNL     1      -8.964  18.021  68.698  1.00  0.00    -0.278 C  
HETATM    6  C   UNL     1     -10.349  17.591  68.188  1.00  0.00    -0.375 C  
HETATM    7  C   UNL     1     -11.008  16.515  69.068  1.00  0.00    -0.306 C  
HETATM    8  N   UNL     1     -10.286  15.239  69.105  1.00  0.00    -0.237 NA 
HETATM    9  C   UNL     1      -9.782  14.772  67.800  1.00  0.00    -0.213 C  
HETATM   10  C   UNL     1      -9.910  15.662  66.549  1.00  0.00    -0.278 C  
ENDROOT
BRANCH   8  11
HETATM   11  C   UNL     1     -11.077  14.204  69.819  1.00  0.00    -0.092 C  
BRANCH  11  12
HETATM   12  C   UNL     1     -11.839  13.112  68.998  1.00  0.00    -0.313 C  
HETATM   13  H   UNL     1     -12.611  12.915  67.172  1.00  0.00     0.000 HD 
HETATM   14  O   UNL     1     -12.149  13.578  67.670  1.00  0.00    -0.347 OA 
BRANCH  12  15
HETATM   15  C   UNL     1     -11.121  11.736  68.949  1.00  0.00    -0.243 C  
BRANCH  15  16
HETATM   16  N   UNL     1     -11.745  10.720  69.805  1.00  0.00    -0.296 N  
HETATM   17  C   UNL     1     -11.089  10.101  70.845  1.00  0.00    -0.253 C  
HETATM   18  O   UNL     1      -9.925  10.320  71.158  1.00  0.00     0.653 OA 
HETATM   19  H   UNL     1     -12.713  10.458  69.619  1.00  0.00     0.000 HD 
BRANCH  17  20
HETATM   20  C   UNL     1     -11.851   9.069  71.586  1.00  0.00    -0.431 A  
HETATM   21  C   UNL     1     -13.251   9.066  71.445  1.00  0.00    -0.332 A  
HETATM   22  H   UNL     1     -12.074   5.820  74.607  1.00  0.00     0.000 HD 
HETATM   23  C   UNL     1     -11.206   8.163  72.456  1.00  0.00    -0.459 A  
HETATM   24  C   UNL     1     -12.023   7.291  73.190  1.00  0.00     0.588 A  
HETATM   25  C   UNL     1     -14.025   8.154  72.151  1.00  0.00    -0.345 A  
HETATM   26  C   UNL     1      -9.708   8.092  72.615  1.00  0.00    -0.332 C  
HETATM   27  O   UNL     1     -11.521   6.411  74.109  1.00  0.00     0.977 OA 
HETATM   28  C   UNL     1     -13.407   7.270  73.029  1.00  0.00     1.691 A  
ENDBRANCH  17  20
ENDBRANCH  15  16
BRANCH  15  29
HETATM   29  C   UNL     1     -10.863  11.226  67.500  1.00  0.00    -0.245 C  
BRANCH  29  30
HETATM   30  S   UNL     1      -9.315  10.279  67.254  1.00  0.00    -0.150 SA 
BRANCH  30  31
HETATM   31  C   UNL     1      -9.780   8.592  67.564  1.00  0.00    -0.165 A  
HETATM   32  C   UNL     1     -10.473   6.474  66.591  1.00  0.00    -0.229 A  
HETATM   33  C   UNL     1     -10.208   7.837  66.463  1.00  0.00    -0.195 A  
HETATM   34  C   UNL     1      -9.894   6.593  68.929  1.00  0.00    -0.143 A  
HETATM   35  C   UNL     1     -10.309   5.850  67.825  1.00  0.00    -0.262 A  
HETATM   36  C   UNL     1      -9.630   7.960  68.800  1.00  0.00    -0.152 A  
ENDBRANCH  30  31
ENDBRANCH  29  30
ENDBRANCH  15  29
ENDBRANCH  12  15
ENDBRANCH  11  12
ENDBRANCH   8  11
BRANCH   9  37
HETATM   37  C   UNL     1      -8.287  14.348  67.954  1.00  0.00    -0.162 C  
HETATM   38  C   UNL     1      -6.057  13.280  69.897  1.00  0.00    -0.125 C  
HETATM   39  O   UNL     1      -7.337  15.018  67.556  1.00  0.00    -0.171 OA 
HETATM   40  C   UNL     1      -7.126  11.082  69.419  1.00  0.00    -0.128 C  
HETATM   41  C   UNL     1      -6.835  12.478  68.843  1.00  0.00    -0.098 C  
HETATM   42  N   UNL     1      -8.130  13.106  68.545  1.00  0.00    -0.264 N  
HETATM   43  C   UNL     1      -5.979  12.316  67.579  1.00  0.00    -0.136 C  
HETATM   44  H   UNL     1      -8.974  12.589  68.793  1.00  0.00     0.000 HD 
ENDBRANCH   9  37
TORSDOF 9
ENDMDL
MODEL      264
REMARK 921   NORMALIZED FREE ENERGY PREDICTED BY IDOCK:   -1.03 KCAL/MOL
REMARK 922        TOTAL FREE ENERGY PREDICTED BY IDOCK:   -4.41 KCAL/MOL
REMARK 923 INTER-LIGAND FREE ENERGY PREDICTED BY IDOCK:   -4.33 KCAL/MOL
REMARK 924 INTRA-LIGAND FREE ENERGY PREDICTED BY IDOCK:   -0.08 KCAL/MOL
REMARK 927      BINDING AFFINITY PREDICTED BY RF-SCORE:    0.00 PKD
ROOT
HETATM    1  C   UNL     1     -10.232   9.939  68.309  1.00  0.00    -0.204 C  
HETATM    2  C   UNL     1     -10.753   8.521  68.567  1.00  0.00    -0.080 C  
HETATM    3  C   UNL     1     -11.034   8.281  70.045  1.00  0.00    -0.197 C  
HETATM    4  C   UNL     1      -9.783   8.513  70.882  1.00  0.00    -0.231 C  
HETATM    5  C   UNL     1      -9.157   9.888  70.650  1.00  0.00     0.235 C  
HETATM    6  C   UNL     1      -9.010  10.269  69.168  1.00  0.00    -0.187 C  
HETATM    7  C   UNL     1      -8.644  11.749  68.960  1.00  0.00     0.240 C  
HETATM    8  N   UNL     1      -9.667  12.695  69.419  1.00  0.00     0.792 NA 
HETATM    9  C   UNL     1     -11.052  12.328  69.073  1.00  0.00    -0.236 C  
HETATM   10  C   UNL     1     -11.359  10.975  68.403  1.00  0.00    -0.363 C  
ENDROOT
BRANCH   8  11
HETATM   11  C   UNL     1      -9.322  14.082  69.017  1.00  0.00     0.139 C  
BRANCH  11  12
HETATM   12  C   UNL     1      -7.819  14.485  68.848  1.00  0.00    -0.134 C  
HETATM   13  H   UNL     1      -6.075  14.062  69.713  1.00  0.00     0.000 HD 
HETATM   14  O   UNL     1      -6.987  13.818  69.816  1.00  0.00     0.022 OA 
BRANCH  12  15
HETATM   15  C   UNL     1      -7.265  14.288  67.411  1.00  0.00    -0.112 C  
BRANCH  15  16
HETATM   16  N   UNL     1      -7.700  13.035  66.782  1.00  0.00    -0.334 N  
HETATM   17  C   UNL     1      -6.840  12.006  66.472  1.00  0.00     0.320 C  
HETATM   18  O   UNL     1      -5.632  12.029  66.673  1.00  0.00    -0.298 OA 
HETATM   19  H   UNL     1      -8.690  12.921  66.564  1.00  0.00     0.000 HD 
BRANCH  17  20
HETATM   20  C   UNL     1      -7.436  10.825  65.804  1.00  0.00    -0.067 A  
HETATM   21  C   UNL     1      -8.577  11.034  65.009  1.00  0.00     0.021 A  
HETATM   22  H   UNL     1      -7.719   6.435  65.193  1.00  0.00     0.000 HD 
HETATM   23  C   UNL     1      -6.920   9.527  66.011  1.00  0.00    -0.091 A  
HETATM   24  C   UNL     1      -7.614   8.462  65.417  1.00  0.00    -0.092 A  
HETATM   25  C   UNL     1      -9.210   9.961  64.395  1.00  0.00    -0.317 A  
HETATM   26  C   UNL     1      -5.677   9.248  66.818  1.00  0.00    -0.051 C  
HETATM   27  O   UNL     1      -7.249   7.156  65.594  1.00  0.00    -0.066 OA 
HETATM   28  C   UNL     1      -8.728   8.673  64.607  1.00  0.00    -0.065 A  
ENDBRANCH  17  20
ENDBRANCH  15  16
BRANCH  15  29
HETATM   29  C   UNL     1      -7.479  15.528  66.492  1.00  0.00     0.494 C  
BRANCH  29  30
HETATM   30  S   UNL     1      -9.006  16.490  66.799  1.00  0.00    -0.255 SA 
BRANCH  30  31
HETATM   31  C   UNL     1     -10.259  15.628  65.879  1.00  0.00    -0.351 A  
HETATM   32  C   UNL     1     -11.669  13.651  65.745  1.00  0.00    -0.369 A  
HETATM   33  C   UNL     1     -10.611  14.348  66.329  1.00  0.00    -0.292 A  
HETATM   34  C   UNL     1     -12.040  15.498  64.240  1.00  0.00    -0.126 A  
HETATM   35  C   UNL     1     -12.388  14.231  64.703  1.00  0.00    -0.433 A  
HETATM   36  C   UNL     1     -10.978  16.196  64.826  1.00  0.00    -0.330 A  
ENDBRANCH  30  31
ENDBRANCH  29  30
ENDBRANCH  15  29
ENDBRANCH  12  15
ENDBRANCH  11  12
ENDBRANCH   8  11
BRANCH   9  37
HETATM   37  C   UNL     1     -11.947  12.462  70.346  1.00  0.00    -0.257 C  
HETATM   38  C   UNL     1     -12.291  13.795  73.174  1.00  0.00     0.675 C  
HETATM   39  O   UNL     1     -12.416  11.507  70.962  1.00  0.00    -0.380 OA 
HETATM   40  C   UNL     1     -13.094  15.727  71.824  1.00  0.00    -0.490 C  
HETATM   41  C   UNL     1     -12.990  14.193  71.866  1.00  0.00    -0.360 C  
HETATM   42  N   UNL     1     -12.207  13.777  70.695  1.00  0.00    -0.352 N  
HETATM   43  C   UNL     1     -14.410  13.607  71.837  1.00  0.00    -0.151 C  
HETATM   44  H   UNL     1     -11.827  14.509  70.096  1.00  0.00     0.000 HD 
ENDBRANCH   9  37
TORSDOF 9
ENDMDL
MODEL      265
REMARK 921   NORMALIZED FREE ENERGY PREDICTED BY IDOCK:   -0.89 KCAL/MOL
REMARK 922        TOTAL FREE ENERGY PREDICTED BY IDOCK:   -4.19 KCAL/MOL
REMARK 923 INTER-LIGAND FREE ENERGY PREDICTED BY IDOCK:   -3.94 KCAL/MOL
REMARK 924 INTRA-LIGAND FREE ENERGY PREDICTED BY IDOCK:   -0.25 KCAL/MOL
REMARK 927      BINDING AFFINITY PREDICTED BY RF-SCORE:    0.00 PKD
ROOT
HETATM    1  C   UNL     1     -10.291   9.995  68.081  1.00  0.00    -0.228 C  
HETATM    2  C   UNL     1     -10.888   8.598  68.278  1.00  0.00    -0.005 C  
HETATM    3  C   UNL     1     -11.221   8.324  69.740  1.00  0.00     0.029 C  
HETATM    4  C   UNL     1      -9.984   8.468  70.616  1.00  0.00    -0.222 C  
HETATM    5  C   UNL     1      -9.285   9.816  70.446  1.00  0.00    -0.169 C  
HETATM    6  C   UNL     1      -9.078  10.236  68.982  1.00  0.00    -0.187 C  
HETATM    7  C   UNL     1      -8.635  11.702  68.833  1.00  0.00     0.074 C  
HETATM    8  N   UNL     1      -9.622  12.682  69.297  1.00  0.00     0.622 NA 
HETATM    9  C   UNL     1     -11.014  12.397  68.903  1.00  0.00    -0.223 C  
HETATM   10  C   UNL     1     -11.368  11.083  68.180  1.00  0.00    -0.374 C  
ENDROOT
BRANCH   8  11
HETATM   11  C   UNL     1      -9.198  14.063  68.950  1.00  0.00     0.043 C  
BRANCH  11  12
HETATM   12  C   UNL     1      -7.677  14.380  68.767  1.00  0.00    -0.139 C  
HETATM   13  H   UNL     1      -5.958  13.913  69.659  1.00  0.00     0.000 HD 
HETATM   14  O   UNL     1      -6.881  13.721  69.770  1.00  0.00    -0.034 OA 
BRANCH  12  15
HETATM   15  C   UNL     1      -7.132  14.082  67.344  1.00  0.00    -0.073 C  
BRANCH  15  16
HETATM   16  N   UNL     1      -7.555  12.779  66.816  1.00  0.00    -0.359 N  
HETATM   17  C   UNL     1      -6.672  11.811  66.394  1.00  0.00     0.238 C  
HETATM   18  O   UNL     1      -5.453  11.935  66.401  1.00  0.00    -0.306 OA 
HETATM   19  H   UNL     1      -8.554  12.581  66.759  1.00  0.00     0.000 HD 
BRANCH  17  20
HETATM   20  C   UNL     1      -7.265  10.566  65.851  1.00  0.00    -0.135 A  
HETATM   21  C   UNL     1      -8.377  10.692  64.999  1.00  0.00    -0.106 A  
HETATM   22  H   UNL     1      -7.598   6.138  65.755  1.00  0.00     0.000 HD 
HETATM   23  C   UNL     1      -6.777   9.296  66.227  1.00  0.00    -0.074 A  
HETATM   24  C   UNL     1      -7.468   8.177  65.741  1.00  0.00    -0.080 A  
HETATM   25  C   UNL     1      -9.007   9.562  64.496  1.00  0.00    -0.256 A  
HETATM   26  C   UNL     1      -5.564   9.100  67.102  1.00  0.00    -0.041 C  
HETATM   27  O   UNL     1      -7.130   6.896  66.084  1.00  0.00    -0.069 OA 
HETATM   28  C   UNL     1      -8.553   8.302  64.875  1.00  0.00    -0.075 A  
ENDBRANCH  17  20
ENDBRANCH  15  16
BRANCH  15  29
HETATM   29  C   UNL     1      -7.371  15.245  66.336  1.00  0.00     1.368 C  
BRANCH  29  30
HETATM   30  S   UNL     1      -9.118  15.725  66.074  1.00  0.00    -0.264 SA 
BRANCH  30  31
HETATM   31  C   UNL     1      -9.374  17.077  67.199  1.00  0.00    -0.236 A  
HETATM   32  C   UNL     1      -8.523  19.191  68.047  1.00  0.00    -0.345 A  
HETATM   33  C   UNL     1      -8.355  18.035  67.285  1.00  0.00    -0.234 A  
HETATM   34  C   UNL     1     -10.735  18.451  68.660  1.00  0.00     0.190 A  
HETATM   35  C   UNL     1      -9.718  19.402  68.730  1.00  0.00    -0.516 A  
HETATM   36  C   UNL     1     -10.564  17.291  67.897  1.00  0.00    -0.384 A  
ENDBRANCH  30  31
ENDBRANCH  29  30
ENDBRANCH  15  29
ENDBRANCH  12  15
ENDBRANCH  11  12
ENDBRANCH   8  11
BRANCH   9  37
HETATM   37  C   UNL     1     -11.936  12.534  70.156  1.00  0.00    -0.301 C  
HETATM   38  C   UNL     1     -12.302  13.810  73.007  1.00  0.00     0.511 C  
HETATM   39  O   UNL     1     -12.457  11.584  70.735  1.00  0.00    -0.362 OA 
HETATM   40  C   UNL     1     -12.996  15.804  71.687  1.00  0.00    -0.509 C  
HETATM   41  C   UNL     1     -12.951  14.267  71.693  1.00  0.00    -0.346 C  
HETATM   42  N   UNL     1     -12.154  13.850  70.531  1.00  0.00    -0.358 N  
HETATM   43  C   UNL     1     -14.391  13.738  71.613  1.00  0.00    -0.002 C  
HETATM   44  H   UNL     1     -11.731  14.581  69.960  1.00  0.00     0.000 HD 
ENDBRANCH   9  37
TORSDOF 9
ENDMDL
MODEL      266
REMARK 921   NORMALIZED FREE ENERGY PREDICTED BY IDOCK:   -0.84 KCAL/MOL
REMARK 922        TOTAL FREE ENERGY PREDICTED BY IDOCK:   -4.12 KCAL/MOL
REMARK 923 INTER-LIGAND FREE ENERGY PREDICTED BY IDOCK:   -4.39 KCAL/MOL
REMARK 924 INTRA-LIGAND FREE ENERGY PREDICTED BY IDOCK:    0.26 KCAL/MOL
REMARK 927      BINDING AFFINITY PREDICTED BY RF-SCORE:    0.00 PKD
ROOT
HETATM    1  C   UNL     1     -11.047  13.008  65.972  1.00  0.00    -0.301 C  
HETATM    2  C   UNL     1     -12.142  11.937  66.013  1.00  0.00     0.232 C  
HETATM    3  C   UNL     1     -12.408  11.453  67.434  1.00  0.00     1.367 C  
HETATM    4  C   UNL     1     -11.139  10.896  68.065  1.00  0.00    -0.351 C  
HETATM    5  C   UNL     1      -9.970  11.879  68.021  1.00  0.00    -0.192 C  
HETATM    6  C   UNL     1      -9.758  12.542  66.651  1.00  0.00    -0.244 C  
HETATM    7  C   UNL     1      -8.770  13.720  66.698  1.00  0.00    -0.002 C  
HETATM    8  N   UNL     1      -9.215  14.850  67.519  1.00  0.00    -0.189 NA 
HETATM    9  C   UNL     1     -10.633  15.217  67.355  1.00  0.00    -0.282 C  
HETATM   10  C   UNL     1     -11.566  14.359  66.480  1.00  0.00    -0.388 C  
ENDROOT
BRANCH   8  11
HETATM   11  C   UNL     1      -8.299  16.009  67.364  1.00  0.00    -0.167 C  
BRANCH  11  12
HETATM   12  C   UNL     1      -7.462  16.500  68.592  1.00  0.00    -0.202 C  
HETATM   13  H   UNL     1      -7.509  16.315  70.575  1.00  0.00     0.000 HD 
HETATM   14  O   UNL     1      -8.017  16.017  69.830  1.00  0.00    -0.013 OA 
BRANCH  12  15
HETATM   15  C   UNL     1      -5.947  16.176  68.500  1.00  0.00    -0.108 C  
BRANCH  15  16
HETATM   16  N   UNL     1      -5.667  14.777  68.151  1.00  0.00    -0.121 N  
HETATM   17  C   UNL     1      -6.176  13.707  68.851  1.00  0.00    -0.092 C  
HETATM   18  O   UNL     1      -6.898  13.804  69.837  1.00  0.00     0.008 OA 
HETATM   19  H   UNL     1      -5.066  14.589  67.349  1.00  0.00     0.000 HD 
BRANCH  17  20
HETATM   20  C   UNL     1      -5.765  12.360  68.391  1.00  0.00    -0.056 A  
HETATM   21  C   UNL     1      -5.626  12.160  67.005  1.00  0.00    -0.079 A  
HETATM   22  H   UNL     1      -4.964   8.061  69.169  1.00  0.00     0.000 HD 
HETATM   23  C   UNL     1      -5.584  11.296  69.302  1.00  0.00    -0.041 A  
HETATM   24  C   UNL     1      -5.295  10.035  68.761  1.00  0.00    -0.035 A  
HETATM   25  C   UNL     1      -5.290  10.907  66.508  1.00  0.00    -0.089 A  
HETATM   26  C   UNL     1      -5.678  11.461  70.798  1.00  0.00    -0.079 C  
HETATM   27  O   UNL     1      -5.159   8.915  69.535  1.00  0.00    -0.034 OA 
HETATM   28  C   UNL     1      -5.131   9.843  67.390  1.00  0.00    -0.034 A  
ENDBRANCH  17  20
ENDBRANCH  15  16
BRANCH  15  29
HETATM   29  C   UNL     1      -5.152  17.185  67.619  1.00  0.00    -0.117 C  
BRANCH  29  30
HETATM   30  S   UNL     1      -5.905  17.593  66.001  1.00  0.00    -0.141 SA 
BRANCH  30  31
HETATM   31  C   UNL     1      -6.993  18.954  66.355  1.00  0.00    -0.221 A  
HETATM   32  C   UNL     1      -9.247  19.844  66.162  1.00  0.00    -0.414 A  
HETATM   33  C   UNL     1      -8.291  18.883  65.832  1.00  0.00     0.047 A  
HETATM   34  C   UNL     1      -7.621  20.972  67.539  1.00  0.00    -0.181 A  
HETATM   35  C   UNL     1      -8.913  20.886  67.023  1.00  0.00    -0.120 A  
HETATM   36  C   UNL     1      -6.663  20.009  67.207  1.00  0.00    -0.250 A  
ENDBRANCH  30  31
ENDBRANCH  29  30
ENDBRANCH  15  29
ENDBRANCH  12  15
ENDBRANCH  11  12
ENDBRANCH   8  11
BRANCH   9  37
HETATM   37  C   UNL     1     -11.285  15.374  68.765  1.00  0.00    -0.301 C  
HETATM   38  C   UNL     1     -13.655  14.542  70.658  1.00  0.00     0.072 C  
HETATM   39  O   UNL     1     -11.494  16.454  69.312  1.00  0.00    -0.275 OA 
HETATM   40  C   UNL     1     -12.260  12.509  71.003  1.00  0.00    -0.198 C  
HETATM   41  C   UNL     1     -12.214  14.013  70.684  1.00  0.00    -0.372 C  
HETATM   42  N   UNL     1     -11.568  14.161  69.373  1.00  0.00    -0.284 N  
HETATM   43  C   UNL     1     -11.421  14.723  71.791  1.00  0.00    -0.139 C  
HETATM   44  H   UNL     1     -11.310  13.310  68.874  1.00  0.00     0.000 HD 
ENDBRANCH   9  37
TORSDOF 9
ENDMDL
MODEL      267
REMARK 921   NORMALIZED FREE ENERGY PREDICTED BY IDOCK:   -0.63 KCAL/MOL
REMARK 922        TOTAL FREE ENERGY PREDICTED BY IDOCK:   -3.80 KCAL/MOL
REMARK 923 INTER-LIGAND FREE ENERGY PREDICTED BY IDOCK:   -2.74 KCAL/MOL
REMARK 924 INTRA-LIGAND FREE ENERGY PREDICTED BY IDOCK:   -1.06 KCAL/MOL
REMARK 927      BINDING AFFINITY PREDICTED BY RF-SCORE:    0.00 PKD
ROOT
HETATM    1  C   UNL     1      -6.101   9.619  70.702  1.00  0.00    -0.078 C  
HETATM    2  C   UNL     1      -6.138  10.984  71.398  1.00  0.00     0.729 C  
HETATM    3  C   UNL     1      -6.432  12.113  70.418  1.00  0.00     0.449 C  
HETATM    4  C   UNL     1      -5.396  12.148  69.302  1.00  0.00    -0.064 C  
HETATM    5  C   UNL     1      -5.248  10.809  68.582  1.00  0.00    -0.041 C  
HETATM    6  C   UNL     1      -5.126   9.600  69.523  1.00  0.00    -0.035 C  
HETATM    7  C   UNL     1      -5.260   8.252  68.793  1.00  0.00    -0.028 C  
HETATM    8  N   UNL     1      -6.571   8.027  68.174  1.00  0.00    -0.055 NA 
HETATM    9  C   UNL     1      -7.725   8.417  69.004  1.00  0.00    -0.097 C  
HETATM   10  C   UNL     1      -7.512   9.131  70.353  1.00  0.00    -0.107 C  
ENDROOT
BRANCH   8  11
HETATM   11  C   UNL     1      -6.679   6.639  67.655  1.00  0.00    -0.070 C  
BRANCH  11  12
HETATM   12  C   UNL     1      -7.822   6.280  66.649  1.00  0.00    -0.104 C  
HETATM   13  H   UNL     1      -7.989   5.772  64.730  1.00  0.00     0.000 HD 
HETATM   14  O   UNL     1      -7.295   5.990  65.340  1.00  0.00    -0.072 OA 
BRANCH  12  15
HETATM   15  C   UNL     1      -8.761   5.142  67.132  1.00  0.00    -0.103 C  
BRANCH  15  16
HETATM   16  N   UNL     1      -9.721   5.570  68.158  1.00  0.00    -0.126 N  
HETATM   17  C   UNL     1      -9.383   5.761  69.478  1.00  0.00    -0.130 C  
HETATM   18  O   UNL     1      -8.261   5.585  69.938  1.00  0.00    -0.101 OA 
HETATM   19  H   UNL     1     -10.688   5.735  67.877  1.00  0.00     0.000 HD 
BRANCH  17  20
HETATM   20  C   UNL     1     -10.480   6.157  70.391  1.00  0.00    -0.288 A  
HETATM   21  C   UNL     1     -11.212   7.314  70.066  1.00  0.00    -0.234 A  
HETATM   22  H   UNL     1     -12.707   5.730  74.210  1.00  0.00     0.000 HD 
HETATM   23  C   UNL     1     -10.743   5.441  71.579  1.00  0.00    -0.262 A  
HETATM   24  C   UNL     1     -11.734   5.953  72.428  1.00  0.00    -0.253 A  
HETATM   25  C   UNL     1     -12.221   7.765  70.906  1.00  0.00    -0.166 A  
HETATM   26  C   UNL     1     -10.021   4.171  71.957  1.00  0.00    -0.250 C  
HETATM   27  O   UNL     1     -12.036   5.383  73.635  1.00  0.00     0.493 OA 
HETATM   28  C   UNL     1     -12.476   7.084  72.092  1.00  0.00    -0.193 A  
ENDBRANCH  17  20
ENDBRANCH  15  16
BRANCH  15  29
HETATM   29  C   UNL     1      -9.436   4.361  65.966  1.00  0.00    -0.173 C  
BRANCH  29  30
HETATM   30  S   UNL     1      -9.176   2.549  65.966  1.00  0.00     0.029 SA 
BRANCH  30  31
HETATM   31  C   UNL     1      -8.640   2.184  67.622  1.00  0.00    -0.091 A  
HETATM   32  C   UNL     1      -6.858   2.391  69.263  1.00  0.00    -0.033 A  
HETATM   33  C   UNL     1      -7.323   2.527  67.954  1.00  0.00    -0.052 A  
HETATM   34  C   UNL     1      -9.019   1.556  69.931  1.00  0.00    -0.128 A  
HETATM   35  C   UNL     1      -7.711   1.911  70.254  1.00  0.00    -0.043 A  
HETATM   36  C   UNL     1      -9.484   1.691  68.619  1.00  0.00    -0.222 A  
ENDBRANCH  30  31
ENDBRANCH  29  30
ENDBRANCH  15  29
ENDBRANCH  12  15
ENDBRANCH  11  12
ENDBRANCH   8  11
BRANCH   9  37
HETATM   37  C   UNL     1      -8.706   9.274  68.142  1.00  0.00    -0.125 C  
HETATM   38  C   UNL     1      -9.034  11.771  66.260  1.00  0.00    -0.176 C  
HETATM   39  O   UNL     1      -9.795   9.681  68.538  1.00  0.00    -0.151 OA 
HETATM   40  C   UNL     1      -8.133  10.210  64.543  1.00  0.00    -0.160 C  
HETATM   41  C   UNL     1      -8.951  10.297  65.842  1.00  0.00    -0.158 C  
HETATM   42  N   UNL     1      -8.248   9.495  66.854  1.00  0.00    -0.112 N  
HETATM   43  C   UNL     1     -10.361   9.754  65.568  1.00  0.00     0.044 C  
HETATM   44  H   UNL     1      -7.359   9.072  66.588  1.00  0.00     0.000 HD 
ENDBRANCH   9  37
TORSDOF 9
ENDMDL
MODEL      268
REMARK 921   NORMALIZED FREE ENERGY PREDICTED BY IDOCK:   -0.49 KCAL/MOL
REMARK 922        TOTAL FREE ENERGY PREDICTED BY IDOCK:   -3.58 KCAL/MOL
REMARK 923 INTER-LIGAND FREE ENERGY PREDICTED BY IDOCK:   -3.77 KCAL/MOL
REMARK 924 INTRA-LIGAND FREE ENERGY PREDICTED BY IDOCK:    0.18 KCAL/MOL
REMARK 927      BINDING AFFINITY PREDICTED BY RF-SCORE:    0.00 PKD
ROOT
HETATM    1  C   UNL     1     -10.870  10.085  71.051  1.00  0.00    -0.186 C  
HETATM    2  C   UNL     1     -11.372   9.246  72.231  1.00  0.00     0.112 C  
HETATM    3  C   UNL     1     -12.327   8.148  71.781  1.00  0.00    -0.357 C  
HETATM    4  C   UNL     1     -13.522   8.736  71.042  1.00  0.00     0.047 C  
HETATM    5  C   UNL     1     -13.119   9.636  69.875  1.00  0.00     1.145 C  
HETATM    6  C   UNL     1     -12.021  10.655  70.219  1.00  0.00    -0.425 C  
HETATM    7  C   UNL     1     -11.436  11.353  68.978  1.00  0.00    -0.300 C  
HETATM    8  N   UNL     1     -10.740  10.454  68.052  1.00  0.00    -0.228 NA 
HETATM    9  C   UNL     1      -9.862   9.458  68.693  1.00  0.00    -0.163 C  
HETATM   10  C   UNL     1      -9.824   9.324  70.228  1.00  0.00    -0.265 C  
ENDROOT
BRANCH   8  11
HETATM   11  C   UNL     1     -10.051  11.225  66.985  1.00  0.00    -0.206 C  
BRANCH  11  12
HETATM   12  C   UNL     1      -8.492  11.155  66.868  1.00  0.00    -0.147 C  
HETATM   13  H   UNL     1      -7.103  11.499  65.481  1.00  0.00     0.000 HD 
HETATM   14  O   UNL     1      -8.049  11.541  65.553  1.00  0.00     0.244 OA 
BRANCH  12  15
HETATM   15  C   UNL     1      -7.736  11.953  67.964  1.00  0.00    -0.132 C  
BRANCH  15  16
HETATM   16  N   UNL     1      -8.463  13.140  68.431  1.00  0.00    -0.262 N  
HETATM   17  C   UNL     1      -8.709  14.237  67.639  1.00  0.00    -0.191 C  
HETATM   18  O   UNL     1      -8.342  14.347  66.475  1.00  0.00     0.043 OA 
HETATM   19  H   UNL     1      -8.803  13.151  69.393  1.00  0.00     0.000 HD 
BRANCH  17  20
HETATM   20  C   UNL     1      -9.423  15.368  68.277  1.00  0.00    -0.200 A  
HETATM   21  C   UNL     1      -8.965  16.668  67.998  1.00  0.00    -0.211 A  
HETATM   22  H   UNL     1     -12.382  16.953  71.186  1.00  0.00     0.000 HD 
HETATM   23  C   UNL     1     -10.482  15.149  69.186  1.00  0.00    -0.252 A  
HETATM   24  C   UNL     1     -11.026  16.277  69.815  1.00  0.00    -0.354 A  
HETATM   25  C   UNL     1      -9.562  17.767  68.602  1.00  0.00    -0.322 A  
HETATM   26  C   UNL     1     -11.042  13.782  69.491  1.00  0.00    -0.156 C  
HETATM   27  O   UNL     1     -12.013  16.189  70.759  1.00  0.00    -0.344 OA 
HETATM   28  C   UNL     1     -10.590  17.567  69.517  1.00  0.00     0.204 A  
ENDBRANCH  17  20
ENDBRANCH  15  16
BRANCH  15  29
HETATM   29  C   UNL     1      -7.224  11.061  69.134  1.00  0.00    -0.121 C  
BRANCH  29  30
HETATM   30  S   UNL     1      -5.777  10.005  68.755  1.00  0.00    -0.034 SA 
BRANCH  30  31
HETATM   31  C   UNL     1      -5.932   8.633  69.874  1.00  0.00    -0.031 A  
HETATM   32  C   UNL     1      -5.261   6.351  70.381  1.00  0.00    -0.014 A  
HETATM   33  C   UNL     1      -5.297   7.438  69.508  1.00  0.00    -0.015 A  
HETATM   34  C   UNL     1      -6.504   7.628  72.004  1.00  0.00    -0.043 A  
HETATM   35  C   UNL     1      -5.860   6.449  71.634  1.00  0.00    -0.036 A  
HETATM   36  C   UNL     1      -6.541   8.718  71.128  1.00  0.00    -0.071 A  
ENDBRANCH  30  31
ENDBRANCH  29  30
ENDBRANCH  15  29
ENDBRANCH  12  15
ENDBRANCH  11  12
ENDBRANCH   8  11
BRANCH   9  37
HETATM   37  C   UNL     1     -10.156   8.051  68.082  1.00  0.00    -0.197 C  
HETATM   38  C   UNL     1      -8.957   5.508  66.674  1.00  0.00    -0.118 C  
HETATM   39  O   UNL     1     -11.057   7.824  67.278  1.00  0.00    -0.118 OA 
HETATM   40  C   UNL     1      -8.331   4.892  69.004  1.00  0.00    -0.082 C  
HETATM   41  C   UNL     1      -9.359   5.652  68.148  1.00  0.00    -0.111 C  
HETATM   42  N   UNL     1      -9.326   7.058  68.575  1.00  0.00    -0.136 N  
HETATM   43  C   UNL     1     -10.741   5.023  68.374  1.00  0.00     0.268 C  
HETATM   44  H   UNL     1      -8.643   7.321  69.285  1.00  0.00     0.000 HD 
ENDBRANCH   9  37
TORSDOF 9
ENDMDL
MODEL      269
REMARK 921   NORMALIZED FREE ENERGY PREDICTED BY IDOCK:   -0.20 KCAL/MOL
REMARK 922        TOTAL FREE ENERGY PREDICTED BY IDOCK:   -3.15 KCAL/MOL
REMARK 923 INTER-LIGAND FREE ENERGY PREDICTED BY IDOCK:   -2.82 KCAL/MOL
REMARK 924 INTRA-LIGAND FREE ENERGY PREDICTED BY IDOCK:   -0.33 KCAL/MOL
REMARK 927      BINDING AFFINITY PREDICTED BY RF-SCORE:    0.00 PKD
ROOT
HETATM    1  C   UNL     1     -11.353  12.023  68.148  1.00  0.00    -0.349 C  
HETATM    2  C   UNL     1     -12.604  11.156  68.328  1.00  0.00     1.516 C  
HETATM    3  C   UNL     1     -12.991  11.017  69.795  1.00  0.00     0.320 C  
HETATM    4  C   UNL     1     -11.849  10.421  70.605  1.00  0.00    -0.445 C  
HETATM    5  C   UNL     1     -10.538  11.190  70.446  1.00  0.00     0.928 C  
HETATM    6  C   UNL     1     -10.177  11.520  68.989  1.00  0.00    -0.109 C  
HETATM    7  C   UNL     1      -9.018  12.524  68.868  1.00  0.00     0.324 C  
HETATM    8  N   UNL     1      -9.307  13.852  69.420  1.00  0.00     0.509 NA 
HETATM    9  C   UNL     1     -10.644  14.383  69.094  1.00  0.00    -0.218 C  
HETATM   10  C   UNL     1     -11.670  13.511  68.345  1.00  0.00    -0.393 C  
ENDROOT
BRANCH   8  11
HETATM   11  C   UNL     1      -8.216  14.807  69.100  1.00  0.00    -0.106 C  
BRANCH  11  12
HETATM   12  C   UNL     1      -6.725  14.347  69.232  1.00  0.00    -0.126 C  
HETATM   13  H   UNL     1      -5.706  12.907  70.158  1.00  0.00     0.000 HD 
HETATM   14  O   UNL     1      -6.610  13.186  70.077  1.00  0.00     0.009 OA 
BRANCH  12  15
HETATM   15  C   UNL     1      -6.007  14.119  67.875  1.00  0.00    -0.135 C  
BRANCH  15  16
HETATM   16  N   UNL     1      -6.704  13.172  66.996  1.00  0.00    -0.180 N  
HETATM   17  C   UNL     1      -6.416  11.827  66.953  1.00  0.00    -0.121 C  
HETATM   18  O   UNL     1      -5.549  11.283  67.626  1.00  0.00    -0.043 OA 
HETATM   19  H   UNL     1      -7.439  13.530  66.385  1.00  0.00     0.000 HD 
BRANCH  17  20
HETATM   20  C   UNL     1      -7.186  11.017  65.981  1.00  0.00    -0.014 A  
HETATM   21  C   UNL     1      -8.529  10.732  66.289  1.00  0.00    -0.161 A  
HETATM   22  H   UNL     1      -7.402   8.466  62.351  1.00  0.00     0.000 HD 
HETATM   23  C   UNL     1      -6.580  10.491  64.818  1.00  0.00     0.027 A  
HETATM   24  C   UNL     1      -7.363   9.652  64.013  1.00  0.00    -0.121 A  
HETATM   25  C   UNL     1      -9.290   9.938  65.442  1.00  0.00    -0.297 A  
HETATM   26  C   UNL     1      -5.159  10.797  64.415  1.00  0.00    -0.122 C  
HETATM   27  O   UNL     1      -6.871   9.034  62.896  1.00  0.00    -0.094 OA 
HETATM   28  C   UNL     1      -8.701   9.393  64.306  1.00  0.00    -0.224 A  
ENDBRANCH  17  20
ENDBRANCH  15  16
BRANCH  15  29
HETATM   29  C   UNL     1      -5.624  15.443  67.150  1.00  0.00     0.515 C  
BRANCH  29  30
HETATM   30  S   UNL     1      -7.006  16.344  66.357  1.00  0.00     0.445 SA 
BRANCH  30  31
HETATM   31  C   UNL     1      -6.873  17.999  66.993  1.00  0.00    -0.188 A  
HETATM   32  C   UNL     1      -7.612  19.580  68.686  1.00  0.00    -0.389 A  
HETATM   33  C   UNL     1      -7.732  18.347  68.045  1.00  0.00    -0.273 A  
HETATM   34  C   UNL     1      -5.776  20.146  67.230  1.00  0.00    -0.184 A  
HETATM   35  C   UNL     1      -6.627  20.478  68.282  1.00  0.00    -0.315 A  
HETATM   36  C   UNL     1      -5.897  18.910  66.587  1.00  0.00    -0.176 A  
ENDBRANCH  30  31
ENDBRANCH  29  30
ENDBRANCH  15  29
ENDBRANCH  12  15
ENDBRANCH  11  12
ENDBRANCH   8  11
BRANCH   9  37
HETATM   37  C   UNL     1     -11.311  14.918  70.400  1.00  0.00    -0.243 C  
HETATM   38  C   UNL     1     -13.994  15.326  71.989  1.00  0.00    -0.645 C  
HETATM   39  O   UNL     1     -11.093  16.028  70.880  1.00  0.00    -0.339 OA 
HETATM   40  C   UNL     1     -13.649  12.932  72.580  1.00  0.00    -0.460 C  
HETATM   41  C   UNL     1     -12.931  14.244  72.222  1.00  0.00    -0.376 C  
HETATM   42  N   UNL     1     -12.149  13.994  71.003  1.00  0.00    -0.424 N  
HETATM   43  C   UNL     1     -12.032  14.644  73.401  1.00  0.00    -0.144 C  
HETATM   44  H   UNL     1     -12.229  13.074  70.570  1.00  0.00     0.000 HD 
ENDBRANCH   9  37
TORSDOF 9
ENDMDL
MODEL      270
REMARK 921   NORMALIZED FREE ENERGY PREDICTED BY IDOCK:   -0.14 KCAL/MOL
REMARK 922        TOTAL FREE ENERGY PREDICTED BY IDOCK:   -3.05 KCAL/MOL
REMARK 923 INTER-LIGAND FREE ENERGY PREDICTED BY IDOCK:   -1.17 KCAL/MOL
REMARK 924 INTRA-LIGAND FREE ENERGY PREDICTED BY IDOCK:   -1.88 KCAL/MOL
REMARK 927      BINDING AFFINITY PREDICTED BY RF-SCORE:    0.00 PKD
ROOT
HETATM    1  C   UNL     1     -11.220   7.422  71.134  1.00  0.00    -0.279 C  
HETATM    2  C   UNL     1     -12.583   8.121  71.163  1.00  0.00    -0.162 C  
HETATM    3  C   UNL     1     -12.514   9.523  70.572  1.00  0.00     0.008 C  
HETATM    4  C   UNL     1     -11.497  10.378  71.317  1.00  0.00    -0.114 C  
HETATM    5  C   UNL     1     -10.113   9.735  71.387  1.00  0.00     0.391 C  
HETATM    6  C   UNL     1     -10.129   8.257  71.808  1.00  0.00    -0.290 C  
HETATM    7  C   UNL     1      -8.774   7.557  71.604  1.00  0.00    -0.116 C  
HETATM    8  N   UNL     1      -8.342   7.473  70.205  1.00  0.00    -0.131 NA 
HETATM    9  C   UNL     1      -9.400   7.098  69.249  1.00  0.00    -0.146 C  
HETATM   10  C   UNL     1     -10.861   6.954  69.718  1.00  0.00    -0.295 C  
ENDROOT
BRANCH   8  11
HETATM   11  C   UNL     1      -7.127   6.628  70.077  1.00  0.00    -0.071 C  
BRANCH  11  12
HETATM   12  C   UNL     1      -6.738   6.043  68.679  1.00  0.00    -0.061 C  
HETATM   13  H   UNL     1      -5.232   6.202  67.384  1.00  0.00     0.000 HD 
HETATM   14  O   UNL     1      -5.468   6.556  68.232  1.00  0.00    -0.010 OA 
BRANCH  12  15
HETATM   15  C   UNL     1      -6.765   4.493  68.608  1.00  0.00    -0.047 C  
BRANCH  15  16
HETATM   16  N   UNL     1      -7.858   3.890  69.382  1.00  0.00    -0.052 N  
HETATM   17  C   UNL     1      -7.659   3.175  70.540  1.00  0.00    -0.040 C  
HETATM   18  O   UNL     1      -6.561   2.956  71.039  1.00  0.00    -0.029 OA 
HETATM   19  H   UNL     1      -8.813   4.008  69.043  1.00  0.00     0.000 HD 
BRANCH  17  20
HETATM   20  C   UNL     1      -8.866   2.600  71.178  1.00  0.00    -0.134 A  
HETATM   21  C   UNL     1      -9.822   1.999  70.340  1.00  0.00     0.086 A  
HETATM   22  H   UNL     1     -11.483   2.001  74.717  1.00  0.00     0.000 HD 
HETATM   23  C   UNL     1      -9.085   2.709  72.569  1.00  0.00    -0.119 A  
HETATM   24  C   UNL     1     -10.304   2.225  73.064  1.00  0.00    -0.142 A  
HETATM   25  C   UNL     1     -10.997   1.485  70.872  1.00  0.00     1.849 A  
HETATM   26  C   UNL     1      -8.078   3.305  73.522  1.00  0.00    -0.074 C  
HETATM   27  O   UNL     1     -10.657   2.329  74.382  1.00  0.00    -0.141 OA 
HETATM   28  C   UNL     1     -11.238   1.605  72.236  1.00  0.00     0.413 A  
ENDBRANCH  17  20
ENDBRANCH  15  16
BRANCH  15  29
HETATM   29  C   UNL     1      -6.683   3.940  67.153  1.00  0.00    -0.047 C  
BRANCH  29  30
HETATM   30  S   UNL     1      -8.108   4.332  66.072  1.00  0.00    -0.102 SA 
BRANCH  30  31
HETATM   31  C   UNL     1      -7.407   5.302  64.758  1.00  0.00    -0.067 A  
HETATM   32  C   UNL     1      -7.639   7.273  63.353  1.00  0.00    -0.117 A  
HETATM   33  C   UNL     1      -8.164   6.386  64.293  1.00  0.00    -0.005 A  
HETATM   34  C   UNL     1      -5.590   6.002  63.315  1.00  0.00    -0.018 A  
HETATM   35  C   UNL     1      -6.348   7.083  62.868  1.00  0.00    -0.048 A  
HETATM   36  C   UNL     1      -6.117   5.113  64.257  1.00  0.00    -0.022 A  
ENDBRANCH  30  31
ENDBRANCH  29  30
ENDBRANCH  15  29
ENDBRANCH  12  15
ENDBRANCH  11  12
ENDBRANCH   8  11
BRANCH   9  37
HETATM   37  C   UNL     1      -9.365   8.083  68.039  1.00  0.00    -0.138 C  
HETATM   38  C   UNL     1     -10.005  10.985  67.009  1.00  0.00    -0.223 C  
HETATM   39  O   UNL     1      -9.782   7.810  66.915  1.00  0.00    -0.182 OA 
HETATM   40  C   UNL     1      -7.844  11.524  68.122  1.00  0.00    -0.128 C  
HETATM   41  C   UNL     1      -8.633  10.419  67.400  1.00  0.00    -0.125 C  
HETATM   42  N   UNL     1      -8.768   9.297  68.340  1.00  0.00    -0.128 N  
HETATM   43  C   UNL     1      -7.859  10.012  66.138  1.00  0.00    -0.114 C  
HETATM   44  H   UNL     1      -8.396   9.420  69.281  1.00  0.00     0.000 HD 
ENDBRANCH   9  37
TORSDOF 9
ENDMDL
MODEL      271
REMARK 921   NORMALIZED FREE ENERGY PREDICTED BY IDOCK:   -0.02 KCAL/MOL
REMARK 922        TOTAL FREE ENERGY PREDICTED BY IDOCK:   -2.86 KCAL/MOL
REMARK 923 INTER-LIGAND FREE ENERGY PREDICTED BY IDOCK:   -5.29 KCAL/MOL
REMARK 924 INTRA-LIGAND FREE ENERGY PREDICTED BY IDOCK:    2.43 KCAL/MOL
REMARK 927      BINDING AFFINITY PREDICTED BY RF-SCORE:    0.00 PKD
ROOT
HETATM    1  C   UNL     1     -10.591  16.954  67.077  1.00  0.00    -0.230 C  
HETATM    2  C   UNL     1     -10.552  18.338  67.734  1.00  0.00    -0.415 C  
HETATM    3  C   UNL     1      -9.791  18.318  69.054  1.00  0.00    -0.270 C  
HETATM    4  C   UNL     1     -10.410  17.320  70.024  1.00  0.00     0.452 C  
HETATM    5  C   UNL     1     -10.541  15.916  69.435  1.00  0.00    -0.263 C  
HETATM    6  C   UNL     1     -11.141  15.883  68.021  1.00  0.00    -0.334 C  
HETATM    7  C   UNL     1     -11.007  14.509  67.341  1.00  0.00    -0.303 C  
HETATM    8  N   UNL     1      -9.623  14.088  67.097  1.00  0.00    -0.237 NA 
HETATM    9  C   UNL     1      -8.736  15.144  66.576  1.00  0.00    -0.245 C  
HETATM   10  C   UNL     1      -9.238  16.595  66.448  1.00  0.00    -0.318 C  
ENDROOT
BRANCH   8  11
HETATM   11  C   UNL     1      -9.584  12.849  66.279  1.00  0.00    -0.243 C  
BRANCH  11  12
HETATM   12  C   UNL     1     -10.830  11.903  66.253  1.00  0.00    -0.282 C  
HETATM   13  H   UNL     1     -11.943  10.972  64.888  1.00  0.00     0.000 HD 
HETATM   14  O   UNL     1     -11.187  11.546  64.904  1.00  0.00    -0.263 OA 
BRANCH  12  15
HETATM   15  C   UNL     1     -10.688  10.638  67.142  1.00  0.00    -0.272 C  
BRANCH  15  16
HETATM   16  N   UNL     1      -9.664   9.699  66.666  1.00  0.00    -0.194 N  
HETATM   17  C   UNL     1      -9.059   9.802  65.435  1.00  0.00    -0.204 C  
HETATM   18  O   UNL     1      -9.313  10.669  64.607  1.00  0.00    -0.204 OA 
HETATM   19  H   UNL     1      -9.389   8.932  67.279  1.00  0.00     0.000 HD 
BRANCH  17  20
HETATM   20  C   UNL     1      -8.073   8.749  65.093  1.00  0.00    -0.133 A  
HETATM   21  C   UNL     1      -7.955   8.383  63.740  1.00  0.00    -0.159 A  
HETATM   22  H   UNL     1      -5.208   5.570  66.282  1.00  0.00     0.000 HD 
HETATM   23  C   UNL     1      -7.327   8.088  66.093  1.00  0.00    -0.074 A  
HETATM   24  C   UNL     1      -6.496   7.037  65.681  1.00  0.00    -0.047 A  
HETATM   25  C   UNL     1      -7.084   7.370  63.361  1.00  0.00    -0.070 A  
HETATM   26  C   UNL     1      -7.381   8.466  67.552  1.00  0.00    -0.093 C  
HETATM   27  O   UNL     1      -5.771   6.282  66.562  1.00  0.00    -0.015 OA 
HETATM   28  C   UNL     1      -6.359   6.694  64.337  1.00  0.00    -0.038 A  
ENDBRANCH  17  20
ENDBRANCH  15  16
BRANCH  15  29
HETATM   29  C   UNL     1     -10.547  10.964  68.659  1.00  0.00    -0.195 C  
BRANCH  29  30
HETATM   30  S   UNL     1     -11.799  10.200  69.756  1.00  0.00    -0.020 SA 
BRANCH  30  31
HETATM   31  C   UNL     1     -11.025   8.707  70.331  1.00  0.00    -0.235 A  
HETATM   32  C   UNL     1     -11.324   6.358  70.885  1.00  0.00    -0.398 A  
HETATM   33  C   UNL     1     -11.859   7.603  70.553  1.00  0.00    -0.102 A  
HETATM   34  C   UNL     1      -9.106   7.299  70.787  1.00  0.00    -0.152 A  
HETATM   35  C   UNL     1      -9.944   6.206  70.996  1.00  0.00    -0.221 A  
HETATM   36  C   UNL     1      -9.644   8.547  70.456  1.00  0.00    -0.194 A  
ENDBRANCH  30  31
ENDBRANCH  29  30
ENDBRANCH  15  29
ENDBRANCH  12  15
ENDBRANCH  11  12
ENDBRANCH   8  11
BRANCH   9  37
HETATM   37  C   UNL     1      -7.412  15.152  67.404  1.00  0.00    -0.210 C  
HETATM   38  C   UNL     1      -5.801  16.493  69.749  1.00  0.00    -0.196 C  
HETATM   39  O   UNL     1      -6.288  15.140  66.907  1.00  0.00    -0.087 OA 
HETATM   40  C   UNL     1      -7.237  15.029  71.161  1.00  0.00     1.574 C  
HETATM   41  C   UNL     1      -6.561  15.159  69.786  1.00  0.00    -0.177 C  
HETATM   42  N   UNL     1      -7.625  15.124  68.773  1.00  0.00    -0.126 N  
HETATM   43  C   UNL     1      -5.575  13.995  69.614  1.00  0.00    -0.098 C  
HETATM   44  H   UNL     1      -8.589  15.076  69.101  1.00  0.00     0.000 HD 
ENDBRANCH   9  37
TORSDOF 9
ENDMDL
MODEL      272
REMARK 921   NORMALIZED FREE ENERGY PREDICTED BY IDOCK:    0.05 KCAL/MOL
REMARK 922        TOTAL FREE ENERGY PREDICTED BY IDOCK:   -2.76 KCAL/MOL
REMARK 923 INTER-LIGAND FREE ENERGY PREDICTED BY IDOCK:   -2.07 KCAL/MOL
REMARK 924 INTRA-LIGAND FREE ENERGY PREDICTED BY IDOCK:   -0.70 KCAL/MOL
REMARK 927      BINDING AFFINITY PREDICTED BY RF-SCORE:    0.00 PKD
ROOT
HETATM    1  C   UNL     1      -7.160  12.501  67.773  1.00  0.00    -0.126 C  
HETATM    2  C   UNL     1      -7.801  13.848  67.427  1.00  0.00    -0.177 C  
HETATM    3  C   UNL     1      -9.249  13.689  66.979  1.00  0.00    -0.254 C  
HETATM    4  C   UNL     1      -9.347  12.764  65.773  1.00  0.00     0.075 C  
HETATM    5  C   UNL     1      -8.683  11.407  66.006  1.00  0.00    -0.131 C  
HETATM    6  C   UNL     1      -7.280  11.494  66.628  1.00  0.00    -0.068 C  
HETATM    7  C   UNL     1      -6.750  10.132  67.109  1.00  0.00    -0.074 C  
HETATM    8  N   UNL     1      -7.529   9.528  68.195  1.00  0.00    -0.078 NA 
HETATM    9  C   UNL     1      -7.938  10.463  69.260  1.00  0.00    -0.157 C  
HETATM   10  C   UNL     1      -7.662  11.973  69.123  1.00  0.00     0.200 C  
ENDROOT
BRANCH   8  11
HETATM   11  C   UNL     1      -6.851   8.317  68.722  1.00  0.00    -0.062 C  
BRANCH  11  12
HETATM   12  C   UNL     1      -7.534   6.918  68.558  1.00  0.00    -0.096 C  
HETATM   13  H   UNL     1      -7.050   5.117  67.859  1.00  0.00     0.000 HD 
HETATM   14  O   UNL     1      -6.636   5.965  67.959  1.00  0.00    -0.048 OA 
BRANCH  12  15
HETATM   15  C   UNL     1      -8.150   6.353  69.866  1.00  0.00    -0.121 C  
BRANCH  15  16
HETATM   16  N   UNL     1      -9.500   6.858  70.144  1.00  0.00    -0.162 N  
HETATM   17  C   UNL     1     -10.244   6.468  71.234  1.00  0.00    -0.198 C  
HETATM   18  O   UNL     1      -9.870   5.658  72.074  1.00  0.00    -0.160 OA 
HETATM   19  H   UNL     1      -9.907   7.533  69.496  1.00  0.00     0.000 HD 
BRANCH  17  20
HETATM   20  C   UNL     1     -11.605   7.045  71.347  1.00  0.00    -0.329 A  
HETATM   21  C   UNL     1     -12.534   6.721  70.342  1.00  0.00     0.055 A  
HETATM   22  H   UNL     1     -14.507   9.823  73.240  1.00  0.00     0.000 HD 
HETATM   23  C   UNL     1     -11.940   7.939  72.387  1.00  0.00    -0.373 A  
HETATM   24  C   UNL     1     -13.220   8.510  72.350  1.00  0.00    -0.282 A  
HETATM   25  C   UNL     1     -13.810   7.267  70.365  1.00  0.00     1.507 A  
HETATM   26  C   UNL     1     -11.000   8.290  73.513  1.00  0.00     1.169 C  
HETATM   27  O   UNL     1     -13.640   9.436  73.265  1.00  0.00     0.143 OA 
HETATM   28  C   UNL     1     -14.149   8.168  71.369  1.00  0.00    -0.396 A  
ENDBRANCH  17  20
ENDBRANCH  15  16
BRANCH  15  29
HETATM   29  C   UNL     1      -8.055   4.802  69.973  1.00  0.00    -0.069 C  
BRANCH  29  30
HETATM   30  S   UNL     1      -9.458   3.868  69.258  1.00  0.00    -0.166 SA 
BRANCH  30  31
HETATM   31  C   UNL     1      -9.375   4.217  67.517  1.00  0.00    -0.162 A  
HETATM   32  C   UNL     1      -8.458   3.558  65.364  1.00  0.00    -0.107 A  
HETATM   33  C   UNL     1      -8.496   3.437  66.753  1.00  0.00    -0.108 A  
HETATM   34  C   UNL     1     -10.172   5.249  65.475  1.00  0.00     0.168 A  
HETATM   35  C   UNL     1      -9.302   4.461  64.724  1.00  0.00    -0.160 A  
HETATM   36  C   UNL     1     -10.209   5.129  66.867  1.00  0.00    -0.279 A  
ENDBRANCH  30  31
ENDBRANCH  29  30
ENDBRANCH  15  29
ENDBRANCH  12  15
ENDBRANCH  11  12
ENDBRANCH   8  11
BRANCH   9  37
HETATM   37  C   UNL     1      -9.459  10.265  69.554  1.00  0.00    -0.185 C  
HETATM   38  C   UNL     1     -11.923  11.153  71.294  1.00  0.00    -0.051 C  
HETATM   39  O   UNL     1      -9.991   9.170  69.721  1.00  0.00    -0.178 OA 
HETATM   40  C   UNL     1     -11.997  13.041  69.672  1.00  0.00    -0.367 C  
HETATM   41  C   UNL     1     -11.610  11.563  69.848  1.00  0.00    -0.308 C  
HETATM   42  N   UNL     1     -10.172  11.452  69.563  1.00  0.00    -0.414 N  
HETATM   43  C   UNL     1     -12.447  10.720  68.876  1.00  0.00     0.462 C  
HETATM   44  H   UNL     1      -9.663  12.312  69.358  1.00  0.00     0.000 HD 
ENDBRANCH   9  37
TORSDOF 9
ENDMDL
MODEL      273
REMARK 921   NORMALIZED FREE ENERGY PREDICTED BY IDOCK:    0.09 KCAL/MOL
REMARK 922        TOTAL FREE ENERGY PREDICTED BY IDOCK:   -2.70 KCAL/MOL
REMARK 923 INTER-LIGAND FREE ENERGY PREDICTED BY IDOCK:   -1.75 KCAL/MOL
REMARK 924 INTRA-LIGAND FREE ENERGY PREDICTED BY IDOCK:   -0.95 KCAL/MOL
REMARK 927      BINDING AFFINITY PREDICTED BY RF-SCORE:    0.00 PKD
ROOT
HETATM    1  C   UNL     1      -9.490   5.403  69.031  1.00  0.00    -0.176 C  
HETATM    2  C   UNL     1     -10.043   5.144  67.626  1.00  0.00    -0.204 C  
HETATM    3  C   UNL     1     -10.989   6.250  67.176  1.00  0.00    -0.453 C  
HETATM    4  C   UNL     1     -12.150   6.403  68.150  1.00  0.00     2.728 C  
HETATM    5  C   UNL     1     -11.694   6.613  69.593  1.00  0.00    -0.216 C  
HETATM    6  C   UNL     1     -10.603   5.634  70.055  1.00  0.00    -0.388 C  
HETATM    7  C   UNL     1      -9.964   6.033  71.397  1.00  0.00    -0.186 C  
HETATM    8  N   UNL     1      -9.240   7.307  71.367  1.00  0.00    -0.143 NA 
HETATM    9  C   UNL     1      -8.396   7.514  70.176  1.00  0.00    -0.134 C  
HETATM   10  C   UNL     1      -8.418   6.500  69.016  1.00  0.00    -0.125 C  
ENDROOT
BRANCH   8  11
HETATM   11  C   UNL     1      -8.504   7.527  72.638  1.00  0.00    -0.117 C  
BRANCH  11  12
HETATM   12  C   UNL     1      -8.167   6.305  73.556  1.00  0.00    -0.117 C  
HETATM   13  H   UNL     1      -9.010   4.575  74.072  1.00  0.00     0.000 HD 
HETATM   14  O   UNL     1      -9.214   5.317  73.515  1.00  0.00    -0.130 OA 
BRANCH  12  15
HETATM   15  C   UNL     1      -6.784   5.659  73.274  1.00  0.00    -0.078 C  
BRANCH  15  16
HETATM   16  N   UNL     1      -6.634   5.176  71.895  1.00  0.00    -0.039 N  
HETATM   17  C   UNL     1      -6.955   3.896  71.504  1.00  0.00    -0.031 C  
HETATM   18  O   UNL     1      -7.384   3.029  72.256  1.00  0.00    -0.047 OA 
HETATM   19  H   UNL     1      -6.273   5.821  71.193  1.00  0.00     0.000 HD 
BRANCH  17  20
HETATM   20  C   UNL     1      -6.707   3.558  70.083  1.00  0.00    -0.033 A  
HETATM   21  C   UNL     1      -5.682   4.254  69.417  1.00  0.00    -0.017 A  
HETATM   22  H   UNL     1      -7.846   1.488  66.322  1.00  0.00     0.000 HD 
HETATM   23  C   UNL     1      -7.511   2.619  69.400  1.00  0.00    -0.044 A  
HETATM   24  C   UNL     1      -7.263   2.442  68.031  1.00  0.00    -0.048 A  
HETATM   25  C   UNL     1      -5.431   4.016  68.072  1.00  0.00    -0.016 A  
HETATM   26  C   UNL     1      -8.594   1.812  70.071  1.00  0.00    -0.093 C  
HETATM   27  O   UNL     1      -8.014   1.608  67.249  1.00  0.00    -0.063 OA 
HETATM   28  C   UNL     1      -6.229   3.112  67.379  1.00  0.00    -0.032 A  
ENDBRANCH  17  20
ENDBRANCH  15  16
BRANCH  15  29
HETATM   29  C   UNL     1      -5.586   6.541  73.736  1.00  0.00    -0.050 C  
BRANCH  29  30
HETATM   30  S   UNL     1      -5.873   8.349  73.710  1.00  0.00    -0.110 SA 
BRANCH  30  31
HETATM   31  C   UNL     1      -5.518   8.825  72.034  1.00  0.00    -0.052 A  
HETATM   32  C   UNL     1      -5.144   8.069  69.753  1.00  0.00    -0.023 A  
HETATM   33  C   UNL     1      -5.305   7.792  71.111  1.00  0.00    -0.030 A  
HETATM   34  C   UNL     1      -5.397  10.422  70.216  1.00  0.00    -0.051 A  
HETATM   35  C   UNL     1      -5.197   9.387  69.305  1.00  0.00    -0.036 A  
HETATM   36  C   UNL     1      -5.558  10.143  71.577  1.00  0.00     0.028 A  
ENDBRANCH  30  31
ENDBRANCH  29  30
ENDBRANCH  15  29
ENDBRANCH  12  15
ENDBRANCH  11  12
ENDBRANCH   8  11
BRANCH   9  37
HETATM   37  C   UNL     1      -8.677   8.936  69.593  1.00  0.00    -0.140 C  
HETATM   38  C   UNL     1      -7.968  11.035  67.362  1.00  0.00    -0.119 C  
HETATM   39  O   UNL     1      -8.708   9.963  70.267  1.00  0.00    -0.183 OA 
HETATM   40  C   UNL     1      -9.519   9.647  65.995  1.00  0.00    -0.284 C  
HETATM   41  C   UNL     1      -9.202  10.123  67.423  1.00  0.00    -0.141 C  
HETATM   42  N   UNL     1      -8.939   8.926  68.233  1.00  0.00    -0.137 N  
HETATM   43  C   UNL     1     -10.407  10.914  67.952  1.00  0.00    -0.216 C  
HETATM   44  H   UNL     1      -8.951   8.022  67.760  1.00  0.00     0.000 HD 
ENDBRANCH   9  37
TORSDOF 9
ENDMDL
MODEL      274
REMARK 921   NORMALIZED FREE ENERGY PREDICTED BY IDOCK:    0.41 KCAL/MOL
REMARK 922        TOTAL FREE ENERGY PREDICTED BY IDOCK:   -2.20 KCAL/MOL
REMARK 923 INTER-LIGAND FREE ENERGY PREDICTED BY IDOCK:   -1.15 KCAL/MOL
REMARK 924 INTRA-LIGAND FREE ENERGY PREDICTED BY IDOCK:   -1.05 KCAL/MOL
REMARK 927      BINDING AFFINITY PREDICTED BY RF-SCORE:    0.00 PKD
ROOT
HETATM    1  C   UNL     1     -11.761  16.543  67.971  1.00  0.00     0.326 C  
HETATM    2  C   UNL     1     -11.811  18.059  67.756  1.00  0.00     2.057 C  
HETATM    3  C   UNL     1     -10.501  18.731  68.149  1.00  0.00    -0.372 C  
HETATM    4  C   UNL     1     -10.156  18.442  69.604  1.00  0.00     0.417 C  
HETATM    5  C   UNL     1     -10.135  16.949  69.928  1.00  0.00     0.301 C  
HETATM    6  C   UNL     1     -11.354  16.175  69.399  1.00  0.00    -0.323 C  
HETATM    7  C   UNL     1     -11.183  14.649  69.488  1.00  0.00    -0.269 C  
HETATM    8  N   UNL     1     -10.097  14.113  68.660  1.00  0.00    -0.235 NA 
HETATM    9  C   UNL     1     -10.009  14.685  67.304  1.00  0.00    -0.235 C  
HETATM   10  C   UNL     1     -10.925  15.851  66.887  1.00  0.00    -0.172 C  
ENDROOT
BRANCH   8  11
HETATM   11  C   UNL     1     -10.117  12.628  68.659  1.00  0.00    -0.122 C  
BRANCH  11  12
HETATM   12  C   UNL     1     -11.489  11.876  68.641  1.00  0.00    -0.294 C  
HETATM   13  H   UNL     1     -12.581  10.835  67.340  1.00  0.00     0.000 HD 
HETATM   14  O   UNL     1     -11.749  11.292  67.351  1.00  0.00    -0.580 OA 
BRANCH  12  15
HETATM   15  C   UNL     1     -11.651  10.821  69.769  1.00  0.00    -0.317 C  
BRANCH  15  16
HETATM   16  N   UNL     1     -10.649   9.749  69.717  1.00  0.00    -0.239 N  
HETATM   17  C   UNL     1     -10.728   8.604  70.475  1.00  0.00    -0.221 C  
HETATM   18  O   UNL     1     -11.624   8.362  71.275  1.00  0.00    -0.269 OA 
HETATM   19  H   UNL     1      -9.854   9.860  69.087  1.00  0.00     0.000 HD 
BRANCH  17  20
HETATM   20  C   UNL     1      -9.613   7.638  70.332  1.00  0.00    -0.168 A  
HETATM   21  C   UNL     1      -8.445   8.084  69.686  1.00  0.00    -0.131 A  
HETATM   22  H   UNL     1      -7.971   3.522  70.626  1.00  0.00     0.000 HD 
HETATM   23  C   UNL     1      -9.739   6.300  70.766  1.00  0.00    -0.202 A  
HETATM   24  C   UNL     1      -8.668   5.437  70.494  1.00  0.00    -0.123 A  
HETATM   25  C   UNL     1      -7.383   7.213  69.479  1.00  0.00    -0.089 A  
HETATM   26  C   UNL     1     -10.948   5.778  71.500  1.00  0.00    -0.304 C  
HETATM   27  O   UNL     1      -8.696   4.106  70.810  1.00  0.00    -0.077 OA 
HETATM   28  C   UNL     1      -7.500   5.886  69.879  1.00  0.00    -0.079 A  
ENDBRANCH  17  20
ENDBRANCH  15  16
BRANCH  15  29
HETATM   29  C   UNL     1     -11.785  11.451  71.188  1.00  0.00     0.551 C  
BRANCH  29  30
HETATM   30  S   UNL     1     -13.496  11.719  71.781  1.00  0.00     0.088 SA 
BRANCH  30  31
HETATM   31  C   UNL     1     -13.615  13.479  71.997  1.00  0.00    -0.499 A  
HETATM   32  C   UNL     1     -14.377  15.585  71.050  1.00  0.00     0.033 A  
HETATM   33  C   UNL     1     -14.133  14.217  70.924  1.00  0.00     0.257 A  
HETATM   34  C   UNL     1     -13.581  15.505  73.324  1.00  0.00    -0.399 A  
HETATM   35  C   UNL     1     -14.107  16.228  72.255  1.00  0.00     0.717 A  
HETATM   36  C   UNL     1     -13.336  14.135  73.197  1.00  0.00    -0.160 A  
ENDBRANCH  30  31
ENDBRANCH  29  30
ENDBRANCH  15  29
ENDBRANCH  12  15
ENDBRANCH  11  12
ENDBRANCH   8  11
BRANCH   9  37
HETATM   37  C   UNL     1      -8.529  15.092  67.018  1.00  0.00    -0.229 C  
HETATM   38  C   UNL     1      -6.379  17.384  67.129  1.00  0.00    -0.189 C  
HETATM   39  O   UNL     1      -7.947  14.872  65.958  1.00  0.00     0.958 OA 
HETATM   40  C   UNL     1      -6.231  16.709  69.521  1.00  0.00    -0.220 C  
HETATM   41  C   UNL     1      -6.532  16.205  68.099  1.00  0.00    -0.125 C  
HETATM   42  N   UNL     1      -7.909  15.691  68.102  1.00  0.00    -0.126 N  
HETATM   43  C   UNL     1      -5.518  15.107  67.746  1.00  0.00    -0.087 C  
HETATM   44  H   UNL     1      -8.447  15.784  68.963  1.00  0.00     0.000 HD 
ENDBRANCH   9  37
TORSDOF 9
ENDMDL
MODEL      275
REMARK 921   NORMALIZED FREE ENERGY PREDICTED BY IDOCK:    0.45 KCAL/MOL
REMARK 922        TOTAL FREE ENERGY PREDICTED BY IDOCK:   -2.14 KCAL/MOL
REMARK 923 INTER-LIGAND FREE ENERGY PREDICTED BY IDOCK:   -2.72 KCAL/MOL
REMARK 924 INTRA-LIGAND FREE ENERGY PREDICTED BY IDOCK:    0.58 KCAL/MOL
REMARK 927      BINDING AFFINITY PREDICTED BY RF-SCORE:    0.00 PKD
ROOT
HETATM    1  C   UNL     1     -12.177  13.734  69.281  1.00  0.00    -0.307 C  
HETATM    2  C   UNL     1     -13.116  14.776  69.898  1.00  0.00     0.287 C  
HETATM    3  C   UNL     1     -12.441  16.135  70.036  1.00  0.00     0.397 C  
HETATM    4  C   UNL     1     -11.180  16.033  70.884  1.00  0.00    -0.365 C  
HETATM    5  C   UNL     1     -10.202  14.975  70.374  1.00  0.00     0.150 C  
HETATM    6  C   UNL     1     -10.856  13.624  70.044  1.00  0.00     0.490 C  
HETATM    7  C   UNL     1      -9.920  12.673  69.277  1.00  0.00     0.593 C  
HETATM    8  N   UNL     1      -9.524  13.155  67.950  1.00  0.00    -0.211 NA 
HETATM    9  C   UNL     1     -10.613  13.752  67.155  1.00  0.00    -0.277 C  
HETATM   10  C   UNL     1     -12.010  13.955  67.772  1.00  0.00    -0.390 C  
ENDROOT
BRANCH   8  11
HETATM   11  C   UNL     1      -8.778  12.107  67.207  1.00  0.00    -0.182 C  
BRANCH  11  12
HETATM   12  C   UNL     1      -7.858  11.113  67.992  1.00  0.00    -0.114 C  
HETATM   13  H   UNL     1      -7.467  10.657  69.892  1.00  0.00     0.000 HD 
HETATM   14  O   UNL     1      -8.025  11.260  69.415  1.00  0.00     0.010 OA 
BRANCH  12  15
HETATM   15  C   UNL     1      -8.015   9.629  67.566  1.00  0.00    -0.106 C  
BRANCH  15  16
HETATM   16  N   UNL     1      -8.340   8.730  68.681  1.00  0.00    -0.127 N  
HETATM   17  C   UNL     1      -8.652   7.401  68.514  1.00  0.00    -0.128 C  
HETATM   18  O   UNL     1      -8.704   6.832  67.430  1.00  0.00    -0.119 OA 
HETATM   19  H   UNL     1      -8.334   9.111  69.627  1.00  0.00     0.000 HD 
BRANCH  17  20
HETATM   20  C   UNL     1      -8.993   6.642  69.741  1.00  0.00    -0.143 A  
HETATM   21  C   UNL     1      -8.341   5.413  69.949  1.00  0.00    -0.100 A  
HETATM   22  H   UNL     1     -11.512   6.003  73.343  1.00  0.00     0.000 HD 
HETATM   23  C   UNL     1      -9.984   7.101  70.636  1.00  0.00    -0.195 A  
HETATM   24  C   UNL     1     -10.308   6.264  71.714  1.00  0.00    -0.206 A  
HETATM   25  C   UNL     1      -8.652   4.633  71.055  1.00  0.00    -0.128 A  
HETATM   26  C   UNL     1     -10.684   8.429  70.488  1.00  0.00    -0.247 C  
HETATM   27  O   UNL     1     -11.292   6.570  72.613  1.00  0.00    -0.257 OA 
HETATM   28  C   UNL     1      -9.642   5.060  71.934  1.00  0.00    -0.199 A  
ENDBRANCH  17  20
ENDBRANCH  15  16
BRANCH  15  29
HETATM   29  C   UNL     1      -8.960   9.435  66.342  1.00  0.00    -0.152 C  
BRANCH  29  30
HETATM   30  S   UNL     1     -10.732   9.784  66.643  1.00  0.00     0.048 SA 
BRANCH  30  31
HETATM   31  C   UNL     1     -11.225  10.774  65.251  1.00  0.00     0.427 A  
HETATM   32  C   UNL     1     -10.673  11.522  63.004  1.00  0.00    -0.154 A  
HETATM   33  C   UNL     1     -10.320  10.870  64.186  1.00  0.00    -0.432 A  
HETATM   34  C   UNL     1     -12.845  12.004  63.934  1.00  0.00    -0.400 A  
HETATM   35  C   UNL     1     -11.941  12.084  62.877  1.00  0.00     0.166 A  
HETATM   36  C   UNL     1     -12.489  11.352  65.119  1.00  0.00     1.709 A  
ENDBRANCH  30  31
ENDBRANCH  29  30
ENDBRANCH  15  29
ENDBRANCH  12  15
ENDBRANCH  11  12
ENDBRANCH   8  11
BRANCH   9  37
HETATM   37  C   UNL     1     -10.129  15.116  66.570  1.00  0.00    -0.269 C  
HETATM   38  C   UNL     1     -10.231  18.250  66.811  1.00  0.00    -0.393 C  
HETATM   39  O   UNL     1     -10.169  15.407  65.377  1.00  0.00    -0.350 OA 
HETATM   40  C   UNL     1      -8.527  17.862  68.584  1.00  0.00    -0.272 C  
HETATM   41  C   UNL     1      -9.097  17.319  67.263  1.00  0.00    -0.228 C  
HETATM   42  N   UNL     1      -9.596  15.962  67.528  1.00  0.00    -0.220 N  
HETATM   43  C   UNL     1      -7.977  17.316  66.213  1.00  0.00    -0.330 C  
HETATM   44  H   UNL     1      -9.546  15.619  68.487  1.00  0.00     0.000 HD 
ENDBRANCH   9  37
TORSDOF 9
ENDMDL
MODEL      276
REMARK 921   NORMALIZED FREE ENERGY PREDICTED BY IDOCK:    1.31 KCAL/MOL
REMARK 922        TOTAL FREE ENERGY PREDICTED BY IDOCK:   -0.83 KCAL/MOL
REMARK 923 INTER-LIGAND FREE ENERGY PREDICTED BY IDOCK:   -2.13 KCAL/MOL
REMARK 924 INTRA-LIGAND FREE ENERGY PREDICTED BY IDOCK:    1.30 KCAL/MOL
REMARK 927      BINDING AFFINITY PREDICTED BY RF-SCORE:    0.00 PKD
ROOT
HETATM    1  C   UNL     1     -11.496  12.981  64.365  1.00  0.00    -0.409 C  
HETATM    2  C   UNL     1     -12.627  13.791  63.723  1.00  0.00    -0.057 C  
HETATM    3  C   UNL     1     -13.122  14.901  64.641  1.00  0.00     0.843 C  
HETATM    4  C   UNL     1     -13.604  14.334  65.970  1.00  0.00     2.034 C  
HETATM    5  C   UNL     1     -12.558  13.463  66.663  1.00  0.00    -0.040 C  
HETATM    6  C   UNL     1     -11.886  12.434  65.740  1.00  0.00    -0.467 C  
HETATM    7  C   UNL     1     -10.654  11.767  66.375  1.00  0.00    -0.255 C  
HETATM    8  N   UNL     1      -9.549  12.688  66.662  1.00  0.00    -0.243 NA 
HETATM    9  C   UNL     1      -9.263  13.666  65.596  1.00  0.00     0.448 C  
HETATM   10  C   UNL     1     -10.175  13.762  64.358  1.00  0.00    -0.024 C  
ENDROOT
BRANCH   8  11
HETATM   11  C   UNL     1      -8.340  11.944  67.098  1.00  0.00    -0.174 C  
BRANCH  11  12
HETATM   12  C   UNL     1      -8.306  11.295  68.522  1.00  0.00    -0.155 C  
HETATM   13  H   UNL     1      -7.979  11.879  70.398  1.00  0.00     0.000 HD 
HETATM   14  O   UNL     1      -8.000  12.273  69.534  1.00  0.00     0.596 OA 
BRANCH  12  15
HETATM   15  C   UNL     1      -9.586  10.498  68.889  1.00  0.00    -0.193 C  
BRANCH  15  16
HETATM   16  N   UNL     1      -9.391   9.043  68.888  1.00  0.00    -0.143 N  
HETATM   17  C   UNL     1      -9.905   8.210  69.855  1.00  0.00    -0.186 C  
HETATM   18  O   UNL     1     -10.563   8.589  70.817  1.00  0.00    -0.197 OA 
HETATM   19  H   UNL     1      -8.846   8.628  68.132  1.00  0.00     0.000 HD 
BRANCH  17  20
HETATM   20  C   UNL     1      -9.583   6.770  69.728  1.00  0.00    -0.153 A  
HETATM   21  C   UNL     1     -10.334   5.864  70.497  1.00  0.00    -0.297 A  
HETATM   22  H   UNL     1      -6.982   3.482  68.260  1.00  0.00     0.000 HD 
HETATM   23  C   UNL     1      -8.517   6.325  68.915  1.00  0.00    -0.120 A  
HETATM   24  C   UNL     1      -8.225   4.953  68.939  1.00  0.00    -0.083 A  
HETATM   25  C   UNL     1     -10.049   4.505  70.458  1.00  0.00    -0.233 A  
HETATM   26  C   UNL     1      -7.706   7.244  68.036  1.00  0.00    -0.117 C  
HETATM   27  O   UNL     1      -7.180   4.411  68.243  1.00  0.00    -0.059 OA 
HETATM   28  C   UNL     1      -8.988   4.053  69.681  1.00  0.00    -0.163 A  
ENDBRANCH  17  20
ENDBRANCH  15  16
BRANCH  15  29
HETATM   29  C   UNL     1     -10.281  11.011  70.186  1.00  0.00     0.807 C  
BRANCH  29  30
HETATM   30  S   UNL     1     -12.107  11.131  70.116  1.00  0.00    -0.372 SA 
BRANCH  30  31
HETATM   31  C   UNL     1     -12.469  12.717  70.832  1.00  0.00    -0.278 A  
HETATM   32  C   UNL     1     -13.049  15.041  70.413  1.00  0.00    -0.222 A  
HETATM   33  C   UNL     1     -12.642  13.790  69.948  1.00  0.00    -0.147 A  
HETATM   34  C   UNL     1     -13.113  14.171  72.661  1.00  0.00    -0.564 A  
HETATM   35  C   UNL     1     -13.292  15.229  71.771  1.00  0.00    -0.540 A  
HETATM   36  C   UNL     1     -12.702  12.918  72.194  1.00  0.00    -0.086 A  
ENDBRANCH  30  31
ENDBRANCH  29  30
ENDBRANCH  15  29
ENDBRANCH  12  15
ENDBRANCH  11  12
ENDBRANCH   8  11
BRANCH   9  37
HETATM   37  C   UNL     1      -9.141  15.088  66.230  1.00  0.00    -0.253 C  
HETATM   38  C   UNL     1     -10.465  17.920  66.576  1.00  0.00    -0.315 C  
HETATM   39  O   UNL     1      -8.135  15.790  66.160  1.00  0.00    -0.099 OA 
HETATM   40  C   UNL     1     -11.805  16.741  68.312  1.00  0.00     0.650 C  
HETATM   41  C   UNL     1     -10.445  16.772  67.595  1.00  0.00    -0.328 C  
HETATM   42  N   UNL     1     -10.273  15.473  66.930  1.00  0.00    -0.273 N  
HETATM   43  C   UNL     1      -9.349  17.024  68.640  1.00  0.00    -0.270 C  
HETATM   44  H   UNL     1     -11.043  14.806  66.988  1.00  0.00     0.000 HD 
ENDBRANCH   9  37
TORSDOF 9
ENDMDL
MODEL      277
REMARK 921   NORMALIZED FREE ENERGY PREDICTED BY IDOCK:    1.51 KCAL/MOL
REMARK 922        TOTAL FREE ENERGY PREDICTED BY IDOCK:   -0.53 KCAL/MOL
REMARK 923 INTER-LIGAND FREE ENERGY PREDICTED BY IDOCK:   -1.24 KCAL/MOL
REMARK 924 INTRA-LIGAND FREE ENERGY PREDICTED BY IDOCK:    0.71 KCAL/MOL
REMARK 927      BINDING AFFINITY PREDICTED BY RF-SCORE:    0.00 PKD
ROOT
HETATM    1  C   UNL     1     -12.177  14.093  70.744  1.00  0.00    -0.435 C  
HETATM    2  C   UNL     1     -13.640  14.219  71.181  1.00  0.00    -0.300 C  
HETATM    3  C   UNL     1     -14.011  15.659  71.513  1.00  0.00    -0.364 C  
HETATM    4  C   UNL     1     -13.112  16.213  72.610  1.00  0.00    -0.330 C  
HETATM    5  C   UNL     1     -11.624  16.082  72.286  1.00  0.00    -0.474 C  
HETATM    6  C   UNL     1     -11.215  14.693  71.771  1.00  0.00     0.411 C  
HETATM    7  C   UNL     1      -9.790  14.661  71.191  1.00  0.00     2.537 C  
HETATM    8  N   UNL     1      -9.603  15.496  70.001  1.00  0.00    -0.124 NA 
HETATM    9  C   UNL     1     -10.693  15.420  69.011  1.00  0.00    -0.242 C  
HETATM   10  C   UNL     1     -11.972  14.618  69.317  1.00  0.00    -0.337 C  
ENDROOT
BRANCH   8  11
HETATM   11  C   UNL     1      -8.264  15.268  69.400  1.00  0.00    -0.233 C  
BRANCH  11  12
HETATM   12  C   UNL     1      -7.869  13.832  68.918  1.00  0.00     0.005 C  
HETATM   13  H   UNL     1      -8.481  11.960  69.216  1.00  0.00     0.000 HD 
HETATM   14  O   UNL     1      -8.721  12.831  69.508  1.00  0.00     1.085 OA 
BRANCH  12  15
HETATM   15  C   UNL     1      -7.811  13.672  67.375  1.00  0.00    -0.149 C  
BRANCH  15  16
HETATM   16  N   UNL     1      -7.461  12.313  66.941  1.00  0.00    -0.372 N  
HETATM   17  C   UNL     1      -6.167  11.851  66.872  1.00  0.00    -0.115 C  
HETATM   18  O   UNL     1      -5.177  12.518  67.150  1.00  0.00    -0.285 OA 
HETATM   19  H   UNL     1      -8.216  11.681  66.676  1.00  0.00     0.000 HD 
BRANCH  17  20
HETATM   20  C   UNL     1      -5.985  10.467  66.375  1.00  0.00    -0.075 A  
HETATM   21  C   UNL     1      -5.649  10.301  65.020  1.00  0.00    -0.126 A  
HETATM   22  H   UNL     1      -6.291   6.069  66.918  1.00  0.00     0.000 HD 
HETATM   23  C   UNL     1      -6.204   9.351  67.213  1.00  0.00    -0.057 A  
HETATM   24  C   UNL     1      -6.106   8.082  66.625  1.00  0.00    -0.049 A  
HETATM   25  C   UNL     1      -5.511   9.027  64.483  1.00  0.00    -0.055 A  
HETATM   26  C   UNL     1      -6.524   9.468  68.682  1.00  0.00    -0.052 C  
HETATM   27  O   UNL     1      -6.357   6.929  67.316  1.00  0.00    -0.044 OA 
HETATM   28  C   UNL     1      -5.747   7.918  65.288  1.00  0.00    -0.037 A  
ENDBRANCH  17  20
ENDBRANCH  15  16
BRANCH  15  29
HETATM   29  C   UNL     1      -9.070  14.230  66.649  1.00  0.00    -0.226 C  
BRANCH  29  30
HETATM   30  S   UNL     1     -10.625  13.304  66.928  1.00  0.00    -0.265 SA 
BRANCH  30  31
HETATM   31  C   UNL     1     -11.258  13.008  65.293  1.00  0.00    -0.289 A  
HETATM   32  C   UNL     1     -11.705  11.355  63.567  1.00  0.00    -0.064 A  
HETATM   33  C   UNL     1     -11.128  11.708  64.787  1.00  0.00    -0.328 A  
HETATM   34  C   UNL     1     -12.548  13.602  63.330  1.00  0.00     0.132 A  
HETATM   35  C   UNL     1     -12.422  12.303  62.841  1.00  0.00     0.195 A  
HETATM   36  C   UNL     1     -11.968  13.954  64.553  1.00  0.00    -0.464 A  
ENDBRANCH  30  31
ENDBRANCH  29  30
ENDBRANCH  15  29
ENDBRANCH  12  15
ENDBRANCH  11  12
ENDBRANCH   8  11
BRANCH   9  37
HETATM   37  C   UNL     1     -11.106  16.868  68.597  1.00  0.00    -0.194 C  
HETATM   38  C   UNL     1     -10.696  19.947  69.088  1.00  0.00     0.486 C  
HETATM   39  O   UNL     1     -12.270  17.246  68.481  1.00  0.00     1.352 OA 
HETATM   40  C   UNL     1      -8.693  19.597  67.652  1.00  0.00    -0.372 C  
HETATM   41  C   UNL     1     -10.120  19.104  67.942  1.00  0.00    -0.386 C  
HETATM   42  N   UNL     1     -10.024  17.687  68.320  1.00  0.00    -0.319 N  
HETATM   43  C   UNL     1     -10.969  19.296  66.677  1.00  0.00    -0.285 C  
HETATM   44  H   UNL     1      -9.092  17.277  68.384  1.00  0.00     0.000 HD 
ENDBRANCH   9  37
TORSDOF 9
ENDMDL
MODEL      278
REMARK 921   NORMALIZED FREE ENERGY PREDICTED BY IDOCK:    1.76 KCAL/MOL
REMARK 922        TOTAL FREE ENERGY PREDICTED BY IDOCK:   -0.15 KCAL/MOL
REMARK 923 INTER-LIGAND FREE ENERGY PREDICTED BY IDOCK:   -0.20 KCAL/MOL
REMARK 924 INTRA-LIGAND FREE ENERGY PREDICTED BY IDOCK:    0.05 KCAL/MOL
REMARK 927      BINDING AFFINITY PREDICTED BY RF-SCORE:    0.00 PKD
ROOT
HETATM    1  C   UNL     1      -9.843   9.941  66.533  1.00  0.00    -0.274 C  
HETATM    2  C   UNL     1     -10.979   8.923  66.386  1.00  0.00     0.905 C  
HETATM    3  C   UNL     1     -10.557   7.533  66.846  1.00  0.00    -0.367 C  
HETATM    4  C   UNL     1      -9.345   7.046  66.063  1.00  0.00    -0.019 C  
HETATM    5  C   UNL     1      -8.173   8.026  66.105  1.00  0.00    -0.116 C  
HETATM    6  C   UNL     1      -8.565   9.485  65.825  1.00  0.00    -0.152 C  
HETATM    7  C   UNL     1      -7.439  10.484  66.144  1.00  0.00    -0.136 C  
HETATM    8  N   UNL     1      -7.061  10.535  67.560  1.00  0.00    -0.088 NA 
HETATM    9  C   UNL     1      -8.192  10.528  68.507  1.00  0.00    -0.123 C  
HETATM   10  C   UNL     1      -9.634  10.340  67.999  1.00  0.00    -0.159 C  
ENDROOT
BRANCH   8  11
HETATM   11  C   UNL     1      -6.107  11.645  67.813  1.00  0.00    -0.052 C  
BRANCH  11  12
HETATM   12  C   UNL     1      -6.254  12.985  67.017  1.00  0.00     0.530 C  
HETATM   13  H   UNL     1      -6.095  13.601  65.130  1.00  0.00     0.000 HD 
HETATM   14  O   UNL     1      -6.005  12.788  65.613  1.00  0.00     3.498 OA 
BRANCH  12  15
HETATM   15  C   UNL     1      -7.606  13.714  67.244  1.00  0.00    -0.055 C  
BRANCH  15  16
HETATM   16  N   UNL     1      -7.459  15.151  67.506  1.00  0.00    -0.181 N  
HETATM   17  C   UNL     1      -6.327  15.708  68.057  1.00  0.00    -0.134 C  
HETATM   18  O   UNL     1      -5.337  15.071  68.396  1.00  0.00    -0.095 OA 
HETATM   19  H   UNL     1      -8.235  15.768  67.268  1.00  0.00     0.000 HD 
BRANCH  17  20
HETATM   20  C   UNL     1      -6.357  17.170  68.291  1.00  0.00    -0.149 A  
HETATM   21  C   UNL     1      -6.959  17.627  69.478  1.00  0.00     0.013 A  
HETATM   22  H   UNL     1      -5.753  21.345  66.901  1.00  0.00     0.000 HD 
HETATM   23  C   UNL     1      -5.860  18.079  67.331  1.00  0.00    -0.160 A  
HETATM   24  C   UNL     1      -6.025  19.445  67.599  1.00  0.00    -0.198 A  
HETATM   25  C   UNL     1      -7.060  18.988  69.734  1.00  0.00     0.092 A  
HETATM   26  C   UNL     1      -5.167  17.647  66.063  1.00  0.00    -0.224 C  
HETATM   27  O   UNL     1      -5.641  20.420  66.719  1.00  0.00    -0.168 OA 
HETATM   28  C   UNL     1      -6.597  19.897  68.788  1.00  0.00    -0.355 A  
ENDBRANCH  17  20
ENDBRANCH  15  16
BRANCH  15  29
HETATM   29  C   UNL     1      -8.664  13.408  66.143  1.00  0.00     0.553 C  
BRANCH  29  30
HETATM   30  S   UNL     1     -10.407  13.732  66.603  1.00  0.00    -0.283 SA 
BRANCH  30  31
HETATM   31  C   UNL     1     -10.302  14.982  67.862  1.00  0.00    -0.241 A  
HETATM   32  C   UNL     1     -10.193  17.363  68.344  1.00  0.00    -0.362 A  
HETATM   33  C   UNL     1     -10.159  16.308  67.432  1.00  0.00    -0.260 A  
HETATM   34  C   UNL     1     -10.507  15.784  70.139  1.00  0.00    -0.288 A  
HETATM   35  C   UNL     1     -10.375  17.100  69.700  1.00  0.00    -0.019 A  
HETATM   36  C   UNL     1     -10.471  14.727  69.224  1.00  0.00    -0.231 A  
ENDBRANCH  30  31
ENDBRANCH  29  30
ENDBRANCH  15  29
ENDBRANCH  12  15
ENDBRANCH  11  12
ENDBRANCH   8  11
BRANCH   9  37
HETATM   37  C   UNL     1      -7.918   9.468  69.620  1.00  0.00    -0.120 C  
HETATM   38  C   UNL     1      -8.179   8.752  72.671  1.00  0.00     0.111 C  
HETATM   39  O   UNL     1      -6.837   8.908  69.787  1.00  0.00    -0.044 OA 
HETATM   40  C   UNL     1     -10.509   8.164  72.018  1.00  0.00    -0.329 C  
HETATM   41  C   UNL     1      -9.056   8.244  71.518  1.00  0.00    -0.177 C  
HETATM   42  N   UNL     1      -9.037   9.177  70.383  1.00  0.00    -0.212 N  
HETATM   43  C   UNL     1      -8.605   6.836  71.103  1.00  0.00    -0.132 C  
HETATM   44  H   UNL     1      -9.910   9.645  70.140  1.00  0.00     0.000 HD 
ENDBRANCH   9  37
TORSDOF 9
ENDMDL
MODEL      279
REMARK 921   NORMALIZED FREE ENERGY PREDICTED BY IDOCK:    2.03 KCAL/MOL
REMARK 922        TOTAL FREE ENERGY PREDICTED BY IDOCK:    0.26 KCAL/MOL
REMARK 923 INTER-LIGAND FREE ENERGY PREDICTED BY IDOCK:   -0.34 KCAL/MOL
REMARK 924 INTRA-LIGAND FREE ENERGY PREDICTED BY IDOCK:    0.60 KCAL/MOL
REMARK 927      BINDING AFFINITY PREDICTED BY RF-SCORE:    0.00 PKD
ROOT
HETATM    1  C   UNL     1      -6.861  15.497  67.395  1.00  0.00    -0.224 C  
HETATM    2  C   UNL     1      -5.388  15.917  67.406  1.00  0.00    -0.031 C  
HETATM    3  C   UNL     1      -5.228  17.429  67.311  1.00  0.00    -0.149 C  
HETATM    4  C   UNL     1      -5.893  17.968  66.051  1.00  0.00    -0.240 C  
HETATM    5  C   UNL     1      -7.358  17.553  65.925  1.00  0.00    -0.180 C  
HETATM    6  C   UNL     1      -7.613  16.061  66.188  1.00  0.00     0.587 C  
HETATM    7  C   UNL     1      -9.106  15.720  66.332  1.00  0.00    -0.322 C  
HETATM    8  N   UNL     1      -9.762  16.350  67.483  1.00  0.00    -0.229 NA 
HETATM    9  C   UNL     1      -8.981  16.324  68.734  1.00  0.00    -0.243 C  
HETATM   10  C   UNL     1      -7.536  15.788  68.742  1.00  0.00    -0.158 C  
ENDROOT
BRANCH   8  11
HETATM   11  C   UNL     1     -11.142  15.828  67.657  1.00  0.00    -0.283 C  
BRANCH  11  12
HETATM   12  C   UNL     1     -11.619  14.610  66.799  1.00  0.00    -0.360 C  
HETATM   13  H   UNL     1     -11.541  14.029  64.894  1.00  0.00     0.000 HD 
HETATM   14  O   UNL     1     -11.251  14.769  65.415  1.00  0.00    -0.325 OA 
BRANCH  12  15
HETATM   15  C   UNL     1     -11.157  13.230  67.340  1.00  0.00    -0.278 C  
BRANCH  15  16
HETATM   16  N   UNL     1     -10.553  12.371  66.314  1.00  0.00    -0.245 N  
HETATM   17  C   UNL     1     -10.101  11.096  66.566  1.00  0.00    -0.223 C  
HETATM   18  O   UNL     1     -10.141  10.550  67.663  1.00  0.00    -0.168 OA 
HETATM   19  H   UNL     1     -10.464  12.738  65.366  1.00  0.00     0.000 HD 
BRANCH  17  20
HETATM   20  C   UNL     1      -9.482  10.376  65.428  1.00  0.00    -0.285 A  
HETATM   21  C   UNL     1      -9.076  11.140  64.318  1.00  0.00    -0.046 A  
HETATM   22  H   UNL     1      -8.412   6.614  63.324  1.00  0.00     0.000 HD 
HETATM   23  C   UNL     1      -9.363   8.969  65.425  1.00  0.00    -0.213 A  
HETATM   24  C   UNL     1      -8.858   8.374  64.260  1.00  0.00     0.329 A  
HETATM   25  C   UNL     1      -8.533  10.520  63.201  1.00  0.00    -0.167 A  
HETATM   26  C   UNL     1      -9.742   8.104  66.600  1.00  0.00    -0.318 C  
HETATM   27  O   UNL     1      -8.753   7.018  64.113  1.00  0.00     0.348 OA 
HETATM   28  C   UNL     1      -8.431   9.133  63.172  1.00  0.00    -0.199 A  
ENDBRANCH  17  20
ENDBRANCH  15  16
BRANCH  15  29
HETATM   29  C   UNL     1     -10.285  13.333  68.627  1.00  0.00    -0.172 C  
BRANCH  29  30
HETATM   30  S   UNL     1     -10.986  12.552  70.127  1.00  0.00     1.246 SA 
BRANCH  30  31
HETATM   31  C   UNL     1     -11.847  13.872  70.948  1.00  0.00    -0.124 A  
HETATM   32  C   UNL     1     -14.000  14.742  71.669  1.00  0.00    -0.559 A  
HETATM   33  C   UNL     1     -13.247  13.817  70.946  1.00  0.00    -0.156 A  
HETATM   34  C   UNL     1     -11.965  15.804  72.406  1.00  0.00    -0.600 A  
HETATM   35  C   UNL     1     -13.356  15.733  72.406  1.00  0.00    -0.545 A  
HETATM   36  C   UNL     1     -11.211  14.877  71.679  1.00  0.00    -0.082 A  
ENDBRANCH  30  31
ENDBRANCH  29  30
ENDBRANCH  15  29
ENDBRANCH  12  15
ENDBRANCH  11  12
ENDBRANCH   8  11
BRANCH   9  37
HETATM   37  C   UNL     1      -8.981  17.752  69.364  1.00  0.00     0.453 C  
HETATM   38  C   UNL     1      -7.288  20.317  70.032  1.00  0.00     0.500 C  
HETATM   39  O   UNL     1      -9.447  18.017  70.470  1.00  0.00     2.459 OA 
HETATM   40  C   UNL     1      -7.727  20.854  67.641  1.00  0.00    -0.170 C  
HETATM   41  C   UNL     1      -8.287  20.136  68.881  1.00  0.00     0.276 C  
HETATM   42  N   UNL     1      -8.443  18.717  68.529  1.00  0.00    -0.339 N  
HETATM   43  C   UNL     1      -9.631  20.779  69.252  1.00  0.00     1.099 C  
HETATM   44  H   UNL     1      -8.132  18.422  67.604  1.00  0.00     0.000 HD 
ENDBRANCH   9  37
TORSDOF 9
ENDMDL
MODEL      280
REMARK 921   NORMALIZED FREE ENERGY PREDICTED BY IDOCK:    2.13 KCAL/MOL
REMARK 922        TOTAL FREE ENERGY PREDICTED BY IDOCK:    0.41 KCAL/MOL
REMARK 923 INTER-LIGAND FREE ENERGY PREDICTED BY IDOCK:   -0.20 KCAL/MOL
REMARK 924 INTRA-LIGAND FREE ENERGY PREDICTED BY IDOCK:    0.61 KCAL/MOL
REMARK 927      BINDING AFFINITY PREDICTED BY RF-SCORE:    0.00 PKD
ROOT
HETATM    1  C   UNL     1      -6.955  15.466  67.402  1.00  0.00    -0.222 C  
HETATM    2  C   UNL     1      -5.661  16.273  67.557  1.00  0.00    -0.179 C  
HETATM    3  C   UNL     1      -5.873  17.749  67.244  1.00  0.00    -0.157 C  
HETATM    4  C   UNL     1      -6.411  17.934  65.832  1.00  0.00    -0.294 C  
HETATM    5  C   UNL     1      -7.677  17.121  65.564  1.00  0.00     1.060 C  
HETATM    6  C   UNL     1      -7.592  15.657  66.024  1.00  0.00     1.691 C  
HETATM    7  C   UNL     1      -8.952  14.939  66.004  1.00  0.00     0.060 C  
HETATM    8  N   UNL     1      -9.942  15.494  66.932  1.00  0.00    -0.242 NA 
HETATM    9  C   UNL     1      -9.421  15.829  68.270  1.00  0.00    -0.200 C  
HETATM   10  C   UNL     1      -7.914  15.716  68.572  1.00  0.00    -0.138 C  
ENDROOT
BRANCH   8  11
HETATM   11  C   UNL     1     -11.155  14.637  66.986  1.00  0.00    -0.333 C  
BRANCH  11  12
HETATM   12  C   UNL     1     -11.171  13.274  66.217  1.00  0.00    -0.299 C  
HETATM   13  H   UNL     1     -10.498  12.552  64.487  1.00  0.00     0.000 HD 
HETATM   14  O   UNL     1     -10.489  13.379  64.953  1.00  0.00    -0.349 OA 
BRANCH  12  15
HETATM   15  C   UNL     1     -10.632  12.073  67.040  1.00  0.00    -0.227 C  
BRANCH  15  16
HETATM   16  N   UNL     1      -9.486  11.401  66.413  1.00  0.00    -0.198 N  
HETATM   17  C   UNL     1      -8.739  10.433  67.045  1.00  0.00    -0.130 C  
HETATM   18  O   UNL     1      -8.938  10.041  68.189  1.00  0.00    -0.121 OA 
HETATM   19  H   UNL     1      -9.232  11.665  65.462  1.00  0.00     0.000 HD 
BRANCH  17  20
HETATM   20  C   UNL     1      -7.592   9.883  66.285  1.00  0.00    -0.102 A  
HETATM   21  C   UNL     1      -7.237  10.526  65.086  1.00  0.00    -0.021 A  
HETATM   22  H   UNL     1      -4.555   6.720  65.577  1.00  0.00     0.000 HD 
HETATM   23  C   UNL     1      -6.921   8.716  66.712  1.00  0.00    -0.077 A  
HETATM   24  C   UNL     1      -5.916   8.215  65.872  1.00  0.00    -0.038 A  
HETATM   25  C   UNL     1      -6.201  10.031  64.305  1.00  0.00    -0.132 A  
HETATM   26  C   UNL     1      -7.230   8.009  68.008  1.00  0.00    -0.094 C  
HETATM   27  O   UNL     1      -5.237   7.059  66.146  1.00  0.00    -0.021 OA 
HETATM   28  C   UNL     1      -5.545   8.869  64.698  1.00  0.00    -0.062 A  
ENDBRANCH  17  20
ENDBRANCH  15  16
BRANCH  15  29
HETATM   29  C   UNL     1     -10.381  12.415  68.539  1.00  0.00    -0.221 C  
BRANCH  29  30
HETATM   30  S   UNL     1     -11.815  12.192  69.656  1.00  0.00    -0.292 SA 
BRANCH  30  31
HETATM   31  C   UNL     1     -11.719  10.489  70.157  1.00  0.00    -0.326 A  
HETATM   32  C   UNL     1     -11.239   8.938  71.967  1.00  0.00    -0.422 A  
HETATM   33  C   UNL     1     -11.232  10.232  71.446  1.00  0.00     0.178 A  
HETATM   34  C   UNL     1     -12.213   8.129  69.915  1.00  0.00     1.095 A  
HETATM   35  C   UNL     1     -11.736   7.886  71.202  1.00  0.00    -0.306 A  
HETATM   36  C   UNL     1     -12.205   9.427  69.393  1.00  0.00     1.205 A  
ENDBRANCH  30  31
ENDBRANCH  29  30
ENDBRANCH  15  29
ENDBRANCH  12  15
ENDBRANCH  11  12
ENDBRANCH   8  11
BRANCH   9  37
HETATM   37  C   UNL     1      -9.895  17.266  68.656  1.00  0.00    -0.313 C  
HETATM   38  C   UNL     1      -9.037  20.233  69.245  1.00  0.00     0.585 C  
HETATM   39  O   UNL     1     -10.656  17.513  69.589  1.00  0.00    -0.080 OA 
HETATM   40  C   UNL     1      -9.010  20.394  66.761  1.00  0.00    -0.338 C  
HETATM   41  C   UNL     1      -9.667  19.686  67.957  1.00  0.00    -0.396 C  
HETATM   42  N   UNL     1      -9.409  18.247  67.807  1.00  0.00    -0.268 N  
HETATM   43  C   UNL     1     -11.171  19.997  67.942  1.00  0.00     0.524 C  
HETATM   44  H   UNL     1      -8.830  17.950  67.022  1.00  0.00     0.000 HD 
ENDBRANCH   9  37
TORSDOF 9
ENDMDL
MODEL      281
REMARK 921   NORMALIZED FREE ENERGY PREDICTED BY IDOCK:    2.67 KCAL/MOL
REMARK 922        TOTAL FREE ENERGY PREDICTED BY IDOCK:    1.25 KCAL/MOL
REMARK 923 INTER-LIGAND FREE ENERGY PREDICTED BY IDOCK:    0.12 KCAL/MOL
REMARK 924 INTRA-LIGAND FREE ENERGY PREDICTED BY IDOCK:    1.12 KCAL/MOL
REMARK 927      BINDING AFFINITY PREDICTED BY RF-SCORE:    0.00 PKD
ROOT
HETATM    1  C   UNL     1      -9.355   5.494  68.468  1.00  0.00    -0.143 C  
HETATM    2  C   UNL     1      -9.909   5.145  67.083  1.00  0.00    -0.191 C  
HETATM    3  C   UNL     1     -10.873   6.209  66.573  1.00  0.00    -0.165 C  
HETATM    4  C   UNL     1     -12.032   6.401  67.542  1.00  0.00     2.232 C  
HETATM    5  C   UNL     1     -11.575   6.702  68.969  1.00  0.00    -0.009 C  
HETATM    6  C   UNL     1     -10.468   5.768  69.482  1.00  0.00    -0.364 C  
HETATM    7  C   UNL     1      -9.831   6.254  70.796  1.00  0.00    -0.185 C  
HETATM    8  N   UNL     1      -9.126   7.535  70.689  1.00  0.00    -0.155 NA 
HETATM    9  C   UNL     1      -8.289   7.685  69.484  1.00  0.00    -0.130 C  
HETATM   10  C   UNL     1      -8.300   6.605  68.386  1.00  0.00    -0.122 C  
ENDROOT
BRANCH   8  11
HETATM   11  C   UNL     1      -8.390   7.840  71.942  1.00  0.00    -0.113 C  
BRANCH  11  12
HETATM   12  C   UNL     1      -7.648   6.689  72.700  1.00  0.00    -0.093 C  
HETATM   13  H   UNL     1      -7.928   4.753  73.073  1.00  0.00     0.000 HD 
HETATM   14  O   UNL     1      -8.378   5.451  72.613  1.00  0.00    -0.113 OA 
BRANCH  12  15
HETATM   15  C   UNL     1      -6.170   6.493  72.269  1.00  0.00    -0.045 C  
BRANCH  15  16
HETATM   16  N   UNL     1      -5.950   6.675  70.828  1.00  0.00    -0.027 N  
HETATM   17  C   UNL     1      -5.775   5.629  69.952  1.00  0.00    -0.016 C  
HETATM   18  O   UNL     1      -5.770   4.447  70.276  1.00  0.00    -0.012 OA 
HETATM   19  H   UNL     1      -5.926   7.626  70.459  1.00  0.00     0.000 HD 
BRANCH  17  20
HETATM   20  C   UNL     1      -5.526   5.987  68.536  1.00  0.00    -0.008 A  
HETATM   21  C   UNL     1      -5.377   7.352  68.226  1.00  0.00    -0.025 A  
HETATM   22  H   UNL     1      -5.294   4.907  64.234  1.00  0.00     0.000 HD 
HETATM   23  C   UNL     1      -5.504   5.005  67.522  1.00  0.00    -0.012 A  
HETATM   24  C   UNL     1      -5.363   5.453  66.201  1.00  0.00    -0.012 A  
HETATM   25  C   UNL     1      -5.189   7.755  66.911  1.00  0.00    -0.027 A  
HETATM   26  C   UNL     1      -5.615   3.526  67.799  1.00  0.00    -0.021 C  
HETATM   27  O   UNL     1      -5.389   4.604  65.129  1.00  0.00    -0.012 OA 
HETATM   28  C   UNL     1      -5.189   6.802  65.898  1.00  0.00    -0.022 A  
ENDBRANCH  17  20
ENDBRANCH  15  16
BRANCH  15  29
HETATM   29  C   UNL     1      -5.161   7.302  73.138  1.00  0.00    -0.037 C  
BRANCH  29  30
HETATM   30  S   UNL     1      -5.809   8.847  73.877  1.00  0.00    -0.053 SA 
BRANCH  30  31
HETATM   31  C   UNL     1      -5.450  10.096  72.665  1.00  0.00     0.322 A  
HETATM   32  C   UNL     1      -5.145  10.596  70.305  1.00  0.00    -0.047 A  
HETATM   33  C   UNL     1      -5.304   9.672  71.337  1.00  0.00    -0.070 A  
HETATM   34  C   UNL     1      -5.266  12.391  71.910  1.00  0.00     0.112 A  
HETATM   35  C   UNL     1      -5.133  11.959  70.592  1.00  0.00    -0.121 A  
HETATM   36  C   UNL     1      -5.424  11.464  72.944  1.00  0.00     1.066 A  
ENDBRANCH  30  31
ENDBRANCH  29  30
ENDBRANCH  15  29
ENDBRANCH  12  15
ENDBRANCH  11  12
ENDBRANCH   8  11
BRANCH   9  37
HETATM   37  C   UNL     1      -8.594   9.066  68.821  1.00  0.00    -0.132 C  
HETATM   38  C   UNL     1      -7.790  11.129  66.588  1.00  0.00    -0.155 C  
HETATM   39  O   UNL     1      -8.754  10.111  69.447  1.00  0.00    -0.159 OA 
HETATM   40  C   UNL     1      -9.110   9.602  65.131  1.00  0.00    -0.279 C  
HETATM   41  C   UNL     1      -8.967  10.144  66.563  1.00  0.00    -0.143 C  
HETATM   42  N   UNL     1      -8.717   8.994  67.443  1.00  0.00    -0.119 N  
HETATM   43  C   UNL     1     -10.264  10.875  66.940  1.00  0.00    -0.272 C  
HETATM   44  H   UNL     1      -8.627   8.076  67.007  1.00  0.00     0.000 HD 
ENDBRANCH   9  37
TORSDOF 9
ENDMDL
MODEL      282
REMARK 921   NORMALIZED FREE ENERGY PREDICTED BY IDOCK:    2.99 KCAL/MOL
REMARK 922        TOTAL FREE ENERGY PREDICTED BY IDOCK:    1.72 KCAL/MOL
REMARK 923 INTER-LIGAND FREE ENERGY PREDICTED BY IDOCK:   -0.88 KCAL/MOL
REMARK 924 INTRA-LIGAND FREE ENERGY PREDICTED BY IDOCK:    2.60 KCAL/MOL
REMARK 927      BINDING AFFINITY PREDICTED BY RF-SCORE:    0.00 PKD
ROOT
HETATM    1  C   UNL     1     -11.315   6.841  68.995  1.00  0.00    -0.152 C  
HETATM    2  C   UNL     1     -12.369   6.573  70.074  1.00  0.00     0.539 C  
HETATM    3  C   UNL     1     -12.395   7.674  71.127  1.00  0.00    -0.293 C  
HETATM    4  C   UNL     1     -11.032   7.827  71.788  1.00  0.00    -0.280 C  
HETATM    5  C   UNL     1      -9.902   8.045  70.782  1.00  0.00    -0.197 C  
HETATM    6  C   UNL     1      -9.925   7.073  69.591  1.00  0.00    -0.177 C  
HETATM    7  C   UNL     1      -8.964   7.480  68.462  1.00  0.00    -0.128 C  
HETATM    8  N   UNL     1      -9.292   8.758  67.820  1.00  0.00    -0.140 NA 
HETATM    9  C   UNL     1     -10.725   8.963  67.539  1.00  0.00    -0.152 C  
HETATM   10  C   UNL     1     -11.770   7.942  68.029  1.00  0.00     1.948 C  
ENDROOT
BRANCH   8  11
HETATM   11  C   UNL     1      -8.434   8.987  66.629  1.00  0.00    -0.122 C  
BRANCH  11  12
HETATM   12  C   UNL     1      -8.273   7.851  65.565  1.00  0.00    -0.140 C  
HETATM   13  H   UNL     1      -7.858   7.702  63.622  1.00  0.00     0.000 HD 
HETATM   14  O   UNL     1      -7.955   8.391  64.268  1.00  0.00    -0.136 OA 
BRANCH  12  15
HETATM   15  C   UNL     1      -7.264   6.741  65.966  1.00  0.00    -0.067 C  
BRANCH  15  16
HETATM   16  N   UNL     1      -7.290   6.415  67.397  1.00  0.00    -0.085 N  
HETATM   17  C   UNL     1      -6.210   5.900  68.075  1.00  0.00    -0.028 C  
HETATM   18  O   UNL     1      -5.126   5.648  67.562  1.00  0.00    -0.004 OA 
HETATM   19  H   UNL     1      -8.154   6.579  67.915  1.00  0.00     0.000 HD 
BRANCH  17  20
HETATM   20  C   UNL     1      -6.416   5.590  69.509  1.00  0.00    -0.042 A  
HETATM   21  C   UNL     1      -7.062   4.382  69.828  1.00  0.00    -0.049 A  
HETATM   22  H   UNL     1      -6.332   6.763  73.793  1.00  0.00     0.000 HD 
HETATM   23  C   UNL     1      -6.038   6.502  70.520  1.00  0.00    -0.027 A  
HETATM   24  C   UNL     1      -6.366   6.164  71.840  1.00  0.00    -0.046 A  
HETATM   25  C   UNL     1      -7.327   4.056  71.152  1.00  0.00    -0.040 A  
HETATM   26  C   UNL     1      -5.305   7.790  70.241  1.00  0.00    -0.023 C  
HETATM   27  O   UNL     1      -6.109   6.992  72.898  1.00  0.00    -0.055 OA 
HETATM   28  C   UNL     1      -6.982   4.954  72.157  1.00  0.00    -0.065 A  
ENDBRANCH  17  20
ENDBRANCH  15  16
BRANCH  15  29
HETATM   29  C   UNL     1      -7.346   5.477  65.059  1.00  0.00    -0.068 C  
BRANCH  29  30
HETATM   30  S   UNL     1      -6.703   3.928  65.796  1.00  0.00    -0.046 SA 
BRANCH  30  31
HETATM   31  C   UNL     1      -7.949   3.451  66.970  1.00  0.00    -0.079 A  
HETATM   32  C   UNL     1     -10.109   3.981  67.954  1.00  0.00     0.162 A  
HETATM   33  C   UNL     1      -9.026   4.331  67.147  1.00  0.00    -0.133 A  
HETATM   34  C   UNL     1      -9.055   1.865  68.430  1.00  0.00    -0.206 A  
HETATM   35  C   UNL     1     -10.126   2.743  68.591  1.00  0.00     0.948 A  
HETATM   36  C   UNL     1      -7.969   2.218  67.622  1.00  0.00    -0.064 A  
ENDBRANCH  30  31
ENDBRANCH  29  30
ENDBRANCH  15  29
ENDBRANCH  12  15
ENDBRANCH  11  12
ENDBRANCH   8  11
BRANCH   9  37
HETATM   37  C   UNL     1     -11.145  10.380  68.042  1.00  0.00    -0.298 C  
HETATM   38  C   UNL     1     -10.169  13.221  68.972  1.00  0.00     0.071 C  
HETATM   39  O   UNL     1     -11.945  10.578  68.953  1.00  0.00    -0.267 OA 
HETATM   40  C   UNL     1      -9.988  13.622  66.522  1.00  0.00    -0.288 C  
HETATM   41  C   UNL     1     -10.751  12.839  67.604  1.00  0.00    -0.219 C  
HETATM   42  N   UNL     1     -10.560  11.409  67.324  1.00  0.00    -0.216 N  
HETATM   43  C   UNL     1     -12.233  13.237  67.540  1.00  0.00    -0.213 C  
HETATM   44  H   UNL     1      -9.952  11.157  66.545  1.00  0.00     0.000 HD 
ENDBRANCH   9  37
TORSDOF 9
ENDMDL
MODEL      283
REMARK 921   NORMALIZED FREE ENERGY PREDICTED BY IDOCK:    5.99 KCAL/MOL
REMARK 922        TOTAL FREE ENERGY PREDICTED BY IDOCK:    6.30 KCAL/MOL
REMARK 923 INTER-LIGAND FREE ENERGY PREDICTED BY IDOCK:   -3.02 KCAL/MOL
REMARK 924 INTRA-LIGAND FREE ENERGY PREDICTED BY IDOCK:    9.33 KCAL/MOL
REMARK 927      BINDING AFFINITY PREDICTED BY RF-SCORE:    0.00 PKD
ROOT
HETATM    1  C   UNL     1     -11.102  16.634  66.945  1.00  0.00     0.187 C  
HETATM    2  C   UNL     1     -10.829  17.884  67.788  1.00  0.00    -0.237 C  
HETATM    3  C   UNL     1     -10.137  17.541  69.102  1.00  0.00    -0.231 C  
HETATM    4  C   UNL     1     -10.970  16.561  69.916  1.00  0.00    -0.273 C  
HETATM    5  C   UNL     1     -11.340  15.300  69.136  1.00  0.00    -0.307 C  
HETATM    6  C   UNL     1     -11.881  15.572  67.724  1.00  0.00     0.026 C  
HETATM    7  C   UNL     1     -11.981  14.301  66.862  1.00  0.00    -0.438 C  
HETATM    8  N   UNL     1     -10.693  13.659  66.578  1.00  0.00    -0.283 NA 
HETATM    9  C   UNL     1      -9.603  14.586  66.220  1.00  0.00    -0.304 C  
HETATM   10  C   UNL     1      -9.818  16.110  66.289  1.00  0.00    -0.329 C  
ENDROOT
BRANCH   8  11
HETATM   11  C   UNL     1     -10.856  12.556  65.597  1.00  0.00    -0.277 C  
BRANCH  11  12
HETATM   12  C   UNL     1     -11.107  11.099  66.110  1.00  0.00    -0.085 C  
HETATM   13  H   UNL     1     -11.454   9.302  65.324  1.00  0.00     0.000 HD 
HETATM   14  O   UNL     1     -11.301  10.186  65.013  1.00  0.00     1.409 OA 
BRANCH  12  15
HETATM   15  C   UNL     1     -10.020  10.572  67.084  1.00  0.00    -0.193 C  
BRANCH  15  16
HETATM   16  N   UNL     1      -8.833  10.038  66.404  1.00  0.00    -0.141 N  
HETATM   17  C   UNL     1      -8.751   9.877  65.040  1.00  0.00    -0.174 C  
HETATM   18  O   UNL     1      -9.653  10.148  64.256  1.00  0.00    -0.291 OA 
HETATM   19  H   UNL     1      -8.028   9.772  66.972  1.00  0.00     0.000 HD 
BRANCH  17  20
HETATM   20  C   UNL     1      -7.496   9.288  64.518  1.00  0.00    -0.102 A  
HETATM   21  C   UNL     1      -6.593  10.150  63.869  1.00  0.00    -0.117 A  
HETATM   22  H   UNL     1      -4.959   5.775  63.542  1.00  0.00     0.000 HD 
HETATM   23  C   UNL     1      -7.242   7.902  64.607  1.00  0.00    -0.079 A  
HETATM   24  C   UNL     1      -6.074   7.426  63.993  1.00  0.00    -0.045 A  
HETATM   25  C   UNL     1      -5.421   9.651  63.315  1.00  0.00    -0.082 A  
HETATM   26  C   UNL     1      -8.151   6.938  65.327  1.00  0.00    -0.134 C  
HETATM   27  O   UNL     1      -5.750   6.098  63.958  1.00  0.00    -0.021 OA 
HETATM   28  C   UNL     1      -5.167   8.285  63.374  1.00  0.00    -0.054 A  
ENDBRANCH  17  20
ENDBRANCH  15  16
BRANCH  15  29
HETATM   29  C   UNL     1      -9.661  11.582  68.215  1.00  0.00    -0.198 C  
BRANCH  29  30
HETATM   30  S   UNL     1      -9.361  10.853  69.867  1.00  0.00     1.056 SA 
BRANCH  30  31
HETATM   31  C   UNL     1      -8.351   9.427  69.540  1.00  0.00    -0.127 A  
HETATM   32  C   UNL     1      -8.313   7.071  68.942  1.00  0.00    -0.125 A  
HETATM   33  C   UNL     1      -9.016   8.212  69.327  1.00  0.00    -0.148 A  
HETATM   34  C   UNL     1      -6.261   8.335  68.984  1.00  0.00    -0.043 A  
HETATM   35  C   UNL     1      -6.933   7.135  68.764  1.00  0.00    -0.082 A  
HETATM   36  C   UNL     1      -6.966   9.479  69.370  1.00  0.00    -0.050 A  
ENDBRANCH  30  31
ENDBRANCH  29  30
ENDBRANCH  15  29
ENDBRANCH  12  15
ENDBRANCH  11  12
ENDBRANCH   8  11
BRANCH   9  37
HETATM   37  C   UNL     1      -8.335  14.228  67.058  1.00  0.00    -0.131 C  
HETATM   38  C   UNL     1      -6.922  12.091  68.883  1.00  0.00    -0.104 C  
HETATM   39  O   UNL     1      -7.820  14.979  67.884  1.00  0.00    -0.121 OA 
HETATM   40  C   UNL     1      -6.354  11.049  66.694  1.00  0.00    -0.124 C  
HETATM   41  C   UNL     1      -6.638  12.384  67.403  1.00  0.00    -0.157 C  
HETATM   42  N   UNL     1      -7.806  12.986  66.745  1.00  0.00    -0.371 N  
HETATM   43  C   UNL     1      -5.394  13.276  67.279  1.00  0.00     0.276 C  
HETATM   44  H   UNL     1      -8.261  12.451  66.005  1.00  0.00     0.000 HD 
ENDBRANCH   9  37
TORSDOF 9
ENDMDL
MODEL      284
REMARK 921   NORMALIZED FREE ENERGY PREDICTED BY IDOCK:    6.20 KCAL/MOL
REMARK 922        TOTAL FREE ENERGY PREDICTED BY IDOCK:    6.62 KCAL/MOL
REMARK 923 INTER-LIGAND FREE ENERGY PREDICTED BY IDOCK:    3.46 KCAL/MOL
REMARK 924 INTRA-LIGAND FREE ENERGY PREDICTED BY IDOCK:    3.16 KCAL/MOL
REMARK 927      BINDING AFFINITY PREDICTED BY RF-SCORE:    0.00 PKD
ROOT
HETATM    1  C   UNL     1      -6.612   9.899  70.982  1.00  0.00     0.051 C  
HETATM    2  C   UNL     1      -6.485  10.630  72.322  1.00  0.00     2.489 C  
HETATM    3  C   UNL     1      -6.344  12.136  72.136  1.00  0.00     3.760 C  
HETATM    4  C   UNL     1      -5.136  12.466  71.270  1.00  0.00    -0.138 C  
HETATM    5  C   UNL     1      -5.147  11.737  69.927  1.00  0.00    -0.074 C  
HETATM    6  C   UNL     1      -5.463  10.236  70.030  1.00  0.00    -0.045 C  
HETATM    7  C   UNL     1      -5.744   9.584  68.665  1.00  0.00    -0.040 C  
HETATM    8  N   UNL     1      -6.934  10.102  67.981  1.00  0.00    -0.081 NA 
HETATM    9  C   UNL     1      -8.112  10.297  68.847  1.00  0.00    -0.123 C  
HETATM   10  C   UNL     1      -8.006  10.090  70.370  1.00  0.00     0.086 C  
ENDROOT
BRANCH   8  11
HETATM   11  C   UNL     1      -7.238   9.300  66.769  1.00  0.00    -0.083 C  
BRANCH  11  12
HETATM   12  C   UNL     1      -8.560   9.571  65.976  1.00  0.00    -0.133 C  
HETATM   13  H   UNL     1      -9.627  11.148  65.390  1.00  0.00     0.000 HD 
HETATM   14  O   UNL     1      -8.825  10.983  65.871  1.00  0.00    -0.188 OA 
BRANCH  12  15
HETATM   15  C   UNL     1      -8.617   8.890  64.582  1.00  0.00    -0.143 C  
BRANCH  15  16
HETATM   16  N   UNL     1      -8.853   7.442  64.647  1.00  0.00    -0.166 N  
HETATM   17  C   UNL     1      -8.123   6.593  65.446  1.00  0.00    -0.129 C  
HETATM   18  O   UNL     1      -7.202   6.946  66.173  1.00  0.00    -0.071 OA 
HETATM   19  H   UNL     1      -9.594   7.046  64.069  1.00  0.00     0.000 HD 
BRANCH  17  20
HETATM   20  C   UNL     1      -8.463   5.153  65.364  1.00  0.00    -0.141 A  
HETATM   21  C   UNL     1      -9.635   4.799  64.672  1.00  0.00     0.051 A  
HETATM   22  H   UNL     1      -7.809   0.928  66.570  1.00  0.00     0.000 HD 
HETATM   23  C   UNL     1      -7.678   4.175  66.013  1.00  0.00    -0.090 A  
HETATM   24  C   UNL     1      -8.137   2.851  65.963  1.00  0.00    -0.083 A  
HETATM   25  C   UNL     1     -10.033   3.471  64.600  1.00  0.00    -0.153 A  
HETATM   26  C   UNL     1      -6.390   4.489  66.733  1.00  0.00    -0.037 C  
HETATM   27  O   UNL     1      -7.498   1.825  66.603  1.00  0.00    -0.055 OA 
HETATM   28  C   UNL     1      -9.284   2.498  65.253  1.00  0.00    -0.107 A  
ENDBRANCH  17  20
ENDBRANCH  15  16
BRANCH  15  29
HETATM   29  C   UNL     1      -9.571   9.610  63.583  1.00  0.00     0.384 C  
BRANCH  29  30
HETATM   30  S   UNL     1      -9.271  11.401  63.347  1.00  0.00    -0.080 SA 
BRANCH  30  31
HETATM   31  C   UNL     1     -10.829  12.162  63.738  1.00  0.00    -0.432 A  
HETATM   32  C   UNL     1     -13.240  12.110  63.423  1.00  0.00     0.183 A  
HETATM   33  C   UNL     1     -11.964  11.658  63.087  1.00  0.00    -0.113 A  
HETATM   34  C   UNL     1     -12.271  13.587  65.065  1.00  0.00    -0.453 A  
HETATM   35  C   UNL     1     -13.393  13.071  64.419  1.00  0.00     0.724 A  
HETATM   36  C   UNL     1     -10.992  13.134  64.726  1.00  0.00    -0.355 A  
ENDBRANCH  30  31
ENDBRANCH  29  30
ENDBRANCH  15  29
ENDBRANCH  12  15
ENDBRANCH  11  12
ENDBRANCH   8  11
BRANCH   9  37
HETATM   37  C   UNL     1      -8.709  11.715  68.582  1.00  0.00    -0.083 C  
HETATM   38  C   UNL     1      -8.445  14.805  69.106  1.00  0.00    -0.096 C  
HETATM   39  O   UNL     1      -9.898  11.998  68.715  1.00  0.00    -0.158 OA 
HETATM   40  C   UNL     1      -6.750  14.656  67.288  1.00  0.00     0.137 C  
HETATM   41  C   UNL     1      -8.048  14.040  67.835  1.00  0.00    -0.156 C  
HETATM   42  N   UNL     1      -7.770  12.627  68.129  1.00  0.00    -0.132 N  
HETATM   43  C   UNL     1      -9.147  14.192  66.773  1.00  0.00    -0.266 C  
HETATM   44  H   UNL     1      -6.816  12.294  67.990  1.00  0.00     0.000 HD 
ENDBRANCH   9  37
TORSDOF 9
ENDMDL
MODEL      285
REMARK 921   NORMALIZED FREE ENERGY PREDICTED BY IDOCK:    9.43 KCAL/MOL
REMARK 922        TOTAL FREE ENERGY PREDICTED BY IDOCK:   11.56 KCAL/MOL
REMARK 923 INTER-LIGAND FREE ENERGY PREDICTED BY IDOCK:    9.06 KCAL/MOL
REMARK 924 INTRA-LIGAND FREE ENERGY PREDICTED BY IDOCK:    2.51 KCAL/MOL
REMARK 927      BINDING AFFINITY PREDICTED BY RF-SCORE:    0.00 PKD
ROOT
HETATM    1  C   UNL     1     -10.438  13.598  65.278  1.00  0.00    -0.362 C  
HETATM    2  C   UNL     1     -10.889  14.058  63.888  1.00  0.00     0.568 C  
HETATM    3  C   UNL     1     -10.984  15.576  63.796  1.00  0.00     1.659 C  
HETATM    4  C   UNL     1     -11.945  16.125  64.842  1.00  0.00     0.549 C  
HETATM    5  C   UNL     1     -11.606  15.672  66.262  1.00  0.00     0.314 C  
HETATM    6  C   UNL     1     -11.321  14.167  66.389  1.00  0.00    -0.342 C  
HETATM    7  C   UNL     1     -10.715  13.782  67.750  1.00  0.00    -0.246 C  
HETATM    8  N   UNL     1      -9.395  14.367  68.011  1.00  0.00    -0.194 NA 
HETATM    9  C   UNL     1      -8.464  14.334  66.868  1.00  0.00    -0.106 C  
HETATM   10  C   UNL     1      -8.938  13.840  65.488  1.00  0.00     1.091 C  
ENDROOT
BRANCH   8  11
HETATM   11  C   UNL     1      -8.804  13.803  69.251  1.00  0.00     0.608 C  
BRANCH  11  12
HETATM   12  C   UNL     1      -9.635  12.796  70.113  1.00  0.00     3.768 C  
HETATM   13  H   UNL     1     -11.203  12.852  71.340  1.00  0.00     0.000 HD 
HETATM   14  O   UNL     1     -10.699  13.464  70.817  1.00  0.00     1.865 OA 
BRANCH  12  15
HETATM   15  C   UNL     1     -10.174  11.574  69.321  1.00  0.00     0.078 C  
BRANCH  15  16
HETATM   16  N   UNL     1      -9.128  10.620  68.932  1.00  0.00    -0.173 N  
HETATM   17  C   UNL     1      -8.595   9.690  69.794  1.00  0.00    -0.199 C  
HETATM   18  O   UNL     1      -8.922   9.565  70.968  1.00  0.00    -0.241 OA 
HETATM   19  H   UNL     1      -8.779  10.649  67.974  1.00  0.00     0.000 HD 
BRANCH  17  20
HETATM   20  C   UNL     1      -7.518   8.827  69.252  1.00  0.00    -0.078 A  
HETATM   21  C   UNL     1      -6.581   8.306  70.163  1.00  0.00    -0.036 A  
HETATM   22  H   UNL     1      -5.271   7.096  65.834  1.00  0.00     0.000 HD 
HETATM   23  C   UNL     1      -7.395   8.590  67.865  1.00  0.00    -0.093 A  
HETATM   24  C   UNL     1      -6.285   7.845  67.442  1.00  0.00    -0.054 A  
HETATM   25  C   UNL     1      -5.522   7.530  69.712  1.00  0.00    -0.023 A  
HETATM   26  C   UNL     1      -8.391   9.086  66.848  1.00  0.00    -0.119 C  
HETATM   27  O   UNL     1      -6.023   7.600  66.121  1.00  0.00    -0.036 OA 
HETATM   28  C   UNL     1      -5.373   7.306  68.347  1.00  0.00    -0.021 A  
ENDBRANCH  17  20
ENDBRANCH  15  16
BRANCH  15  29
HETATM   29  C   UNL     1     -11.392  10.885  70.005  1.00  0.00    -0.307 C  
BRANCH  29  30
HETATM   30  S   UNL     1     -13.021  11.664  69.700  1.00  0.00     1.195 SA 
BRANCH  30  31
HETATM   31  C   UNL     1     -13.155  12.908  70.961  1.00  0.00     0.003 A  
HETATM   32  C   UNL     1     -14.109  15.054  71.592  1.00  0.00    -0.619 A  
HETATM   33  C   UNL     1     -13.849  14.080  70.629  1.00  0.00     0.582 A  
HETATM   34  C   UNL     1     -12.977  13.708  73.242  1.00  0.00     0.715 A  
HETATM   35  C   UNL     1     -13.677  14.864  72.903  1.00  0.00    -0.427 A  
HETATM   36  C   UNL     1     -12.715  12.733  72.275  1.00  0.00     0.015 A  
ENDBRANCH  30  31
ENDBRANCH  29  30
ENDBRANCH  15  29
ENDBRANCH  12  15
ENDBRANCH  11  12
ENDBRANCH   8  11
BRANCH   9  37
HETATM   37  C   UNL     1      -7.824  15.747  66.693  1.00  0.00    -0.157 C  
HETATM   38  C   UNL     1      -8.342  18.818  66.253  1.00  0.00    -0.262 C  
HETATM   39  O   UNL     1      -6.906  15.996  65.915  1.00  0.00     1.050 OA 
HETATM   40  C   UNL     1      -8.756  18.786  68.708  1.00  0.00    -0.311 C  
HETATM   41  C   UNL     1      -7.971  18.116  67.567  1.00  0.00    -0.227 C  
HETATM   42  N   UNL     1      -8.361  16.700  67.543  1.00  0.00    -0.173 N  
HETATM   43  C   UNL     1      -6.470  18.286  67.842  1.00  0.00    -0.195 C  
HETATM   44  H   UNL     1      -9.080  16.396  68.199  1.00  0.00     0.000 HD 
ENDBRANCH   9  37
TORSDOF 9
ENDMDL
MODEL      286
REMARK 921   NORMALIZED FREE ENERGY PREDICTED BY IDOCK:    9.55 KCAL/MOL
REMARK 922        TOTAL FREE ENERGY PREDICTED BY IDOCK:   11.74 KCAL/MOL
REMARK 923 INTER-LIGAND FREE ENERGY PREDICTED BY IDOCK:    8.11 KCAL/MOL
REMARK 924 INTRA-LIGAND FREE ENERGY PREDICTED BY IDOCK:    3.63 KCAL/MOL
REMARK 927      BINDING AFFINITY PREDICTED BY RF-SCORE:    0.00 PKD
ROOT
HETATM    1  C   UNL     1     -10.034  10.444  70.540  1.00  0.00     0.533 C  
HETATM    2  C   UNL     1     -11.137  10.063  71.532  1.00  0.00     0.107 C  
HETATM    3  C   UNL     1     -12.337   9.436  70.833  1.00  0.00    -0.263 C  
HETATM    4  C   UNL     1     -12.911  10.382  69.785  1.00  0.00     0.270 C  
HETATM    5  C   UNL     1     -11.867  10.862  68.778  1.00  0.00    -0.305 C  
HETATM    6  C   UNL     1     -10.554  11.343  69.416  1.00  0.00    -0.097 C  
HETATM    7  C   UNL     1      -9.427  11.554  68.390  1.00  0.00    -0.195 C  
HETATM    8  N   UNL     1      -9.002  10.333  67.699  1.00  0.00    -0.134 NA 
HETATM    9  C   UNL     1      -8.859   9.147  68.564  1.00  0.00    -0.129 C  
HETATM   10  C   UNL     1      -9.272   9.207  70.047  1.00  0.00    -0.209 C  
ENDROOT
BRANCH   8  11
HETATM   11  C   UNL     1      -7.797  10.587  66.869  1.00  0.00    -0.117 C  
BRANCH  11  12
HETATM   12  C   UNL     1      -6.447   9.884  67.233  1.00  0.00    -0.069 C  
HETATM   13  H   UNL     1      -4.893   9.092  66.271  1.00  0.00     0.000 HD 
HETATM   14  O   UNL     1      -5.712   9.518  66.050  1.00  0.00    -0.047 OA 
BRANCH  12  15
HETATM   15  C   UNL     1      -5.554  10.691  68.213  1.00  0.00    -0.039 C  
BRANCH  15  16
HETATM   16  N   UNL     1      -5.825  12.134  68.200  1.00  0.00    -0.052 N  
HETATM   17  C   UNL     1      -6.064  12.848  67.049  1.00  0.00     0.432 C  
HETATM   18  O   UNL     1      -6.065  12.365  65.922  1.00  0.00     1.359 OA 
HETATM   19  H   UNL     1      -5.836  12.632  69.090  1.00  0.00     0.000 HD 
BRANCH  17  20
HETATM   20  C   UNL     1      -6.282  14.305  67.207  1.00  0.00     0.428 A  
HETATM   21  C   UNL     1      -5.673  15.160  66.270  1.00  0.00     4.025 A  
HETATM   22  H   UNL     1      -7.754  17.786  69.539  1.00  0.00     0.000 HD 
HETATM   23  C   UNL     1      -7.017  14.824  68.295  1.00  0.00    -0.119 A  
HETATM   24  C   UNL     1      -7.081  16.220  68.414  1.00  0.00    -0.136 A  
HETATM   25  C   UNL     1      -5.800  16.537  66.391  1.00  0.00     0.578 A  
HETATM   26  C   UNL     1      -7.726  13.957  69.305  1.00  0.00     0.202 C  
HETATM   27  O   UNL     1      -7.711  16.841  69.458  1.00  0.00    -0.056 OA 
HETATM   28  C   UNL     1      -6.501  17.065  67.470  1.00  0.00    -0.167 A  
ENDBRANCH  17  20
ENDBRANCH  15  16
BRANCH  15  29
HETATM   29  C   UNL     1      -5.526  10.097  69.654  1.00  0.00    -0.038 C  
BRANCH  29  30
HETATM   30  S   UNL     1      -6.724   8.753  69.983  1.00  0.00    -0.040 SA 
BRANCH  30  31
HETATM   31  C   UNL     1      -6.546   8.424  71.721  1.00  0.00    -0.070 A  
HETATM   32  C   UNL     1      -7.295   7.094  73.614  1.00  0.00    -0.088 A  
HETATM   33  C   UNL     1      -7.440   7.505  72.289  1.00  0.00    -0.079 A  
HETATM   34  C   UNL     1      -5.363   8.520  73.833  1.00  0.00    -0.084 A  
HETATM   35  C   UNL     1      -6.251   7.598  74.385  1.00  0.00    -0.089 A  
HETATM   36  C   UNL     1      -5.510   8.932  72.505  1.00  0.00    -0.067 A  
ENDBRANCH  30  31
ENDBRANCH  29  30
ENDBRANCH  15  29
ENDBRANCH  12  15
ENDBRANCH  11  12
ENDBRANCH   8  11
BRANCH   9  37
HETATM   37  C   UNL     1      -9.591   7.939  67.897  1.00  0.00    -0.147 C  
HETATM   38  C   UNL     1      -9.672   4.819  67.512  1.00  0.00    -0.209 C  
HETATM   39  O   UNL     1      -9.900   7.892  66.708  1.00  0.00    -0.209 OA 
HETATM   40  C   UNL     1     -10.793   4.883  69.734  1.00  0.00     0.664 C  
HETATM   41  C   UNL     1     -10.563   5.666  68.431  1.00  0.00    -0.179 C  
HETATM   42  N   UNL     1      -9.907   6.930  68.792  1.00  0.00    -0.147 N  
HETATM   43  C   UNL     1     -11.924   5.905  67.760  1.00  0.00     3.086 C  
HETATM   44  H   UNL     1      -9.666   7.075  69.772  1.00  0.00     0.000 HD 
ENDBRANCH   9  37
TORSDOF 9
ENDMDL
MODEL      287
REMARK 921   NORMALIZED FREE ENERGY PREDICTED BY IDOCK:    9.85 KCAL/MOL
REMARK 922        TOTAL FREE ENERGY PREDICTED BY IDOCK:   12.19 KCAL/MOL
REMARK 923 INTER-LIGAND FREE ENERGY PREDICTED BY IDOCK:   12.14 KCAL/MOL
REMARK 924 INTRA-LIGAND FREE ENERGY PREDICTED BY IDOCK:    0.05 KCAL/MOL
REMARK 927      BINDING AFFINITY PREDICTED BY RF-SCORE:    0.00 PKD
ROOT
HETATM    1  C   UNL     1      -9.787  10.012  66.986  1.00  0.00    -0.238 C  
HETATM    2  C   UNL     1      -8.749   8.885  66.971  1.00  0.00    -0.130 C  
HETATM    3  C   UNL     1      -7.986   8.799  68.287  1.00  0.00    -0.106 C  
HETATM    4  C   UNL     1      -7.289  10.117  68.598  1.00  0.00    -0.082 C  
HETATM    5  C   UNL     1      -8.240  11.314  68.582  1.00  0.00    -0.146 C  
HETATM    6  C   UNL     1      -9.169  11.361  67.359  1.00  0.00    -0.164 C  
HETATM    7  C   UNL     1     -10.295  12.400  67.497  1.00  0.00    -0.215 C  
HETATM    8  N   UNL     1     -11.238  12.128  68.588  1.00  0.00    -0.247 NA 
HETATM    9  C   UNL     1     -11.655  10.719  68.712  1.00  0.00    -0.280 C  
HETATM   10  C   UNL     1     -11.012   9.633  67.828  1.00  0.00    -0.203 C  
ENDROOT
BRANCH   8  11
HETATM   11  C   UNL     1     -12.388  13.066  68.538  1.00  0.00     0.207 C  
BRANCH  11  12
HETATM   12  C   UNL     1     -12.277  14.461  69.238  1.00  0.00    -0.239 C  
HETATM   13  H   UNL     1     -13.288  15.510  70.597  1.00  0.00     0.000 HD 
HETATM   14  O   UNL     1     -13.355  14.664  70.172  1.00  0.00     0.051 OA 
BRANCH  12  15
HETATM   15  C   UNL     1     -10.904  14.728  69.910  1.00  0.00    -0.159 C  
BRANCH  15  16
HETATM   16  N   UNL     1      -9.902  15.288  68.993  1.00  0.00    -0.219 N  
HETATM   17  C   UNL     1     -10.190  16.259  68.061  1.00  0.00    -0.256 C  
HETATM   18  O   UNL     1     -11.300  16.748  67.889  1.00  0.00    -0.177 OA 
HETATM   19  H   UNL     1      -8.946  14.938  69.049  1.00  0.00     0.000 HD 
BRANCH  17  20
HETATM   20  C   UNL     1      -9.073  16.687  67.186  1.00  0.00    -0.227 A  
HETATM   21  C   UNL     1      -9.305  17.768  66.316  1.00  0.00    -0.219 A  
HETATM   22  H   UNL     1      -5.028  16.067  65.459  1.00  0.00     0.000 HD 
HETATM   23  C   UNL     1      -7.841  15.996  67.176  1.00  0.00    -0.244 A  
HETATM   24  C   UNL     1      -6.883  16.413  66.241  1.00  0.00     0.545 A  
HETATM   25  C   UNL     1      -8.314  18.186  65.438  1.00  0.00     1.304 A  
HETATM   26  C   UNL     1      -7.521  14.859  68.114  1.00  0.00    -0.118 C  
HETATM   27  O   UNL     1      -5.677  15.784  66.092  1.00  0.00     1.490 OA 
HETATM   28  C   UNL     1      -7.103  17.501  65.399  1.00  0.00     0.816 A  
ENDBRANCH  17  20
ENDBRANCH  15  16
BRANCH  15  29
HETATM   29  C   UNL     1     -11.013  15.529  71.241  1.00  0.00    -0.171 C  
BRANCH  29  30
HETATM   30  S   UNL     1     -11.846  17.156  71.124  1.00  0.00     2.697 SA 
BRANCH  30  31
HETATM   31  C   UNL     1     -10.581  18.253  70.525  1.00  0.00     2.045 A  
HETATM   32  C   UNL     1      -8.218  18.535  70.030  1.00  0.00     1.660 A  
HETATM   33  C   UNL     1      -9.259  17.794  70.590  1.00  0.00     4.339 A  
HETATM   34  C   UNL     1      -9.802  20.215  69.337  1.00  0.00     0.025 A  
HETATM   35  C   UNL     1      -8.492  19.744  69.396  1.00  0.00     0.240 A  
HETATM   36  C   UNL     1     -10.845  19.472  69.899  1.00  0.00     1.715 A  
ENDBRANCH  30  31
ENDBRANCH  29  30
ENDBRANCH  15  29
ENDBRANCH  12  15
ENDBRANCH  11  12
ENDBRANCH   8  11
BRANCH   9  37
HETATM   37  C   UNL     1     -11.526  10.280  70.205  1.00  0.00    -0.317 C  
HETATM   38  C   UNL     1     -12.211   8.091  72.357  1.00  0.00    -0.337 C  
HETATM   39  O   UNL     1     -11.773  11.011  71.162  1.00  0.00    -0.156 OA 
HETATM   40  C   UNL     1     -10.253   6.928  71.350  1.00  0.00    -0.212 C  
HETATM   41  C   UNL     1     -10.868   8.307  71.645  1.00  0.00    -0.256 C  
HETATM   42  N   UNL     1     -11.052   8.987  70.355  1.00  0.00    -0.243 N  
HETATM   43  C   UNL     1      -9.912   9.081  72.563  1.00  0.00     0.368 C  
HETATM   44  H   UNL     1     -10.815   8.469  69.509  1.00  0.00     0.000 HD 
ENDBRANCH   9  37
TORSDOF 9
ENDMDL
MODEL      288
REMARK 921   NORMALIZED FREE ENERGY PREDICTED BY IDOCK:   10.63 KCAL/MOL
REMARK 922        TOTAL FREE ENERGY PREDICTED BY IDOCK:   13.39 KCAL/MOL
REMARK 923 INTER-LIGAND FREE ENERGY PREDICTED BY IDOCK:   14.61 KCAL/MOL
REMARK 924 INTRA-LIGAND FREE ENERGY PREDICTED BY IDOCK:   -1.22 KCAL/MOL
REMARK 927      BINDING AFFINITY PREDICTED BY RF-SCORE:    0.00 PKD
ROOT
HETATM    1  C   UNL     1     -11.806   6.945  71.451  1.00  0.00    -0.373 C  
HETATM    2  C   UNL     1     -13.110   7.743  71.552  1.00  0.00    -0.356 C  
HETATM    3  C   UNL     1     -12.939   9.173  71.053  1.00  0.00    -0.133 C  
HETATM    4  C   UNL     1     -11.849   9.895  71.834  1.00  0.00    -0.096 C  
HETATM    5  C   UNL     1     -10.519   9.143  71.837  1.00  0.00    -0.280 C  
HETATM    6  C   UNL     1     -10.644   7.646  72.159  1.00  0.00    -0.281 C  
HETATM    7  C   UNL     1      -9.351   6.860  71.884  1.00  0.00    -0.141 C  
HETATM    8  N   UNL     1      -8.945   6.837  70.475  1.00  0.00    -0.151 NA 
HETATM    9  C   UNL     1     -10.042   6.610  69.516  1.00  0.00    -0.177 C  
HETATM   10  C   UNL     1     -11.503   6.548  70.001  1.00  0.00    -0.476 C  
ENDROOT
BRANCH   8  11
HETATM   11  C   UNL     1      -7.801   5.912  70.269  1.00  0.00    -0.101 C  
BRANCH  11  12
HETATM   12  C   UNL     1      -7.448   5.432  68.822  1.00  0.00    -0.075 C  
HETATM   13  H   UNL     1      -5.896   5.526  67.577  1.00  0.00     0.000 HD 
HETATM   14  O   UNL     1      -6.110   5.817  68.456  1.00  0.00    -0.022 OA 
BRANCH  12  15
HETATM   15  C   UNL     1      -7.674   3.915  68.582  1.00  0.00    -0.060 C  
BRANCH  15  16
HETATM   16  N   UNL     1      -8.868   3.387  69.255  1.00  0.00    -0.090 N  
HETATM   17  C   UNL     1      -8.852   2.881  70.535  1.00  0.00    -0.082 C  
HETATM   18  O   UNL     1      -7.851   2.806  71.238  1.00  0.00    -0.043 OA 
HETATM   19  H   UNL     1      -9.753   3.395  68.749  1.00  0.00     0.000 HD 
BRANCH  17  20
HETATM   20  C   UNL     1     -10.136   2.352  71.053  1.00  0.00     0.261 A  
HETATM   21  C   UNL     1     -11.113   1.981  70.112  1.00  0.00     4.517 A  
HETATM   22  H   UNL     1     -12.938   1.533  74.400  1.00  0.00     0.000 HD 
HETATM   23  C   UNL     1     -10.397   2.284  72.439  1.00  0.00    -0.197 A  
HETATM   24  C   UNL     1     -11.677   1.865  72.827  1.00  0.00     0.472 A  
HETATM   25  C   UNL     1     -12.354   1.523  70.534  1.00  0.00     8.375 A  
HETATM   26  C   UNL     1      -9.374   2.627  73.492  1.00  0.00    -0.101 C  
HETATM   27  O   UNL     1     -12.070   1.817  74.137  1.00  0.00     0.106 OA 
HETATM   28  C   UNL     1     -12.636   1.471  71.895  1.00  0.00     3.173 A  
ENDBRANCH  17  20
ENDBRANCH  15  16
BRANCH  15  29
HETATM   29  C   UNL     1      -7.604   3.511  67.079  1.00  0.00    -0.079 C  
BRANCH  29  30
HETATM   30  S   UNL     1      -8.730   2.162  66.565  1.00  0.00    -0.122 SA 
BRANCH  30  31
HETATM   31  C   UNL     1      -9.700   2.875  65.257  1.00  0.00     0.100 A  
HETATM   32  C   UNL     1     -11.507   4.395  64.678  1.00  0.00     0.783 A  
HETATM   33  C   UNL     1     -10.771   3.696  65.635  1.00  0.00     1.013 A  
HETATM   34  C   UNL     1     -10.120   3.458  62.943  1.00  0.00    -0.146 A  
HETATM   35  C   UNL     1     -11.176   4.280  63.330  1.00  0.00     0.628 A  
HETATM   36  C   UNL     1      -9.383   2.757  63.903  1.00  0.00    -0.112 A  
ENDBRANCH  30  31
ENDBRANCH  29  30
ENDBRANCH  15  29
ENDBRANCH  12  15
ENDBRANCH  11  12
ENDBRANCH   8  11
BRANCH   9  37
HETATM   37  C   UNL     1      -9.946   7.669  68.373  1.00  0.00    -0.176 C  
HETATM   38  C   UNL     1      -9.821  10.725  67.643  1.00  0.00    -0.193 C  
HETATM   39  O   UNL     1     -10.653   7.664  67.368  1.00  0.00    -0.274 OA 
HETATM   40  C   UNL     1      -7.419  10.455  68.241  1.00  0.00    -0.090 C  
HETATM   41  C   UNL     1      -8.653   9.729  67.679  1.00  0.00    -0.125 C  
HETATM   42  N   UNL     1      -8.942   8.602  68.576  1.00  0.00    -0.139 N  
HETATM   43  C   UNL     1      -8.332   9.253  66.255  1.00  0.00    -0.124 C  
HETATM   44  H   UNL     1      -8.363   8.500  69.409  1.00  0.00     0.000 HD 
ENDBRANCH   9  37
TORSDOF 9
ENDMDL
MODEL      289
REMARK 921   NORMALIZED FREE ENERGY PREDICTED BY IDOCK:   10.78 KCAL/MOL
REMARK 922        TOTAL FREE ENERGY PREDICTED BY IDOCK:   13.61 KCAL/MOL
REMARK 923 INTER-LIGAND FREE ENERGY PREDICTED BY IDOCK:   15.50 KCAL/MOL
REMARK 924 INTRA-LIGAND FREE ENERGY PREDICTED BY IDOCK:   -1.89 KCAL/MOL
REMARK 927      BINDING AFFINITY PREDICTED BY RF-SCORE:    0.00 PKD
ROOT
HETATM    1  C   UNL     1     -12.278  11.733  71.870  1.00  0.00     0.746 C  
HETATM    2  C   UNL     1     -11.974  11.090  73.227  1.00  0.00     8.549 C  
HETATM    3  C   UNL     1     -11.523   9.642  73.081  1.00  0.00     4.030 C  
HETATM    4  C   UNL     1     -12.578   8.814  72.359  1.00  0.00    -0.430 C  
HETATM    5  C   UNL     1     -12.986   9.410  71.012  1.00  0.00    -0.227 C  
HETATM    6  C   UNL     1     -13.284  10.917  71.057  1.00  0.00    -0.157 C  
HETATM    7  C   UNL     1     -13.417  11.546  69.659  1.00  0.00     2.530 C  
HETATM    8  N   UNL     1     -12.191  11.500  68.856  1.00  0.00    -0.419 NA 
HETATM    9  C   UNL     1     -10.956  11.834  69.588  1.00  0.00     0.010 C  
HETATM   10  C   UNL     1     -10.989  12.070  71.110  1.00  0.00     3.626 C  
ENDROOT
BRANCH   8  11
HETATM   11  C   UNL     1     -12.349  12.285  67.605  1.00  0.00     0.680 C  
BRANCH  11  12
HETATM   12  C   UNL     1     -11.108  13.015  66.991  1.00  0.00    -0.281 C  
HETATM   13  H   UNL     1     -10.405  13.452  65.179  1.00  0.00     0.000 HD 
HETATM   14  O   UNL     1     -11.158  13.009  65.552  1.00  0.00    -0.274 OA 
BRANCH  12  15
HETATM   15  C   UNL     1     -10.883  14.452  67.532  1.00  0.00    -0.282 C  
BRANCH  15  16
HETATM   16  N   UNL     1     -11.270  14.616  68.940  1.00  0.00    -0.253 N  
HETATM   17  C   UNL     1     -12.198  15.537  69.366  1.00  0.00    -0.205 C  
HETATM   18  O   UNL     1     -12.787  16.319  68.629  1.00  0.00     1.087 OA 
HETATM   19  H   UNL     1     -10.827  14.016  69.636  1.00  0.00     0.000 HD 
BRANCH  17  20
HETATM   20  C   UNL     1     -12.446  15.599  70.826  1.00  0.00    -0.484 A  
HETATM   21  C   UNL     1     -13.419  14.734  71.358  1.00  0.00    -0.477 A  
HETATM   22  H   UNL     1     -11.884  17.528  74.787  1.00  0.00     0.000 HD 
HETATM   23  C   UNL     1     -11.780  16.537  71.645  1.00  0.00    -0.205 A  
HETATM   24  C   UNL     1     -12.157  16.587  72.994  1.00  0.00    -0.387 A  
HETATM   25  C   UNL     1     -13.731  14.777  72.711  1.00  0.00    -0.486 A  
HETATM   26  C   UNL     1     -10.699  17.459  71.138  1.00  0.00     1.871 C  
HETATM   27  O   UNL     1     -11.629  17.493  73.873  1.00  0.00     0.099 OA 
HETATM   28  C   UNL     1     -13.101  15.711  73.527  1.00  0.00    -0.638 A  
ENDBRANCH  17  20
ENDBRANCH  15  16
BRANCH  15  29
HETATM   29  C   UNL     1      -9.459  15.009  67.232  1.00  0.00    -0.208 C  
BRANCH  29  30
HETATM   30  S   UNL     1      -9.314  16.833  67.174  1.00  0.00    -0.234 SA 
BRANCH  30  31
HETATM   31  C   UNL     1      -7.661  17.159  67.741  1.00  0.00    -0.177 A  
HETATM   32  C   UNL     1      -6.278  18.119  69.495  1.00  0.00    -0.235 A  
HETATM   33  C   UNL     1      -7.529  17.919  68.911  1.00  0.00    -0.234 A  
HETATM   34  C   UNL     1      -5.264  16.809  67.744  1.00  0.00    -0.134 A  
HETATM   35  C   UNL     1      -5.145  17.556  68.914  1.00  0.00    -0.153 A  
HETATM   36  C   UNL     1      -6.518  16.610  67.158  1.00  0.00    -0.223 A  
ENDBRANCH  30  31
ENDBRANCH  29  30
ENDBRANCH  15  29
ENDBRANCH  12  15
ENDBRANCH  11  12
ENDBRANCH   8  11
BRANCH   9  37
HETATM   37  C   UNL     1      -9.873  10.753  69.280  1.00  0.00    -0.138 C  
HETATM   38  C   UNL     1      -8.475   9.006  67.069  1.00  0.00    -0.120 C  
HETATM   39  O   UNL     1      -9.754   9.699  69.902  1.00  0.00    -0.202 OA 
HETATM   40  C   UNL     1      -7.183  11.097  66.670  1.00  0.00    -0.144 C  
HETATM   41  C   UNL     1      -7.926  10.275  67.737  1.00  0.00    -0.102 C  
HETATM   42  N   UNL     1      -9.013  11.117  68.256  1.00  0.00    -0.159 N  
HETATM   43  C   UNL     1      -6.929   9.893  68.840  1.00  0.00    -0.062 C  
HETATM   44  H   UNL     1      -9.145  12.034  67.831  1.00  0.00     0.000 HD 
ENDBRANCH   9  37
TORSDOF 9
ENDMDL
MODEL      290
REMARK 921   NORMALIZED FREE ENERGY PREDICTED BY IDOCK:   11.65 KCAL/MOL
REMARK 922        TOTAL FREE ENERGY PREDICTED BY IDOCK:   14.95 KCAL/MOL
REMARK 923 INTER-LIGAND FREE ENERGY PREDICTED BY IDOCK:   15.24 KCAL/MOL
REMARK 924 INTRA-LIGAND FREE ENERGY PREDICTED BY IDOCK:   -0.29 KCAL/MOL
REMARK 927      BINDING AFFINITY PREDICTED BY RF-SCORE:    0.00 PKD
ROOT
HETATM    1  C   UNL     1      -9.671  16.340  64.922  1.00  0.00     1.223 C  
HETATM    2  C   UNL     1      -9.037  17.731  65.027  1.00  0.00     3.110 C  
HETATM    3  C   UNL     1      -8.702  18.095  66.468  1.00  0.00    -0.286 C  
HETATM    4  C   UNL     1      -9.945  18.045  67.345  1.00  0.00    -0.328 C  
HETATM    5  C   UNL     1     -10.680  16.707  67.264  1.00  0.00    -0.227 C  
HETATM    6  C   UNL     1     -10.892  16.193  65.832  1.00  0.00    -0.179 C  
HETATM    7  C   UNL     1     -11.374  14.733  65.780  1.00  0.00    -0.336 C  
HETATM    8  N   UNL     1     -10.415  13.760  66.315  1.00  0.00    -0.286 NA 
HETATM    9  C   UNL     1      -9.015  13.982  65.910  1.00  0.00     0.522 C  
HETATM   10  C   UNL     1      -8.624  15.233  65.101  1.00  0.00     3.219 C  
ENDROOT
BRANCH   8  11
HETATM   11  C   UNL     1     -10.874  12.371  66.062  1.00  0.00    -0.273 C  
BRANCH  11  12
HETATM   12  C   UNL     1     -10.633  11.723  64.657  1.00  0.00    -0.308 C  
HETATM   13  H   UNL     1      -9.978  12.296  62.865  1.00  0.00     0.000 HD 
HETATM   14  O   UNL     1     -10.124  12.688  63.717  1.00  0.00    -0.367 OA 
BRANCH  12  15
HETATM   15  C   UNL     1      -9.740  10.454  64.687  1.00  0.00    -0.329 C  
BRANCH  15  16
HETATM   16  N   UNL     1      -9.572   9.887  66.031  1.00  0.00    -0.206 N  
HETATM   17  C   UNL     1     -10.478   9.025  66.607  1.00  0.00    -0.165 C  
HETATM   18  O   UNL     1     -11.515   8.652  66.072  1.00  0.00     3.026 OA 
HETATM   19  H   UNL     1      -8.743  10.145  66.565  1.00  0.00     0.000 HD 
BRANCH  17  20
HETATM   20  C   UNL     1     -10.177   8.575  67.986  1.00  0.00    -0.264 A  
HETATM   21  C   UNL     1      -9.112   7.673  68.159  1.00  0.00    -0.132 A  
HETATM   22  H   UNL     1     -11.199   8.312  72.301  1.00  0.00     0.000 HD 
HETATM   23  C   UNL     1     -10.970   8.983  69.081  1.00  0.00    -0.025 A  
HETATM   24  C   UNL     1     -10.669   8.423  70.331  1.00  0.00    -0.231 A  
HETATM   25  C   UNL     1      -8.810   7.177  69.421  1.00  0.00    -0.136 A  
HETATM   26  C   UNL     1     -12.096   9.979  68.963  1.00  0.00     0.576 C  
HETATM   27  O   UNL     1     -11.403   8.692  71.454  1.00  0.00    -0.253 OA 
HETATM   28  C   UNL     1      -9.597   7.550  70.506  1.00  0.00    -0.168 A  
ENDBRANCH  17  20
ENDBRANCH  15  16
BRANCH  15  29
HETATM   29  C   UNL     1     -10.152   9.385  63.631  1.00  0.00     2.296 C  
BRANCH  29  30
HETATM   30  S   UNL     1      -8.831   8.229  63.113  1.00  0.00     0.712 SA 
BRANCH  30  31
HETATM   31  C   UNL     1      -7.357   8.886  63.858  1.00  0.00    -0.098 A  
HETATM   32  C   UNL     1      -5.430  10.345  63.585  1.00  0.00    -0.156 A  
HETATM   33  C   UNL     1      -6.539   9.688  63.050  1.00  0.00    -0.107 A  
HETATM   34  C   UNL     1      -5.931   9.403  65.747  1.00  0.00    -0.055 A  
HETATM   35  C   UNL     1      -5.130  10.207  64.938  1.00  0.00    -0.077 A  
HETATM   36  C   UNL     1      -7.041   8.744  65.210  1.00  0.00    -0.083 A  
ENDBRANCH  30  31
ENDBRANCH  29  30
ENDBRANCH  15  29
ENDBRANCH  12  15
ENDBRANCH  11  12
ENDBRANCH   8  11
BRANCH   9  37
HETATM   37  C   UNL     1      -8.101  13.906  67.174  1.00  0.00    -0.083 C  
HETATM   38  C   UNL     1      -7.320  15.226  69.919  1.00  0.00    -0.068 C  
HETATM   39  O   UNL     1      -6.884  13.743  67.136  1.00  0.00    -0.141 OA 
HETATM   40  C   UNL     1      -9.344  14.021  70.725  1.00  0.00     4.201 C  
HETATM   41  C   UNL     1      -8.197  13.986  69.700  1.00  0.00     0.811 C  
HETATM   42  N   UNL     1      -8.807  13.994  68.363  1.00  0.00    -0.183 N  
HETATM   43  C   UNL     1      -7.369  12.715  69.939  1.00  0.00     1.089 C  
HETATM   44  H   UNL     1      -9.822  14.070  68.306  1.00  0.00     0.000 HD 
ENDBRANCH   9  37
TORSDOF 9
ENDMDL
MODEL      291
REMARK 921   NORMALIZED FREE ENERGY PREDICTED BY IDOCK:   13.07 KCAL/MOL
REMARK 922        TOTAL FREE ENERGY PREDICTED BY IDOCK:   17.11 KCAL/MOL
REMARK 923 INTER-LIGAND FREE ENERGY PREDICTED BY IDOCK:   13.44 KCAL/MOL
REMARK 924 INTRA-LIGAND FREE ENERGY PREDICTED BY IDOCK:    3.67 KCAL/MOL
REMARK 927      BINDING AFFINITY PREDICTED BY RF-SCORE:    0.00 PKD
ROOT
HETATM    1  C   UNL     1      -6.803   9.622  72.260  1.00  0.00     0.984 C  
HETATM    2  C   UNL     1      -6.906  10.313  73.623  1.00  0.00     3.173 C  
HETATM    3  C   UNL     1      -6.702  11.819  73.512  1.00  0.00     6.847 C  
HETATM    4  C   UNL     1      -5.350  12.141  72.889  1.00  0.00     0.802 C  
HETATM    5  C   UNL     1      -5.133  11.449  71.545  1.00  0.00    -0.026 C  
HETATM    6  C   UNL     1      -5.493   9.955  71.542  1.00  0.00    -0.059 C  
HETATM    7  C   UNL     1      -5.535   9.347  70.129  1.00  0.00    -0.027 C  
HETATM    8  N   UNL     1      -6.571   9.913  69.258  1.00  0.00    -0.048 NA 
HETATM    9  C   UNL     1      -7.882  10.116  69.902  1.00  0.00    -0.151 C  
HETATM   10  C   UNL     1      -8.058   9.866  71.412  1.00  0.00     1.550 C  
ENDROOT
BRANCH   8  11
HETATM   11  C   UNL     1      -6.666   9.152  67.986  1.00  0.00    -0.068 C  
BRANCH  11  12
HETATM   12  C   UNL     1      -7.818   9.477  66.978  1.00  0.00    -0.098 C  
HETATM   13  H   UNL     1      -8.939  11.047  66.479  1.00  0.00     0.000 HD 
HETATM   14  O   UNL     1      -8.239  10.849  67.090  1.00  0.00    -0.121 OA 
BRANCH  12  15
HETATM   15  C   UNL     1      -7.495   9.115  65.504  1.00  0.00    -0.089 C  
BRANCH  15  16
HETATM   16  N   UNL     1      -7.930   7.765  65.123  1.00  0.00    -0.123 N  
HETATM   17  C   UNL     1      -8.712   6.968  65.928  1.00  0.00    -0.126 C  
HETATM   18  O   UNL     1      -9.115   7.289  67.039  1.00  0.00    -0.127 OA 
HETATM   19  H   UNL     1      -7.637   7.399  64.217  1.00  0.00     0.000 HD 
BRANCH  17  20
HETATM   20  C   UNL     1      -9.029   5.616  65.410  1.00  0.00    -0.079 A  
HETATM   21  C   UNL     1     -10.294   5.082  65.718  1.00  0.00    -0.158 A  
HETATM   22  H   UNL     1      -7.821   1.820  63.445  1.00  0.00     0.000 HD 
HETATM   23  C   UNL     1      -8.077   4.862  64.691  1.00  0.00    -0.111 A  
HETATM   24  C   UNL     1      -8.436   3.555  64.332  1.00  0.00    -0.093 A  
HETATM   25  C   UNL     1     -10.634   3.801  65.303  1.00  0.00     0.246 A  
HETATM   26  C   UNL     1      -6.723   5.398  64.295  1.00  0.00    -0.046 C  
HETATM   27  O   UNL     1      -7.578   2.706  63.688  1.00  0.00    -0.064 OA 
HETATM   28  C   UNL     1      -9.699   3.036  64.614  1.00  0.00    -0.106 A  
ENDBRANCH  17  20
ENDBRANCH  15  16
BRANCH  15  29
HETATM   29  C   UNL     1      -7.952  10.203  64.487  1.00  0.00    -0.147 C  
BRANCH  29  30
HETATM   30  S   UNL     1      -8.416  11.820  65.208  1.00  0.00     0.882 SA 
BRANCH  30  31
HETATM   31  C   UNL     1     -10.076  12.095  64.635  1.00  0.00    -0.257 A  
HETATM   32  C   UNL     1     -11.775  13.742  64.073  1.00  0.00    -0.364 A  
HETATM   33  C   UNL     1     -10.534  13.420  64.622  1.00  0.00    -0.428 A  
HETATM   34  C   UNL     1     -12.132  11.416  63.546  1.00  0.00     0.065 A  
HETATM   35  C   UNL     1     -12.572  12.738  63.528  1.00  0.00    -0.359 A  
HETATM   36  C   UNL     1     -10.887  11.094  64.097  1.00  0.00    -0.355 A  
ENDBRANCH  30  31
ENDBRANCH  29  30
ENDBRANCH  15  29
ENDBRANCH  12  15
ENDBRANCH  11  12
ENDBRANCH   8  11
BRANCH   9  37
HETATM   37  C   UNL     1      -8.392  11.555  69.578  1.00  0.00     0.751 C  
HETATM   38  C   UNL     1     -10.335  13.312  67.838  1.00  0.00    -0.239 C  
HETATM   39  O   UNL     1      -7.655  12.515  69.362  1.00  0.00     0.263 OA 
HETATM   40  C   UNL     1     -12.011  12.585  69.530  1.00  0.00    -0.329 C  
HETATM   41  C   UNL     1     -10.521  12.892  69.303  1.00  0.00     0.244 C  
HETATM   42  N   UNL     1      -9.772  11.664  69.604  1.00  0.00     0.219 N  
HETATM   43  C   UNL     1     -10.114  14.047  70.230  1.00  0.00     1.614 C  
HETATM   44  H   UNL     1     -10.308  10.832  69.850  1.00  0.00     0.000 HD 
ENDBRANCH   9  37
TORSDOF 9
ENDMDL
MODEL      292
REMARK 921   NORMALIZED FREE ENERGY PREDICTED BY IDOCK:   13.84 KCAL/MOL
REMARK 922        TOTAL FREE ENERGY PREDICTED BY IDOCK:   18.29 KCAL/MOL
REMARK 923 INTER-LIGAND FREE ENERGY PREDICTED BY IDOCK:   19.75 KCAL/MOL
REMARK 924 INTRA-LIGAND FREE ENERGY PREDICTED BY IDOCK:   -1.46 KCAL/MOL
REMARK 927      BINDING AFFINITY PREDICTED BY RF-SCORE:    0.00 PKD
ROOT
HETATM    1  C   UNL     1     -10.747  14.122  70.249  1.00  0.00     0.532 C  
HETATM    2  C   UNL     1     -10.541  12.606  70.333  1.00  0.00     2.505 C  
HETATM    3  C   UNL     1      -9.851  12.057  69.091  1.00  0.00     0.294 C  
HETATM    4  C   UNL     1     -10.648  12.385  67.836  1.00  0.00    -0.231 C  
HETATM    5  C   UNL     1     -10.951  13.876  67.692  1.00  0.00    -0.278 C  
HETATM    6  C   UNL     1     -11.486  14.534  68.974  1.00  0.00    -0.318 C  
HETATM    7  C   UNL     1     -11.518  16.070  68.894  1.00  0.00    -0.362 C  
HETATM    8  N   UNL     1     -10.198  16.696  68.757  1.00  0.00    -0.269 NA 
HETATM    9  C   UNL     1      -9.147  16.126  69.620  1.00  0.00     0.119 C  
HETATM   10  C   UNL     1      -9.432  14.879  70.479  1.00  0.00     1.144 C  
ENDROOT
BRANCH   8  11
HETATM   11  C   UNL     1     -10.299  18.173  68.873  1.00  0.00    -0.200 C  
BRANCH  11  12
HETATM   12  C   UNL     1     -11.110  18.977  67.802  1.00  0.00    -0.001 C  
HETATM   13  H   UNL     1     -11.544  20.881  67.409  1.00  0.00     0.000 HD 
HETATM   14  O   UNL     1     -11.052  20.393  68.058  1.00  0.00     0.328 OA 
BRANCH  12  15
HETATM   15  C   UNL     1     -10.714  18.662  66.335  1.00  0.00    -0.224 C  
BRANCH  15  16
HETATM   16  N   UNL     1     -10.781  17.233  66.004  1.00  0.00    -0.189 N  
HETATM   17  C   UNL     1     -10.847  16.757  64.715  1.00  0.00     0.019 C  
HETATM   18  O   UNL     1     -10.869  17.466  63.715  1.00  0.00     1.933 OA 
HETATM   19  H   UNL     1     -10.778  16.558  66.770  1.00  0.00     0.000 HD 
BRANCH  17  20
HETATM   20  C   UNL     1     -10.949  15.288  64.556  1.00  0.00    -0.212 A  
HETATM   21  C   UNL     1      -9.749  14.554  64.501  1.00  0.00     1.230 A  
HETATM   22  H   UNL     1     -13.318  11.617  63.756  1.00  0.00     0.000 HD 
HETATM   23  C   UNL     1     -12.199  14.650  64.399  1.00  0.00    -0.473 A  
HETATM   24  C   UNL     1     -12.185  13.270  64.153  1.00  0.00    -0.401 A  
HETATM   25  C   UNL     1      -9.776  13.180  64.306  1.00  0.00     0.410 A  
HETATM   26  C   UNL     1     -13.517  15.378  64.491  1.00  0.00     2.154 C  
HETATM   27  O   UNL     1     -13.327  12.552  63.923  1.00  0.00    -0.440 OA 
HETATM   28  C   UNL     1     -10.998  12.540  64.126  1.00  0.00    -0.425 A  
ENDBRANCH  17  20
ENDBRANCH  15  16
BRANCH  15  29
HETATM   29  C   UNL     1     -11.449  19.555  65.292  1.00  0.00     1.531 C  
BRANCH  29  30
HETATM   30  S   UNL     1     -10.458  20.916  64.572  1.00  0.00     3.459 SA 
BRANCH  30  31
HETATM   31  C   UNL     1      -8.838  20.695  65.269  1.00  0.00     1.174 A  
HETATM   32  C   UNL     1      -6.462  20.440  64.823  1.00  0.00    -0.340 A  
HETATM   33  C   UNL     1      -7.780  20.498  64.371  1.00  0.00     1.398 A  
HETATM   34  C   UNL     1      -7.234  20.767  67.084  1.00  0.00    -0.394 A  
HETATM   35  C   UNL     1      -6.188  20.582  66.181  1.00  0.00    -0.254 A  
HETATM   36  C   UNL     1      -8.555  20.824  66.630  1.00  0.00     0.065 A  
ENDBRANCH  30  31
ENDBRANCH  29  30
ENDBRANCH  15  29
ENDBRANCH  12  15
ENDBRANCH  11  12
ENDBRANCH   8  11
BRANCH   9  37
HETATM   37  C   UNL     1      -7.874  15.850  68.758  1.00  0.00    -0.185 C  
HETATM   38  C   UNL     1      -6.754  14.970  65.955  1.00  0.00     5.905 C  
HETATM   39  O   UNL     1      -6.927  15.160  69.129  1.00  0.00    -0.123 OA 
HETATM   40  C   UNL     1      -7.220  17.344  65.366  1.00  0.00     1.082 C  
HETATM   41  C   UNL     1      -6.839  16.396  66.516  1.00  0.00     0.103 C  
HETATM   42  N   UNL     1      -7.890  16.505  67.538  1.00  0.00    -0.150 N  
HETATM   43  C   UNL     1      -5.469  16.822  67.064  1.00  0.00    -0.166 C  
HETATM   44  H   UNL     1      -8.688  17.105  67.333  1.00  0.00     0.000 HD 
ENDBRANCH   9  37
TORSDOF 9
ENDMDL
MODEL      293
REMARK 921   NORMALIZED FREE ENERGY PREDICTED BY IDOCK:   23.95 KCAL/MOL
REMARK 922        TOTAL FREE ENERGY PREDICTED BY IDOCK:   33.72 KCAL/MOL
REMARK 923 INTER-LIGAND FREE ENERGY PREDICTED BY IDOCK:   28.11 KCAL/MOL
REMARK 924 INTRA-LIGAND FREE ENERGY PREDICTED BY IDOCK:    5.60 KCAL/MOL
REMARK 927      BINDING AFFINITY PREDICTED BY RF-SCORE:    0.00 PKD
ROOT
HETATM    1  C   UNL     1      -9.301  15.699  71.137  1.00  0.00     2.736 C  
HETATM    2  C   UNL     1      -8.825  14.279  71.462  1.00  0.00     6.316 C  
HETATM    3  C   UNL     1      -8.082  13.647  70.292  1.00  0.00     2.682 C  
HETATM    4  C   UNL     1      -8.960  13.608  69.048  1.00  0.00     0.323 C  
HETATM    5  C   UNL     1      -9.528  14.977  68.674  1.00  0.00    -0.212 C  
HETATM    6  C   UNL     1     -10.136  15.748  69.856  1.00  0.00    -0.232 C  
HETATM    7  C   UNL     1     -10.444  17.218  69.523  1.00  0.00    -0.054 C  
HETATM    8  N   UNL     1      -9.262  18.026  69.206  1.00  0.00     0.100 NA 
HETATM    9  C   UNL     1      -8.103  17.805  70.090  1.00  0.00     2.462 C  
HETATM   10  C   UNL     1      -8.137  16.698  71.161  1.00  0.00     6.211 C  
ENDROOT
BRANCH   8  11
HETATM   11  C   UNL     1      -9.622  19.462  69.078  1.00  0.00    -0.370 C  
BRANCH  11  12
HETATM   12  C   UNL     1     -10.591  19.915  67.936  1.00  0.00    -0.284 C  
HETATM   13  H   UNL     1     -11.087  21.609  67.012  1.00  0.00     0.000 HD 
HETATM   14  O   UNL     1     -10.499  21.334  67.706  1.00  0.00     0.693 OA 
BRANCH  12  15
HETATM   15  C   UNL     1     -10.424  19.126  66.609  1.00  0.00    -0.443 C  
BRANCH  15  16
HETATM   16  N   UNL     1     -11.023  17.786  66.645  1.00  0.00     0.052 N  
HETATM   17  C   UNL     1     -10.618  16.755  65.830  1.00  0.00    -0.250 C  
HETATM   18  O   UNL     1      -9.733  16.844  64.987  1.00  0.00     0.175 OA 
HETATM   19  H   UNL     1     -11.779  17.612  67.308  1.00  0.00     0.000 HD 
BRANCH  17  20
HETATM   20  C   UNL     1     -11.355  15.476  65.966  1.00  0.00    -0.018 A  
HETATM   21  C   UNL     1     -12.759  15.537  66.028  1.00  0.00     1.720 A  
HETATM   22  H   UNL     1     -11.437  11.093  66.681  1.00  0.00     0.000 HD 
HETATM   23  C   UNL     1     -10.673  14.246  66.097  1.00  0.00    -0.295 A  
HETATM   24  C   UNL     1     -11.455  13.104  66.323  1.00  0.00    -0.334 A  
HETATM   25  C   UNL     1     -13.504  14.378  66.203  1.00  0.00     1.879 A  
HETATM   26  C   UNL     1      -9.174  14.115  65.996  1.00  0.00    -0.005 C  
HETATM   27  O   UNL     1     -10.908  11.867  66.527  1.00  0.00    -0.254 OA 
HETATM   28  C   UNL     1     -12.847  13.161  66.357  1.00  0.00     0.594 A  
ENDBRANCH  17  20
ENDBRANCH  15  16
BRANCH  15  29
HETATM   29  C   UNL     1     -10.846  19.940  65.350  1.00  0.00    -0.011 C  
BRANCH  29  30
HETATM   30  S   UNL     1      -9.517  20.915  64.552  1.00  0.00     3.565 SA 
BRANCH  30  31
HETATM   31  C   UNL     1      -8.130  20.748  65.650  1.00  0.00     0.738 A  
HETATM   32  C   UNL     1      -5.772  20.193  65.860  1.00  0.00    -0.192 A  
HETATM   33  C   UNL     1      -6.943  20.242  65.103  1.00  0.00    -0.246 A  
HETATM   34  C   UNL     1      -6.955  21.148  67.731  1.00  0.00    -0.177 A  
HETATM   35  C   UNL     1      -5.777  20.653  67.174  1.00  0.00    -0.229 A  
HETATM   36  C   UNL     1      -8.129  21.196  66.972  1.00  0.00     0.194 A  
ENDBRANCH  30  31
ENDBRANCH  29  30
ENDBRANCH  15  29
ENDBRANCH  12  15
ENDBRANCH  11  12
ENDBRANCH   8  11
BRANCH   9  37
HETATM   37  C   UNL     1      -6.826  17.605  69.214  1.00  0.00    -0.194 C  
HETATM   38  C   UNL     1      -5.304  15.733  67.197  1.00  0.00     0.258 C  
HETATM   39  O   UNL     1      -5.678  17.760  69.625  1.00  0.00    -0.210 OA 
HETATM   40  C   UNL     1      -6.854  16.767  65.546  1.00  0.00     1.951 C  
HETATM   41  C   UNL     1      -6.103  17.002  66.867  1.00  0.00    -0.200 C  
HETATM   42  N   UNL     1      -7.112  17.279  67.899  1.00  0.00    -0.165 N  
HETATM   43  C   UNL     1      -5.143  18.186  66.678  1.00  0.00    -0.162 C  
HETATM   44  H   UNL     1      -8.093  17.228  67.626  1.00  0.00     0.000 HD 
ENDBRANCH   9  37
TORSDOF 9
ENDMDL
MODEL      294
REMARK 921   NORMALIZED FREE ENERGY PREDICTED BY IDOCK:   28.84 KCAL/MOL
REMARK 922        TOTAL FREE ENERGY PREDICTED BY IDOCK:   41.18 KCAL/MOL
REMARK 923 INTER-LIGAND FREE ENERGY PREDICTED BY IDOCK:   42.08 KCAL/MOL
REMARK 924 INTRA-LIGAND FREE ENERGY PREDICTED BY IDOCK:   -0.91 KCAL/MOL
REMARK 927      BINDING AFFINITY PREDICTED BY RF-SCORE:    0.00 PKD
ROOT
HETATM    1  C   UNL     1     -10.957  15.631  71.683  1.00  0.00    -0.042 C  
HETATM    2  C   UNL     1     -11.912  16.195  72.740  1.00  0.00    -0.638 C  
HETATM    3  C   UNL     1     -12.055  17.708  72.625  1.00  0.00     2.776 C  
HETATM    4  C   UNL     1     -10.702  18.394  72.757  1.00  0.00     3.329 C  
HETATM    5  C   UNL     1      -9.662  17.857  71.774  1.00  0.00     7.683 C  
HETATM    6  C   UNL     1      -9.592  16.323  71.710  1.00  0.00     5.747 C  
HETATM    7  C   UNL     1      -8.752  15.806  70.530  1.00  0.00     1.789 C  
HETATM    8  N   UNL     1      -9.293  16.143  69.209  1.00  0.00    -0.249 NA 
HETATM    9  C   UNL     1     -10.751  15.973  69.073  1.00  0.00    -0.274 C  
HETATM   10  C   UNL     1     -11.612  15.600  70.296  1.00  0.00    -0.370 C  
ENDROOT
BRANCH   8  11
HETATM   11  C   UNL     1      -8.531  15.457  68.135  1.00  0.00    -0.147 C  
BRANCH  11  12
HETATM   12  C   UNL     1      -8.256  13.920  68.246  1.00  0.00    -0.158 C  
HETATM   13  H   UNL     1      -8.816  12.405  69.411  1.00  0.00     0.000 HD 
HETATM   14  O   UNL     1      -8.983  13.337  69.344  1.00  0.00     0.726 OA 
BRANCH  12  15
HETATM   15  C   UNL     1      -8.508  13.132  66.933  1.00  0.00    -0.070 C  
BRANCH  15  16
HETATM   16  N   UNL     1      -8.376  11.678  67.088  1.00  0.00    -0.157 N  
HETATM   17  C   UNL     1      -7.204  10.996  66.853  1.00  0.00    -0.133 C  
HETATM   18  O   UNL     1      -6.160  11.519  66.482  1.00  0.00    -0.145 OA 
HETATM   19  H   UNL     1      -9.195  11.146  67.385  1.00  0.00     0.000 HD 
BRANCH  17  20
HETATM   20  C   UNL     1      -7.251   9.524  67.020  1.00  0.00    -0.087 A  
HETATM   21  C   UNL     1      -7.754   9.022  68.234  1.00  0.00    -0.095 A  
HETATM   22  H   UNL     1      -6.223   5.422  65.661  1.00  0.00     0.000 HD 
HETATM   23  C   UNL     1      -6.749   8.656  66.026  1.00  0.00    -0.061 A  
HETATM   24  C   UNL     1      -6.744   7.284  66.319  1.00  0.00    -0.053 A  
HETATM   25  C   UNL     1      -7.780   7.653  68.469  1.00  0.00    -0.119 A  
HETATM   26  C   UNL     1      -6.237   9.134  64.690  1.00  0.00    -0.070 C  
HETATM   27  O   UNL     1      -6.227   6.351  65.463  1.00  0.00    -0.035 OA 
HETATM   28  C   UNL     1      -7.268   6.786  67.510  1.00  0.00    -0.090 A  
ENDBRANCH  17  20
ENDBRANCH  15  16
BRANCH  15  29
HETATM   29  C   UNL     1      -9.826  13.542  66.210  1.00  0.00    -0.299 C  
BRANCH  29  30
HETATM   30  S   UNL     1     -11.264  12.445  66.495  1.00  0.00    -0.339 SA 
BRANCH  30  31
HETATM   31  C   UNL     1     -11.382  11.482  65.006  1.00  0.00    -0.098 A  
HETATM   32  C   UNL     1     -12.738  10.912  63.069  1.00  0.00     2.560 A  
HETATM   33  C   UNL     1     -12.597  11.535  64.309  1.00  0.00     0.322 A  
HETATM   34  C   UNL     1     -10.450  10.161  63.201  1.00  0.00     1.262 A  
HETATM   35  C   UNL     1     -11.659  10.229  62.511  1.00  0.00     3.924 A  
HETATM   36  C   UNL     1     -10.311  10.785  64.444  1.00  0.00    -0.405 A  
ENDBRANCH  30  31
ENDBRANCH  29  30
ENDBRANCH  15  29
ENDBRANCH  12  15
ENDBRANCH  11  12
ENDBRANCH   8  11
BRANCH   9  37
HETATM   37  C   UNL     1     -11.355  17.254  68.417  1.00  0.00     0.327 C  
HETATM   38  C   UNL     1     -10.766  19.913  66.844  1.00  0.00    -0.471 C  
HETATM   39  O   UNL     1     -12.161  17.998  68.971  1.00  0.00     3.763 OA 
HETATM   40  C   UNL     1     -10.679  18.375  64.888  1.00  0.00     1.652 C  
HETATM   41  C   UNL     1     -11.311  18.596  66.274  1.00  0.00     1.059 C  
HETATM   42  N   UNL     1     -10.929  17.453  67.114  1.00  0.00    -0.065 N  
HETATM   43  C   UNL     1     -12.834  18.693  66.105  1.00  0.00     9.833 C  
HETATM   44  H   UNL     1     -10.304  16.756  66.709  1.00  0.00     0.000 HD 
ENDBRANCH   9  37
TORSDOF 9
ENDMDL
MODEL      295
REMARK 921   NORMALIZED FREE ENERGY PREDICTED BY IDOCK:   41.25 KCAL/MOL
REMARK 922        TOTAL FREE ENERGY PREDICTED BY IDOCK:   60.12 KCAL/MOL
REMARK 923 INTER-LIGAND FREE ENERGY PREDICTED BY IDOCK:   61.34 KCAL/MOL
REMARK 924 INTRA-LIGAND FREE ENERGY PREDICTED BY IDOCK:   -1.22 KCAL/MOL
REMARK 927      BINDING AFFINITY PREDICTED BY RF-SCORE:    0.00 PKD
ROOT
HETATM    1  C   UNL     1     -10.257  16.680  72.536  1.00  0.00     5.929 C  
HETATM    2  C   UNL     1     -11.262  17.570  73.275  1.00  0.00     1.773 C  
HETATM    3  C   UNL     1     -10.953  19.051  73.089  1.00  0.00     3.439 C  
HETATM    4  C   UNL     1      -9.546  19.377  73.571  1.00  0.00     4.528 C  
HETATM    5  C   UNL     1      -8.474  18.499  72.927  1.00  0.00    11.460 C  
HETATM    6  C   UNL     1      -8.811  16.999  72.922  1.00  0.00    16.798 C  
HETATM    7  C   UNL     1      -7.868  16.172  72.031  1.00  0.00     9.169 C  
HETATM    8  N   UNL     1      -7.936  16.506  70.605  1.00  0.00     3.015 NA 
HETATM    9  C   UNL     1      -9.299  16.702  70.077  1.00  0.00     1.120 C  
HETATM   10  C   UNL     1     -10.514  16.683  71.024  1.00  0.00     1.401 C  
ENDROOT
BRANCH   8  11
HETATM   11  C   UNL     1      -7.139  15.546  69.799  1.00  0.00    -0.119 C  
BRANCH  11  12
HETATM   12  C   UNL     1      -7.501  14.024  69.834  1.00  0.00     0.540 C  
HETATM   13  H   UNL     1      -8.949  12.871  70.571  1.00  0.00     0.000 HD 
HETATM   14  O   UNL     1      -8.730  13.795  70.549  1.00  0.00     3.191 OA 
BRANCH  12  15
HETATM   15  C   UNL     1      -7.538  13.346  68.438  1.00  0.00    -0.133 C  
BRANCH  15  16
HETATM   16  N   UNL     1      -7.249  11.906  68.478  1.00  0.00    -0.094 N  
HETATM   17  C   UNL     1      -6.070  11.359  68.027  1.00  0.00    -0.046 C  
HETATM   18  O   UNL     1      -5.149  12.003  67.539  1.00  0.00    -0.064 OA 
HETATM   19  H   UNL     1      -7.960  11.281  68.859  1.00  0.00     0.000 HD 
BRANCH  17  20
HETATM   20  C   UNL     1      -5.955   9.883  68.104  1.00  0.00    -0.043 A  
HETATM   21  C   UNL     1      -6.005   9.292  69.379  1.00  0.00    -0.037 A  
HETATM   22  H   UNL     1      -5.121   5.945  66.226  1.00  0.00     0.000 HD 
HETATM   23  C   UNL     1      -5.735   9.103  66.948  1.00  0.00    -0.045 A  
HETATM   24  C   UNL     1      -5.537   7.727  67.134  1.00  0.00    -0.032 A  
HETATM   25  C   UNL     1      -5.855   7.918  69.521  1.00  0.00    -0.027 A  
HETATM   26  C   UNL     1      -5.714   9.676  65.553  1.00  0.00    -0.059 C  
HETATM   27  O   UNL     1      -5.255   6.877  66.100  1.00  0.00    -0.020 OA 
HETATM   28  C   UNL     1      -5.615   7.138  68.395  1.00  0.00    -0.022 A  
ENDBRANCH  17  20
ENDBRANCH  15  16
BRANCH  15  29
HETATM   29  C   UNL     1      -8.823  13.679  67.624  1.00  0.00    -0.194 C  
BRANCH  29  30
HETATM   30  S   UNL     1     -10.079  12.349  67.541  1.00  0.00    -0.205 SA 
BRANCH  30  31
HETATM   31  C   UNL     1      -9.669  11.450  66.064  1.00  0.00    -0.223 A  
HETATM   32  C   UNL     1     -10.283   9.637  64.564  1.00  0.00     0.987 A  
HETATM   33  C   UNL     1     -10.453  10.328  65.764  1.00  0.00    -0.159 A  
HETATM   34  C   UNL     1      -8.532  11.175  63.942  1.00  0.00     0.331 A  
HETATM   35  C   UNL     1      -9.325  10.066  63.649  1.00  0.00    -0.301 A  
HETATM   36  C   UNL     1      -8.703  11.865  65.146  1.00  0.00     0.631 A  
ENDBRANCH  30  31
ENDBRANCH  29  30
ENDBRANCH  15  29
ENDBRANCH  12  15
ENDBRANCH  11  12
ENDBRANCH   8  11
BRANCH   9  37
HETATM   37  C   UNL     1      -9.339  18.025  69.249  1.00  0.00     0.174 C  
HETATM   38  C   UNL     1      -7.689  20.116  67.577  1.00  0.00    -0.342 C  
HETATM   39  O   UNL     1      -9.883  19.059  69.629  1.00  0.00    -0.026 OA 
HETATM   40  C   UNL     1      -7.950  18.419  65.774  1.00  0.00     0.123 C  
HETATM   41  C   UNL     1      -8.601  19.006  67.037  1.00  0.00    -0.293 C  
HETATM   42  N   UNL     1      -8.737  17.909  68.006  1.00  0.00    -0.250 N  
HETATM   43  C   UNL     1      -9.966  19.596  66.653  1.00  0.00    -0.532 C  
HETATM   44  H   UNL     1      -8.361  16.998  67.745  1.00  0.00     0.000 HD 
ENDBRANCH   9  37
TORSDOF 9
ENDMDL
MODEL      296
REMARK 921   NORMALIZED FREE ENERGY PREDICTED BY IDOCK:   52.54 KCAL/MOL
REMARK 922        TOTAL FREE ENERGY PREDICTED BY IDOCK:   77.35 KCAL/MOL
REMARK 923 INTER-LIGAND FREE ENERGY PREDICTED BY IDOCK:   62.23 KCAL/MOL
REMARK 924 INTRA-LIGAND FREE ENERGY PREDICTED BY IDOCK:   15.12 KCAL/MOL
REMARK 927      BINDING AFFINITY PREDICTED BY RF-SCORE:    0.00 PKD
ROOT
HETATM    1  C   UNL     1      -8.561  15.953  72.626  1.00  0.00    12.044 C  
HETATM    2  C   UNL     1      -7.776  14.798  73.255  1.00  0.00     7.023 C  
HETATM    3  C   UNL     1      -7.282  13.810  72.206  1.00  0.00     5.273 C  
HETATM    4  C   UNL     1      -8.444  13.244  71.401  1.00  0.00    11.280 C  
HETATM    5  C   UNL     1      -9.321  14.328  70.776  1.00  0.00     3.320 C  
HETATM    6  C   UNL     1      -9.709  15.457  71.744  1.00  0.00     3.283 C  
HETATM    7  C   UNL     1     -10.347  16.665  71.037  1.00  0.00     1.760 C  
HETATM    8  N   UNL     1      -9.455  17.358  70.101  1.00  0.00     1.547 NA 
HETATM    9  C   UNL     1      -8.079  17.562  70.590  1.00  0.00     4.705 C  
HETATM   10  C   UNL     1      -7.627  16.951  71.930  1.00  0.00     9.824 C  
ENDROOT
BRANCH   8  11
HETATM   11  C   UNL     1     -10.080  18.611  69.604  1.00  0.00     0.467 C  
BRANCH  11  12
HETATM   12  C   UNL     1     -10.954  18.574  68.306  1.00  0.00     0.285 C  
HETATM   13  H   UNL     1     -11.639  19.868  66.956  1.00  0.00     0.000 HD 
HETATM   14  O   UNL     1     -11.109  19.890  67.743  1.00  0.00    -0.136 OA 
BRANCH  12  15
HETATM   15  C   UNL     1     -10.460  17.566  67.234  1.00  0.00    -0.327 C  
BRANCH  15  16
HETATM   16  N   UNL     1     -10.675  16.162  67.607  1.00  0.00    -0.319 N  
HETATM   17  C   UNL     1      -9.693  15.201  67.530  1.00  0.00    -0.205 C  
HETATM   18  O   UNL     1      -8.552  15.406  67.134  1.00  0.00    -0.179 OA 
HETATM   19  H   UNL     1     -11.598  15.886  67.940  1.00  0.00     0.000 HD 
BRANCH  17  20
HETATM   20  C   UNL     1     -10.086  13.823  67.907  1.00  0.00    -0.246 A  
HETATM   21  C   UNL     1      -9.213  13.103  68.743  1.00  0.00     0.144 A  
HETATM   22  H   UNL     1     -12.718  10.272  67.472  1.00  0.00     0.000 HD 
HETATM   23  C   UNL     1     -11.260  13.227  67.395  1.00  0.00    -0.316 A  
HETATM   24  C   UNL     1     -11.492  11.885  67.729  1.00  0.00    -0.319 A  
HETATM   25  C   UNL     1      -9.501  11.791  69.094  1.00  0.00     0.314 A  
HETATM   26  C   UNL     1     -12.253  13.962  66.531  1.00  0.00    -0.482 C  
HETATM   27  O   UNL     1     -12.561  11.181  67.246  1.00  0.00     1.386 OA 
HETATM   28  C   UNL     1     -10.641  11.181  68.580  1.00  0.00    -0.219 A  
ENDBRANCH  17  20
ENDBRANCH  15  16
BRANCH  15  29
HETATM   29  C   UNL     1     -10.971  17.892  65.799  1.00  0.00     0.242 C  
BRANCH  29  30
HETATM   30  S   UNL     1      -9.975  19.105  64.857  1.00  0.00     3.241 SA 
BRANCH  30  31
HETATM   31  C   UNL     1      -8.531  19.361  65.861  1.00  0.00    -0.053 A  
HETATM   32  C   UNL     1      -6.103  19.463  65.924  1.00  0.00    -0.207 A  
HETATM   33  C   UNL     1      -7.287  19.165  65.248  1.00  0.00     0.280 A  
HETATM   34  C   UNL     1      -7.386  20.152  67.845  1.00  0.00    -0.326 A  
HETATM   35  C   UNL     1      -6.154  19.964  67.222  1.00  0.00    -0.201 A  
HETATM   36  C   UNL     1      -8.572  19.852  67.167  1.00  0.00    -0.384 A  
ENDBRANCH  30  31
ENDBRANCH  29  30
ENDBRANCH  15  29
ENDBRANCH  12  15
ENDBRANCH  11  12
ENDBRANCH   8  11
BRANCH   9  37
HETATM   37  C   UNL     1      -7.074  17.117  69.481  1.00  0.00     0.028 C  
HETATM   38  C   UNL     1      -5.160  14.847  68.444  1.00  0.00    -0.107 C  
HETATM   39  O   UNL     1      -6.142  17.809  69.077  1.00  0.00    -0.193 OA 
HETATM   40  C   UNL     1      -7.282  13.877  67.577  1.00  0.00    -0.178 C  
HETATM   41  C   UNL     1      -6.562  15.191  67.923  1.00  0.00    -0.158 C  
HETATM   42  N   UNL     1      -7.362  15.869  68.953  1.00  0.00    -0.154 N  
HETATM   43  C   UNL     1      -6.448  16.036  66.645  1.00  0.00     0.489 C  
HETATM   44  H   UNL     1      -8.188  15.386  69.304  1.00  0.00     0.000 HD 
ENDBRANCH   9  37
TORSDOF 9
ENDMDL
