MODEL        1
REMARK 921   NORMALIZED FREE ENERGY PREDICTED BY IDOCK:   -7.17 KCAL/MOL
REMARK 922        TOTAL FREE ENERGY PREDICTED BY IDOCK:   -9.56 KCAL/MOL
REMARK 923 INTER-LIGAND FREE ENERGY PREDICTED BY IDOCK:   -8.85 KCAL/MOL
REMARK 924 INTRA-LIGAND FREE ENERGY PREDICTED BY IDOCK:   -0.71 KCAL/MOL
REMARK 927      BINDING AFFINITY PREDICTED BY RF-SCORE:    0.00 PKD
ROOT
HETATM    1  N   UNL     1     -12.380  13.974  63.562  1.00  0.00    -1.118 N  
HETATM    2  H2  UNL     1     -13.201  14.233  63.014  1.00  0.00     0.000 HD 
HETATM    3  H1  UNL     1     -11.569  14.594  63.576  1.00  0.00     0.000 HD 
HETATM    4  C   UNL     1     -12.382  12.803  64.264  1.00  0.00    -0.416 C  
HETATM    5  O   UNL     1     -13.354  12.059  64.246  1.00  0.00    -0.709 OA 
ENDROOT
BRANCH   4   6
HETATM    6  C   UNL     1     -11.123  12.507  65.044  1.00  0.00    -0.335 C  
BRANCH   6   7
HETATM    7  C   UNL     1     -11.299  12.719  66.532  1.00  0.00    -0.369 A  
HETATM    8  C   UNL     1     -11.530  11.586  67.333  1.00  0.00    -0.349 A  
HETATM    9  C   UNL     1     -11.724  11.709  68.702  1.00  0.00    -0.386 A  
HETATM   10  C   UNL     1     -11.757  12.973  69.276  1.00  0.00    -0.375 A  
HETATM   11  C   UNL     1     -11.599  14.125  68.485  1.00  0.00    -0.351 A  
HETATM   12  C   UNL     1     -11.234  14.001  67.124  1.00  0.00    -0.313 A  
HETATM   13  H2  UNL     1     -11.739  15.151  65.583  1.00  0.00     0.000 HD 
HETATM   14  N   UNL     1     -11.025  15.136  66.311  1.00  0.00    -0.340 NA 
HETATM   15  H1  UNL     1     -10.978  16.061  66.739  1.00  0.00     0.000 HD 
BRANCH  11  16
HETATM   16  C   UNL     1     -11.791  15.465  69.128  1.00  0.00    -0.335 C  
HETATM   17  O   UNL     1     -11.425  16.487  68.557  1.00  0.00    -0.317 OA 
BRANCH  16  18
HETATM   18  C   UNL     1     -12.396  15.556  70.501  1.00  0.00    -0.461 A  
HETATM   19  C   UNL     1     -13.760  15.307  70.728  1.00  0.00    -0.255 A  
HETATM   20  C   UNL     1     -14.253  15.223  72.032  1.00  0.00    -0.679 A  
HETATM   21  C   UNL     1     -13.400  15.434  73.114  1.00  0.00    -0.608 A  
HETATM   22  C   UNL     1     -12.062  15.761  72.891  1.00  0.00    -0.596 A  
HETATM   23  C   UNL     1     -11.561  15.830  71.587  1.00  0.00    -0.537 A  
ENDBRANCH  16  18
ENDBRANCH  11  16
ENDBRANCH   6   7
ENDBRANCH   4   6
TORSDOF 4
ENDMDL
MODEL        2
REMARK 921   NORMALIZED FREE ENERGY PREDICTED BY IDOCK:   -7.12 KCAL/MOL
REMARK 922        TOTAL FREE ENERGY PREDICTED BY IDOCK:   -9.50 KCAL/MOL
REMARK 923 INTER-LIGAND FREE ENERGY PREDICTED BY IDOCK:   -8.60 KCAL/MOL
REMARK 924 INTRA-LIGAND FREE ENERGY PREDICTED BY IDOCK:   -0.90 KCAL/MOL
REMARK 927      BINDING AFFINITY PREDICTED BY RF-SCORE:    0.00 PKD
ROOT
HETATM    1  N   UNL     1     -13.033  15.971  74.499  1.00  0.00    -0.897 N  
HETATM    2  H2  UNL     1     -12.376  16.443  75.120  1.00  0.00     0.000 HD 
HETATM    3  H1  UNL     1     -13.833  15.477  74.895  1.00  0.00     0.000 HD 
HETATM    4  C   UNL     1     -12.828  16.009  73.150  1.00  0.00    -0.519 C  
HETATM    5  O   UNL     1     -11.867  16.601  72.674  1.00  0.00    -0.516 OA 
ENDROOT
BRANCH   4   6
HETATM    6  C   UNL     1     -13.853  15.281  72.313  1.00  0.00    -0.632 C  
BRANCH   6   7
HETATM    7  C   UNL     1     -13.258  14.121  71.544  1.00  0.00    -0.423 A  
HETATM    8  C   UNL     1     -13.401  12.831  72.088  1.00  0.00    -0.593 A  
HETATM    9  C   UNL     1     -12.859  11.725  71.450  1.00  0.00    -0.440 A  
HETATM   10  C   UNL     1     -12.109  11.903  70.294  1.00  0.00    -0.409 A  
HETATM   11  C   UNL     1     -11.893  13.189  69.769  1.00  0.00    -0.386 A  
HETATM   12  C   UNL     1     -12.579  14.298  70.317  1.00  0.00    -0.319 A  
HETATM   13  H2  UNL     1     -11.972  16.183  70.494  1.00  0.00     0.000 HD 
HETATM   14  N   UNL     1     -12.420  15.598  69.788  1.00  0.00    -0.540 NA 
HETATM   15  H1  UNL     1     -11.930  15.725  68.902  1.00  0.00     0.000 HD 
BRANCH  11  16
HETATM   16  C   UNL     1     -10.956  13.339  68.609  1.00  0.00    -0.264 C  
HETATM   17  O   UNL     1      -9.804  13.720  68.787  1.00  0.00    -0.190 OA 
BRANCH  16  18
HETATM   18  C   UNL     1     -11.442  13.065  67.214  1.00  0.00    -0.380 A  
HETATM   19  C   UNL     1     -12.359  13.912  66.569  1.00  0.00    -0.447 A  
HETATM   20  C   UNL     1     -12.652  13.732  65.215  1.00  0.00    -0.510 A  
HETATM   21  C   UNL     1     -12.070  12.679  64.511  1.00  0.00    -0.485 A  
HETATM   22  C   UNL     1     -11.220  11.788  65.168  1.00  0.00    -0.311 A  
HETATM   23  C   UNL     1     -10.912  11.975  66.519  1.00  0.00    -0.337 A  
ENDBRANCH  16  18
ENDBRANCH  11  16
ENDBRANCH   6   7
ENDBRANCH   4   6
TORSDOF 4
ENDMDL
MODEL        3
REMARK 921   NORMALIZED FREE ENERGY PREDICTED BY IDOCK:   -7.10 KCAL/MOL
REMARK 922        TOTAL FREE ENERGY PREDICTED BY IDOCK:   -9.47 KCAL/MOL
REMARK 923 INTER-LIGAND FREE ENERGY PREDICTED BY IDOCK:   -8.76 KCAL/MOL
REMARK 924 INTRA-LIGAND FREE ENERGY PREDICTED BY IDOCK:   -0.71 KCAL/MOL
REMARK 927      BINDING AFFINITY PREDICTED BY RF-SCORE:    0.00 PKD
ROOT
HETATM    1  N   UNL     1     -12.226  13.562  62.940  1.00  0.00    -0.882 N  
HETATM    2  H2  UNL     1     -13.049  13.573  62.337  1.00  0.00     0.000 HD 
HETATM    3  H1  UNL     1     -11.388  14.072  62.656  1.00  0.00     0.000 HD 
HETATM    4  C   UNL     1     -12.261  12.866  64.114  1.00  0.00    -0.414 C  
HETATM    5  O   UNL     1     -13.265  12.255  64.454  1.00  0.00    -0.806 OA 
ENDROOT
BRANCH   4   6
HETATM    6  C   UNL     1     -10.995  12.911  64.937  1.00  0.00    -0.327 C  
BRANCH   6   7
HETATM    7  C   UNL     1     -11.143  13.754  66.184  1.00  0.00    -0.296 A  
HETATM    8  C   UNL     1     -10.687  15.084  66.136  1.00  0.00    -0.328 A  
HETATM    9  C   UNL     1     -10.770  15.907  67.250  1.00  0.00    -0.306 A  
HETATM   10  C   UNL     1     -11.248  15.389  68.447  1.00  0.00    -0.318 A  
HETATM   11  C   UNL     1     -11.645  14.044  68.540  1.00  0.00    -0.357 A  
HETATM   12  C   UNL     1     -11.721  13.250  67.372  1.00  0.00    -0.373 A  
HETATM   13  H2  UNL     1     -11.378  11.303  67.157  1.00  0.00     0.000 HD 
HETATM   14  N   UNL     1     -12.157  11.907  67.421  1.00  0.00    -0.523 NA 
HETATM   15  H1  UNL     1     -12.574  11.543  68.278  1.00  0.00     0.000 HD 
BRANCH  11  16
HETATM   16  C   UNL     1     -12.011  13.498  69.887  1.00  0.00    -0.348 C  
HETATM   17  O   UNL     1     -11.933  12.296  70.112  1.00  0.00    -0.334 OA 
BRANCH  16  18
HETATM   18  C   UNL     1     -12.520  14.424  70.956  1.00  0.00    -0.425 A  
HETATM   19  C   UNL     1     -13.892  14.578  71.212  1.00  0.00    -0.381 A  
HETATM   20  C   UNL     1     -14.325  15.303  72.324  1.00  0.00    -0.586 A  
HETATM   21  C   UNL     1     -13.393  15.917  73.160  1.00  0.00    -0.681 A  
HETATM   22  C   UNL     1     -12.032  15.833  72.864  1.00  0.00    -0.599 A  
HETATM   23  C   UNL     1     -11.595  15.094  71.761  1.00  0.00    -0.478 A  
ENDBRANCH  16  18
ENDBRANCH  11  16
ENDBRANCH   6   7
ENDBRANCH   4   6
TORSDOF 4
ENDMDL
MODEL        4
REMARK 921   NORMALIZED FREE ENERGY PREDICTED BY IDOCK:   -6.84 KCAL/MOL
REMARK 922        TOTAL FREE ENERGY PREDICTED BY IDOCK:   -9.14 KCAL/MOL
REMARK 923 INTER-LIGAND FREE ENERGY PREDICTED BY IDOCK:   -8.42 KCAL/MOL
REMARK 924 INTRA-LIGAND FREE ENERGY PREDICTED BY IDOCK:   -0.73 KCAL/MOL
REMARK 927      BINDING AFFINITY PREDICTED BY RF-SCORE:    0.00 PKD
ROOT
HETATM    1  N   UNL     1     -12.402  11.524  63.039  1.00  0.00    -0.935 N  
HETATM    2  H2  UNL     1     -11.948  10.765  62.531  1.00  0.00     0.000 HD 
HETATM    3  H1  UNL     1     -13.416  11.518  63.150  1.00  0.00     0.000 HD 
HETATM    4  C   UNL     1     -11.644  12.532  63.561  1.00  0.00    -0.508 C  
HETATM    5  O   UNL     1     -10.427  12.540  63.429  1.00  0.00    -0.397 OA 
ENDROOT
BRANCH   4   6
HETATM    6  C   UNL     1     -12.407  13.609  64.297  1.00  0.00    -0.388 C  
BRANCH   6   7
HETATM    7  C   UNL     1     -11.541  14.364  65.282  1.00  0.00    -0.353 A  
HETATM    8  C   UNL     1     -11.177  13.707  66.473  1.00  0.00    -0.321 A  
HETATM    9  C   UNL     1     -10.405  14.348  67.432  1.00  0.00    -0.252 A  
HETATM   10  C   UNL     1     -10.044  15.676  67.242  1.00  0.00    -0.255 A  
HETATM   11  C   UNL     1     -10.454  16.374  66.094  1.00  0.00    -0.321 A  
HETATM   12  C   UNL     1     -11.095  15.683  65.039  1.00  0.00    -0.389 A  
HETATM   13  H2  UNL     1     -12.501  16.329  63.790  1.00  0.00     0.000 HD 
HETATM   14  N   UNL     1     -11.482  16.344  63.853  1.00  0.00    -1.618 NA 
HETATM   15  H1  UNL     1     -11.160  17.296  63.677  1.00  0.00     0.000 HD 
BRANCH  11  16
HETATM   16  C   UNL     1     -10.165  17.843  66.009  1.00  0.00    -0.295 C  
HETATM   17  O   UNL     1     -10.870  18.576  65.325  1.00  0.00    -0.606 OA 
BRANCH  16  18
HETATM   18  C   UNL     1      -8.978  18.414  66.732  1.00  0.00    -0.291 A  
HETATM   19  C   UNL     1      -9.117  19.149  67.921  1.00  0.00    -0.349 A  
HETATM   20  C   UNL     1      -7.989  19.511  68.662  1.00  0.00    -0.381 A  
HETATM   21  C   UNL     1      -6.717  19.184  68.196  1.00  0.00    -0.264 A  
HETATM   22  C   UNL     1      -6.571  18.525  66.975  1.00  0.00    -0.203 A  
HETATM   23  C   UNL     1      -7.698  18.147  66.240  1.00  0.00    -0.290 A  
ENDBRANCH  16  18
ENDBRANCH  11  16
ENDBRANCH   6   7
ENDBRANCH   4   6
TORSDOF 4
ENDMDL
MODEL        5
REMARK 921   NORMALIZED FREE ENERGY PREDICTED BY IDOCK:   -6.81 KCAL/MOL
REMARK 922        TOTAL FREE ENERGY PREDICTED BY IDOCK:   -9.11 KCAL/MOL
REMARK 923 INTER-LIGAND FREE ENERGY PREDICTED BY IDOCK:   -8.29 KCAL/MOL
REMARK 924 INTRA-LIGAND FREE ENERGY PREDICTED BY IDOCK:   -0.82 KCAL/MOL
REMARK 927      BINDING AFFINITY PREDICTED BY RF-SCORE:    0.00 PKD
ROOT
HETATM    1  N   UNL     1     -11.546  11.602  62.970  1.00  0.00    -0.829 N  
HETATM    2  H2  UNL     1     -12.093  11.648  62.110  1.00  0.00     0.000 HD 
HETATM    3  H1  UNL     1     -10.560  11.343  62.925  1.00  0.00     0.000 HD 
HETATM    4  C   UNL     1     -12.144  11.886  64.164  1.00  0.00    -0.298 C  
HETATM    5  O   UNL     1     -13.327  12.197  64.218  1.00  0.00    -0.761 OA 
ENDROOT
BRANCH   4   6
HETATM    6  C   UNL     1     -11.253  11.790  65.380  1.00  0.00    -0.310 C  
BRANCH   6   7
HETATM    7  C   UNL     1     -11.215  13.078  66.174  1.00  0.00    -0.320 A  
HETATM    8  C   UNL     1     -11.681  13.043  67.502  1.00  0.00    -0.421 A  
HETATM    9  C   UNL     1     -11.697  14.192  68.281  1.00  0.00    -0.383 A  
HETATM   10  C   UNL     1     -11.312  15.403  67.720  1.00  0.00    -0.308 A  
HETATM   11  C   UNL     1     -10.909  15.476  66.375  1.00  0.00    -0.277 A  
HETATM   12  C   UNL     1     -10.730  14.288  65.628  1.00  0.00    -0.316 A  
HETATM   13  H2  UNL     1     -11.033  13.971  63.689  1.00  0.00     0.000 HD 
HETATM   14  N   UNL     1     -10.285  14.320  64.288  1.00  0.00    -0.533 NA 
HETATM   15  H1  UNL     1      -9.935  15.194  63.894  1.00  0.00     0.000 HD 
BRANCH  11  16
HETATM   16  C   UNL     1     -10.648  16.826  65.779  1.00  0.00    -0.250 C  
HETATM   17  O   UNL     1     -11.046  17.095  64.652  1.00  0.00    -1.036 OA 
BRANCH  16  18
HETATM   18  C   UNL     1      -9.854  17.843  66.550  1.00  0.00    -0.343 A  
HETATM   19  C   UNL     1     -10.445  19.005  67.072  1.00  0.00    -0.514 A  
HETATM   20  C   UNL     1      -9.726  19.836  67.933  1.00  0.00    -0.503 A  
HETATM   21  C   UNL     1      -8.399  19.539  68.240  1.00  0.00    -0.375 A  
HETATM   22  C   UNL     1      -7.783  18.430  67.660  1.00  0.00    -0.236 A  
HETATM   23  C   UNL     1      -8.505  17.586  66.811  1.00  0.00    -0.275 A  
ENDBRANCH  16  18
ENDBRANCH  11  16
ENDBRANCH   6   7
ENDBRANCH   4   6
TORSDOF 4
ENDMDL
MODEL        6
REMARK 921   NORMALIZED FREE ENERGY PREDICTED BY IDOCK:   -6.61 KCAL/MOL
REMARK 922        TOTAL FREE ENERGY PREDICTED BY IDOCK:   -8.86 KCAL/MOL
REMARK 923 INTER-LIGAND FREE ENERGY PREDICTED BY IDOCK:   -8.28 KCAL/MOL
REMARK 924 INTRA-LIGAND FREE ENERGY PREDICTED BY IDOCK:   -0.59 KCAL/MOL
REMARK 927      BINDING AFFINITY PREDICTED BY RF-SCORE:    0.00 PKD
ROOT
HETATM    1  N   UNL     1     -12.535  14.871  63.826  1.00  0.00    -1.062 N  
HETATM    2  H2  UNL     1     -13.276  15.391  63.356  1.00  0.00     0.000 HD 
HETATM    3  H1  UNL     1     -12.603  13.856  63.902  1.00  0.00     0.000 HD 
HETATM    4  C   UNL     1     -11.466  15.544  64.345  1.00  0.00    -0.259 C  
HETATM    5  O   UNL     1     -11.384  16.762  64.254  1.00  0.00    -1.170 OA 
ENDROOT
BRANCH   4   6
HETATM    6  C   UNL     1     -10.421  14.688  65.021  1.00  0.00    -0.447 C  
BRANCH   6   7
HETATM    7  C   UNL     1     -10.281  15.000  66.495  1.00  0.00    -0.281 A  
HETATM    8  C   UNL     1      -9.031  15.458  66.953  1.00  0.00    -0.273 A  
HETATM    9  C   UNL     1      -8.824  15.740  68.295  1.00  0.00    -0.180 A  
HETATM   10  C   UNL     1      -9.844  15.504  69.208  1.00  0.00    -0.270 A  
HETATM   11  C   UNL     1     -11.079  14.981  68.785  1.00  0.00    -0.269 A  
HETATM   12  C   UNL     1     -11.353  14.850  67.404  1.00  0.00    -0.347 A  
HETATM   13  H2  UNL     1     -12.446  13.478  66.469  1.00  0.00     0.000 HD 
HETATM   14  N   UNL     1     -12.598  14.369  66.942  1.00  0.00    -0.437 NA 
HETATM   15  H1  UNL     1     -13.371  14.261  67.598  1.00  0.00     0.000 HD 
BRANCH  11  16
HETATM   16  C   UNL     1     -12.090  14.605  69.826  1.00  0.00    -0.324 C  
HETATM   17  O   UNL     1     -12.765  15.468  70.377  1.00  0.00    -0.425 OA 
BRANCH  16  18
HETATM   18  C   UNL     1     -12.247  13.167  70.231  1.00  0.00    -0.376 A  
HETATM   19  C   UNL     1     -11.577  12.130  69.560  1.00  0.00    -0.382 A  
HETATM   20  C   UNL     1     -11.601  10.830  70.070  1.00  0.00    -0.417 A  
HETATM   21  C   UNL     1     -12.331  10.548  71.223  1.00  0.00    -0.502 A  
HETATM   22  C   UNL     1     -13.064  11.558  71.847  1.00  0.00    -0.492 A  
HETATM   23  C   UNL     1     -13.028  12.864  71.349  1.00  0.00    -0.362 A  
ENDBRANCH  16  18
ENDBRANCH  11  16
ENDBRANCH   6   7
ENDBRANCH   4   6
TORSDOF 4
ENDMDL
MODEL        7
REMARK 921   NORMALIZED FREE ENERGY PREDICTED BY IDOCK:   -6.58 KCAL/MOL
REMARK 922        TOTAL FREE ENERGY PREDICTED BY IDOCK:   -8.82 KCAL/MOL
REMARK 923 INTER-LIGAND FREE ENERGY PREDICTED BY IDOCK:   -8.14 KCAL/MOL
REMARK 924 INTRA-LIGAND FREE ENERGY PREDICTED BY IDOCK:   -0.68 KCAL/MOL
REMARK 927      BINDING AFFINITY PREDICTED BY RF-SCORE:    0.00 PKD
ROOT
HETATM    1  N   UNL     1     -14.225  15.742  72.628  1.00  0.00    -0.463 N  
HETATM    2  H2  UNL     1     -15.217  15.702  72.858  1.00  0.00     0.000 HD 
HETATM    3  H1  UNL     1     -13.760  16.649  72.566  1.00  0.00     0.000 HD 
HETATM    4  C   UNL     1     -13.537  14.584  72.406  1.00  0.00    -0.466 C  
HETATM    5  O   UNL     1     -14.095  13.496  72.481  1.00  0.00    -0.731 OA 
ENDROOT
BRANCH   4   6
HETATM    6  C   UNL     1     -12.073  14.747  72.072  1.00  0.00    -0.403 C  
BRANCH   6   7
HETATM    7  C   UNL     1     -11.811  14.715  70.582  1.00  0.00    -0.367 A  
HETATM    8  C   UNL     1     -11.618  15.944  69.923  1.00  0.00    -0.337 A  
HETATM    9  C   UNL     1     -11.398  15.990  68.554  1.00  0.00    -0.382 A  
HETATM   10  C   UNL     1     -11.435  14.814  67.815  1.00  0.00    -0.363 A  
HETATM   11  C   UNL     1     -11.695  13.583  68.440  1.00  0.00    -0.393 A  
HETATM   12  C   UNL     1     -11.753  13.506  69.851  1.00  0.00    -0.271 A  
HETATM   13  H2  UNL     1     -12.868  12.324  70.996  1.00  0.00     0.000 HD 
HETATM   14  N   UNL     1     -11.970  12.278  70.515  1.00  0.00    -0.512 NA 
HETATM   15  H1  UNL     1     -11.928  11.406  69.987  1.00  0.00     0.000 HD 
BRANCH  11  16
HETATM   16  C   UNL     1     -11.872  12.368  67.579  1.00  0.00    -0.284 C  
HETATM   17  O   UNL     1     -12.235  11.305  68.071  1.00  0.00    -0.621 OA 
BRANCH  16  18
HETATM   18  C   UNL     1     -11.560  12.440  66.111  1.00  0.00    -0.452 A  
HETATM   19  C   UNL     1     -10.285  12.133  65.607  1.00  0.00    -0.285 A  
HETATM   20  C   UNL     1     -10.077  12.034  64.230  1.00  0.00    -0.319 A  
HETATM   21  C   UNL     1     -11.125  12.288  63.348  1.00  0.00    -0.487 A  
HETATM   22  C   UNL     1     -12.373  12.671  63.841  1.00  0.00    -0.546 A  
HETATM   23  C   UNL     1     -12.589  12.755  65.220  1.00  0.00    -0.460 A  
ENDBRANCH  16  18
ENDBRANCH  11  16
ENDBRANCH   6   7
ENDBRANCH   4   6
TORSDOF 4
ENDMDL
MODEL        8
REMARK 921   NORMALIZED FREE ENERGY PREDICTED BY IDOCK:   -6.51 KCAL/MOL
REMARK 922        TOTAL FREE ENERGY PREDICTED BY IDOCK:   -8.74 KCAL/MOL
REMARK 923 INTER-LIGAND FREE ENERGY PREDICTED BY IDOCK:   -7.91 KCAL/MOL
REMARK 924 INTRA-LIGAND FREE ENERGY PREDICTED BY IDOCK:   -0.83 KCAL/MOL
REMARK 927      BINDING AFFINITY PREDICTED BY RF-SCORE:    0.00 PKD
ROOT
HETATM    1  N   UNL     1     -10.681  19.678  67.152  1.00  0.00    -0.485 N  
HETATM    2  H2  UNL     1     -11.233  20.507  66.932  1.00  0.00     0.000 HD 
HETATM    3  H1  UNL     1     -10.269  19.581  68.081  1.00  0.00     0.000 HD 
HETATM    4  C   UNL     1     -10.504  18.716  66.200  1.00  0.00    -0.430 C  
HETATM    5  O   UNL     1     -10.998  18.832  65.086  1.00  0.00    -0.514 OA 
ENDROOT
BRANCH   4   6
HETATM    6  C   UNL     1      -9.672  17.527  66.621  1.00  0.00    -0.303 C  
BRANCH   6   7
HETATM    7  C   UNL     1     -10.515  16.307  66.925  1.00  0.00    -0.302 A  
HETATM    8  C   UNL     1     -10.798  16.024  68.274  1.00  0.00    -0.319 A  
HETATM    9  C   UNL     1     -11.545  14.909  68.627  1.00  0.00    -0.342 A  
HETATM   10  C   UNL     1     -11.962  14.026  67.639  1.00  0.00    -0.404 A  
HETATM   11  C   UNL     1     -11.633  14.250  66.291  1.00  0.00    -0.379 A  
HETATM   12  C   UNL     1     -11.019  15.466  65.907  1.00  0.00    -0.293 A  
HETATM   13  H2  UNL     1      -9.700  15.800  64.458  1.00  0.00     0.000 HD 
HETATM   14  N   UNL     1     -10.713  15.743  64.556  1.00  0.00    -0.776 NA 
HETATM   15  H1  UNL     1     -11.077  15.135  63.822  1.00  0.00     0.000 HD 
BRANCH  11  16
HETATM   16  C   UNL     1     -11.977  13.192  65.286  1.00  0.00    -0.398 C  
HETATM   17  O   UNL     1     -13.089  13.164  64.769  1.00  0.00    -0.728 OA 
BRANCH  16  18
HETATM   18  C   UNL     1     -10.970  12.132  64.941  1.00  0.00    -0.355 A  
HETATM   19  C   UNL     1     -10.605  11.130  65.855  1.00  0.00    -0.294 A  
HETATM   20  C   UNL     1      -9.807  10.059  65.446  1.00  0.00    -0.384 A  
HETATM   21  C   UNL     1      -9.329  10.007  64.137  1.00  0.00    -0.335 A  
HETATM   22  C   UNL     1      -9.623  11.042  63.248  1.00  0.00    -0.370 A  
HETATM   23  C   UNL     1     -10.436  12.107  63.650  1.00  0.00    -0.495 A  
ENDBRANCH  16  18
ENDBRANCH  11  16
ENDBRANCH   6   7
ENDBRANCH   4   6
TORSDOF 4
ENDMDL
MODEL        9
REMARK 921   NORMALIZED FREE ENERGY PREDICTED BY IDOCK:   -6.44 KCAL/MOL
REMARK 922        TOTAL FREE ENERGY PREDICTED BY IDOCK:   -8.65 KCAL/MOL
REMARK 923 INTER-LIGAND FREE ENERGY PREDICTED BY IDOCK:   -8.09 KCAL/MOL
REMARK 924 INTRA-LIGAND FREE ENERGY PREDICTED BY IDOCK:   -0.56 KCAL/MOL
REMARK 927      BINDING AFFINITY PREDICTED BY RF-SCORE:    0.00 PKD
ROOT
HETATM    1  N   UNL     1     -10.990  12.399  63.179  1.00  0.00    -0.688 N  
HETATM    2  H2  UNL     1     -11.075  11.627  62.517  1.00  0.00     0.000 HD 
HETATM    3  H1  UNL     1     -10.088  12.859  63.301  1.00  0.00     0.000 HD 
HETATM    4  C   UNL     1     -12.086  12.801  63.887  1.00  0.00    -0.486 C  
HETATM    5  O   UNL     1     -13.169  12.250  63.739  1.00  0.00    -0.771 OA 
ENDROOT
BRANCH   4   6
HETATM    6  C   UNL     1     -11.861  13.951  64.840  1.00  0.00    -0.401 C  
BRANCH   6   7
HETATM    7  C   UNL     1     -11.560  13.487  66.248  1.00  0.00    -0.374 A  
HETATM    8  C   UNL     1     -11.764  12.127  66.549  1.00  0.00    -0.392 A  
HETATM    9  C   UNL     1     -11.531  11.637  67.826  1.00  0.00    -0.373 A  
HETATM   10  C   UNL     1     -11.156  12.514  68.836  1.00  0.00    -0.309 A  
HETATM   11  C   UNL     1     -11.013  13.888  68.577  1.00  0.00    -0.277 A  
HETATM   12  C   UNL     1     -11.085  14.366  67.248  1.00  0.00    -0.311 A  
HETATM   13  H2  UNL     1     -11.780  16.104  66.578  1.00  0.00     0.000 HD 
HETATM   14  N   UNL     1     -10.904  15.734  66.946  1.00  0.00    -0.301 NA 
HETATM   15  H1  UNL     1     -10.561  16.369  67.667  1.00  0.00     0.000 HD 
BRANCH  11  16
HETATM   16  C   UNL     1     -10.754  14.810  69.731  1.00  0.00    -0.154 C  
HETATM   17  O   UNL     1      -9.685  15.402  69.825  1.00  0.00    -0.272 OA 
BRANCH  16  18
HETATM   18  C   UNL     1     -11.793  14.975  70.804  1.00  0.00    -0.372 A  
HETATM   19  C   UNL     1     -11.463  15.428  72.092  1.00  0.00    -0.525 A  
HETATM   20  C   UNL     1     -12.469  15.742  73.008  1.00  0.00    -0.581 A  
HETATM   21  C   UNL     1     -13.807  15.562  72.661  1.00  0.00    -0.654 A  
HETATM   22  C   UNL     1     -14.137  15.037  71.411  1.00  0.00    -0.576 A  
HETATM   23  C   UNL     1     -13.133  14.736  70.486  1.00  0.00    -0.275 A  
ENDBRANCH  16  18
ENDBRANCH  11  16
ENDBRANCH   6   7
ENDBRANCH   4   6
TORSDOF 4
ENDMDL
MODEL       10
REMARK 921   NORMALIZED FREE ENERGY PREDICTED BY IDOCK:   -6.42 KCAL/MOL
REMARK 922        TOTAL FREE ENERGY PREDICTED BY IDOCK:   -8.64 KCAL/MOL
REMARK 923 INTER-LIGAND FREE ENERGY PREDICTED BY IDOCK:   -7.84 KCAL/MOL
REMARK 924 INTRA-LIGAND FREE ENERGY PREDICTED BY IDOCK:   -0.80 KCAL/MOL
REMARK 927      BINDING AFFINITY PREDICTED BY RF-SCORE:    0.00 PKD
ROOT
HETATM    1  N   UNL     1     -12.660  14.775  63.707  1.00  0.00    -0.986 N  
HETATM    2  H2  UNL     1     -13.456  15.285  63.326  1.00  0.00     0.000 HD 
HETATM    3  H1  UNL     1     -12.704  13.759  63.785  1.00  0.00     0.000 HD 
HETATM    4  C   UNL     1     -11.550  15.462  64.107  1.00  0.00    -0.071 C  
HETATM    5  O   UNL     1     -11.496  16.682  64.013  1.00  0.00    -1.192 OA 
ENDROOT
BRANCH   4   6
HETATM    6  C   UNL     1     -10.423  14.620  64.658  1.00  0.00    -0.207 C  
BRANCH   6   7
HETATM    7  C   UNL     1     -10.302  14.725  66.162  1.00  0.00    -0.314 A  
HETATM    8  C   UNL     1      -9.357  15.627  66.684  1.00  0.00    -0.291 A  
HETATM    9  C   UNL     1      -9.176  15.757  68.053  1.00  0.00    -0.188 A  
HETATM   10  C   UNL     1      -9.891  14.937  68.918  1.00  0.00    -0.230 A  
HETATM   11  C   UNL     1     -10.790  13.979  68.418  1.00  0.00    -0.263 A  
HETATM   12  C   UNL     1     -11.102  13.957  67.039  1.00  0.00    -0.301 A  
HETATM   13  H2  UNL     1     -11.541  12.402  65.880  1.00  0.00     0.000 HD 
HETATM   14  N   UNL     1     -12.033  13.036  66.509  1.00  0.00    -0.402 NA 
HETATM   15  H1  UNL     1     -12.611  12.482  67.142  1.00  0.00     0.000 HD 
BRANCH  11  16
HETATM   16  C   UNL     1     -11.421  13.021  69.383  1.00  0.00    -0.261 C  
HETATM   17  O   UNL     1     -11.184  11.821  69.312  1.00  0.00    -0.246 OA 
BRANCH  16  18
HETATM   18  C   UNL     1     -12.387  13.528  70.417  1.00  0.00    -0.397 A  
HETATM   19  C   UNL     1     -12.877  12.703  71.442  1.00  0.00    -0.358 A  
HETATM   20  C   UNL     1     -13.628  13.247  72.487  1.00  0.00    -0.637 A  
HETATM   21  C   UNL     1     -13.933  14.607  72.490  1.00  0.00    -0.518 A  
HETATM   22  C   UNL     1     -13.516  15.415  71.431  1.00  0.00    -0.607 A  
HETATM   23  C   UNL     1     -12.751  14.877  70.393  1.00  0.00    -0.370 A  
ENDBRANCH  16  18
ENDBRANCH  11  16
ENDBRANCH   6   7
ENDBRANCH   4   6
TORSDOF 4
ENDMDL
MODEL       11
REMARK 921   NORMALIZED FREE ENERGY PREDICTED BY IDOCK:   -6.33 KCAL/MOL
REMARK 922        TOTAL FREE ENERGY PREDICTED BY IDOCK:   -8.52 KCAL/MOL
REMARK 923 INTER-LIGAND FREE ENERGY PREDICTED BY IDOCK:   -7.47 KCAL/MOL
REMARK 924 INTRA-LIGAND FREE ENERGY PREDICTED BY IDOCK:   -1.05 KCAL/MOL
REMARK 927      BINDING AFFINITY PREDICTED BY RF-SCORE:    0.00 PKD
ROOT
HETATM    1  N   UNL     1     -11.183  11.570  62.990  1.00  0.00    -0.823 N  
HETATM    2  H2  UNL     1     -11.170  11.735  61.984  1.00  0.00     0.000 HD 
HETATM    3  H1  UNL     1     -10.681  10.769  63.374  1.00  0.00     0.000 HD 
HETATM    4  C   UNL     1     -11.873  12.422  63.804  1.00  0.00    -0.502 C  
HETATM    5  O   UNL     1     -12.475  13.383  63.343  1.00  0.00    -0.753 OA 
ENDROOT
BRANCH   4   6
HETATM    6  C   UNL     1     -11.833  12.094  65.278  1.00  0.00    -0.356 C  
BRANCH   6   7
HETATM    7  C   UNL     1     -10.905  13.006  66.050  1.00  0.00    -0.290 A  
HETATM    8  C   UNL     1      -9.589  12.563  66.280  1.00  0.00    -0.246 A  
HETATM    9  C   UNL     1      -8.692  13.337  67.001  1.00  0.00    -0.192 A  
HETATM   10  C   UNL     1      -9.119  14.535  67.561  1.00  0.00    -0.193 A  
HETATM   11  C   UNL     1     -10.448  14.966  67.404  1.00  0.00    -0.255 A  
HETATM   12  C   UNL     1     -11.318  14.269  66.533  1.00  0.00    -0.346 A  
HETATM   13  H2  UNL     1     -13.280  13.987  66.685  1.00  0.00     0.000 HD 
HETATM   14  N   UNL     1     -12.646  14.698  66.319  1.00  0.00    -0.252 NA 
HETATM   15  H1  UNL     1     -12.944  15.610  66.668  1.00  0.00     0.000 HD 
BRANCH  11  16
HETATM   16  C   UNL     1     -10.896  16.187  68.151  1.00  0.00    -0.329 C  
HETATM   17  O   UNL     1     -11.715  16.094  69.058  1.00  0.00    -0.345 OA 
BRANCH  16  18
HETATM   18  C   UNL     1     -10.372  17.539  67.756  1.00  0.00    -0.367 A  
HETATM   19  C   UNL     1     -10.233  17.917  66.410  1.00  0.00    -0.372 A  
HETATM   20  C   UNL     1      -9.916  19.236  66.078  1.00  0.00    -0.403 A  
HETATM   21  C   UNL     1      -9.689  20.172  67.086  1.00  0.00    -0.576 A  
HETATM   22  C   UNL     1      -9.747  19.781  68.424  1.00  0.00    -0.480 A  
HETATM   23  C   UNL     1     -10.080  18.466  68.760  1.00  0.00    -0.393 A  
ENDBRANCH  16  18
ENDBRANCH  11  16
ENDBRANCH   6   7
ENDBRANCH   4   6
TORSDOF 4
ENDMDL
MODEL       12
REMARK 921   NORMALIZED FREE ENERGY PREDICTED BY IDOCK:   -6.33 KCAL/MOL
REMARK 922        TOTAL FREE ENERGY PREDICTED BY IDOCK:   -8.52 KCAL/MOL
REMARK 923 INTER-LIGAND FREE ENERGY PREDICTED BY IDOCK:   -7.67 KCAL/MOL
REMARK 924 INTRA-LIGAND FREE ENERGY PREDICTED BY IDOCK:   -0.85 KCAL/MOL
REMARK 927      BINDING AFFINITY PREDICTED BY RF-SCORE:    0.00 PKD
ROOT
HETATM    1  N   UNL     1     -12.941  12.187  63.686  1.00  0.00    -0.790 N  
HETATM    2  H2  UNL     1     -13.606  12.592  63.026  1.00  0.00     0.000 HD 
HETATM    3  H1  UNL     1     -12.505  11.289  63.473  1.00  0.00     0.000 HD 
HETATM    4  C   UNL     1     -12.647  12.855  64.840  1.00  0.00    -0.458 C  
HETATM    5  O   UNL     1     -13.170  13.932  65.095  1.00  0.00    -0.768 OA 
ENDROOT
BRANCH   4   6
HETATM    6  C   UNL     1     -11.652  12.176  65.752  1.00  0.00    -0.414 C  
BRANCH   6   7
HETATM    7  C   UNL     1     -11.210  13.066  66.893  1.00  0.00    -0.331 A  
HETATM    8  C   UNL     1     -11.888  12.945  68.120  1.00  0.00    -0.380 A  
HETATM    9  C   UNL     1     -11.552  13.746  69.202  1.00  0.00    -0.363 A  
HETATM   10  C   UNL     1     -10.578  14.725  69.050  1.00  0.00    -0.248 A  
HETATM   11  C   UNL     1      -9.936  14.913  67.814  1.00  0.00    -0.222 A  
HETATM   12  C   UNL     1     -10.152  13.994  66.761  1.00  0.00    -0.264 A  
HETATM   13  H2  UNL     1     -10.187  14.323  64.800  1.00  0.00     0.000 HD 
HETATM   14  N   UNL     1      -9.491  14.127  65.519  1.00  0.00    -0.519 NA 
HETATM   15  H1  UNL     1      -8.727  14.797  65.424  1.00  0.00     0.000 HD 
BRANCH  11  16
HETATM   16  C   UNL     1      -9.004  16.077  67.662  1.00  0.00    -0.190 C  
HETATM   17  O   UNL     1      -7.790  15.906  67.666  1.00  0.00    -0.132 OA 
BRANCH  16  18
HETATM   18  C   UNL     1      -9.559  17.469  67.550  1.00  0.00    -0.265 A  
HETATM   19  C   UNL     1      -9.547  18.363  68.634  1.00  0.00    -0.363 A  
HETATM   20  C   UNL     1      -9.903  19.700  68.449  1.00  0.00    -0.531 A  
HETATM   21  C   UNL     1     -10.317  20.143  67.194  1.00  0.00    -0.501 A  
HETATM   22  C   UNL     1     -10.407  19.241  66.133  1.00  0.00    -0.578 A  
HETATM   23  C   UNL     1     -10.037  17.905  66.311  1.00  0.00    -0.351 A  
ENDBRANCH  16  18
ENDBRANCH  11  16
ENDBRANCH   6   7
ENDBRANCH   4   6
TORSDOF 4
ENDMDL
MODEL       13
REMARK 921   NORMALIZED FREE ENERGY PREDICTED BY IDOCK:   -6.30 KCAL/MOL
REMARK 922        TOTAL FREE ENERGY PREDICTED BY IDOCK:   -8.48 KCAL/MOL
REMARK 923 INTER-LIGAND FREE ENERGY PREDICTED BY IDOCK:   -7.92 KCAL/MOL
REMARK 924 INTRA-LIGAND FREE ENERGY PREDICTED BY IDOCK:   -0.55 KCAL/MOL
REMARK 927      BINDING AFFINITY PREDICTED BY RF-SCORE:    0.00 PKD
ROOT
HETATM    1  N   UNL     1     -12.324  13.841  63.176  1.00  0.00    -1.106 N  
HETATM    2  H2  UNL     1     -13.153  14.090  62.636  1.00  0.00     0.000 HD 
HETATM    3  H1  UNL     1     -11.467  14.382  63.059  1.00  0.00     0.000 HD 
HETATM    4  C   UNL     1     -12.378  12.788  64.043  1.00  0.00    -0.411 C  
HETATM    5  O   UNL     1     -13.407  12.139  64.184  1.00  0.00    -0.750 OA 
ENDROOT
BRANCH   4   6
HETATM    6  C   UNL     1     -11.101  12.496  64.796  1.00  0.00    -0.338 C  
BRANCH   6   7
HETATM    7  C   UNL     1     -11.285  12.561  66.297  1.00  0.00    -0.359 A  
HETATM    8  C   UNL     1     -11.808  13.748  66.843  1.00  0.00    -0.447 A  
HETATM    9  C   UNL     1     -11.981  13.886  68.213  1.00  0.00    -0.392 A  
HETATM   10  C   UNL     1     -11.569  12.865  69.060  1.00  0.00    -0.372 A  
HETATM   11  C   UNL     1     -10.979  11.698  68.543  1.00  0.00    -0.264 A  
HETATM   12  C   UNL     1     -10.955  11.480  67.146  1.00  0.00    -0.286 A  
HETATM   13  H2  UNL     1      -9.583  10.549  66.048  1.00  0.00     0.000 HD 
HETATM   14  N   UNL     1     -10.409  10.300  66.593  1.00  0.00    -0.230 NA 
HETATM   15  H1  UNL     1     -10.171   9.520  67.206  1.00  0.00     0.000 HD 
BRANCH  11  16
HETATM   16  C   UNL     1     -10.418  10.695  69.505  1.00  0.00    -0.204 C  
HETATM   17  O   UNL     1      -9.255  10.319  69.403  1.00  0.00    -0.197 OA 
BRANCH  16  18
HETATM   18  C   UNL     1     -11.297  10.111  70.575  1.00  0.00    -0.416 A  
HETATM   19  C   UNL     1     -12.672  10.392  70.640  1.00  0.00    -0.417 A  
HETATM   20  C   UNL     1     -13.492   9.696  71.531  1.00  0.00    -0.430 A  
HETATM   21  C   UNL     1     -12.938   8.753  72.395  1.00  0.00    -0.442 A  
HETATM   22  C   UNL     1     -11.560   8.529  72.390  1.00  0.00    -0.425 A  
HETATM   23  C   UNL     1     -10.739   9.212  71.487  1.00  0.00    -0.437 A  
ENDBRANCH  16  18
ENDBRANCH  11  16
ENDBRANCH   6   7
ENDBRANCH   4   6
TORSDOF 4
ENDMDL
MODEL       14
REMARK 921   NORMALIZED FREE ENERGY PREDICTED BY IDOCK:   -6.22 KCAL/MOL
REMARK 922        TOTAL FREE ENERGY PREDICTED BY IDOCK:   -8.39 KCAL/MOL
REMARK 923 INTER-LIGAND FREE ENERGY PREDICTED BY IDOCK:   -7.39 KCAL/MOL
REMARK 924 INTRA-LIGAND FREE ENERGY PREDICTED BY IDOCK:   -0.99 KCAL/MOL
REMARK 927      BINDING AFFINITY PREDICTED BY RF-SCORE:    0.00 PKD
ROOT
HETATM    1  N   UNL     1      -8.714  11.466  65.789  1.00  0.00    -0.361 N  
HETATM    2  H2  UNL     1      -7.841  10.990  66.019  1.00  0.00     0.000 HD 
HETATM    3  H1  UNL     1      -8.684  12.388  65.354  1.00  0.00     0.000 HD 
HETATM    4  C   UNL     1      -9.904  10.859  66.070  1.00  0.00    -0.233 C  
HETATM    5  O   UNL     1      -9.940   9.753  66.592  1.00  0.00    -0.202 OA 
ENDROOT
BRANCH   4   6
HETATM    6  C   UNL     1     -11.141  11.642  65.693  1.00  0.00    -0.308 C  
BRANCH   6   7
HETATM    7  C   UNL     1     -11.175  13.014  66.328  1.00  0.00    -0.332 A  
HETATM    8  C   UNL     1     -11.655  13.115  67.647  1.00  0.00    -0.392 A  
HETATM    9  C   UNL     1     -11.737  14.346  68.284  1.00  0.00    -0.376 A  
HETATM   10  C   UNL     1     -11.403  15.499  67.585  1.00  0.00    -0.260 A  
HETATM   11  C   UNL     1     -10.986  15.431  66.245  1.00  0.00    -0.278 A  
HETATM   12  C   UNL     1     -10.741  14.173  65.646  1.00  0.00    -0.313 A  
HETATM   13  H2  UNL     1     -11.003  13.614  63.756  1.00  0.00     0.000 HD 
HETATM   14  N   UNL     1     -10.281  14.068  64.314  1.00  0.00    -0.657 NA 
HETATM   15  H1  UNL     1      -9.967  14.905  63.822  1.00  0.00     0.000 HD 
BRANCH  11  16
HETATM   16  C   UNL     1     -10.782  16.712  65.494  1.00  0.00    -0.223 C  
HETATM   17  O   UNL     1     -11.219  16.843  64.356  1.00  0.00    -1.159 OA 
BRANCH  16  18
HETATM   18  C   UNL     1      -9.997  17.830  66.121  1.00  0.00    -0.283 A  
HETATM   19  C   UNL     1      -8.615  17.727  66.353  1.00  0.00    -0.260 A  
HETATM   20  C   UNL     1      -7.885  18.843  66.769  1.00  0.00    -0.262 A  
HETATM   21  C   UNL     1      -8.536  20.053  67.001  1.00  0.00    -0.399 A  
HETATM   22  C   UNL     1      -9.921  20.138  66.850  1.00  0.00    -0.600 A  
HETATM   23  C   UNL     1     -10.652  19.028  66.418  1.00  0.00    -0.492 A  
ENDBRANCH  16  18
ENDBRANCH  11  16
ENDBRANCH   6   7
ENDBRANCH   4   6
TORSDOF 4
ENDMDL
MODEL       15
REMARK 921   NORMALIZED FREE ENERGY PREDICTED BY IDOCK:   -6.20 KCAL/MOL
REMARK 922        TOTAL FREE ENERGY PREDICTED BY IDOCK:   -8.36 KCAL/MOL
REMARK 923 INTER-LIGAND FREE ENERGY PREDICTED BY IDOCK:   -7.47 KCAL/MOL
REMARK 924 INTRA-LIGAND FREE ENERGY PREDICTED BY IDOCK:   -0.89 KCAL/MOL
REMARK 927      BINDING AFFINITY PREDICTED BY RF-SCORE:    0.00 PKD
ROOT
HETATM    1  N   UNL     1     -11.896   8.210  72.688  1.00  0.00    -0.526 N  
HETATM    2  H2  UNL     1     -11.118   7.687  73.091  1.00  0.00     0.000 HD 
HETATM    3  H1  UNL     1     -12.850   7.997  72.979  1.00  0.00     0.000 HD 
HETATM    4  C   UNL     1     -11.643   9.184  71.765  1.00  0.00    -0.387 C  
HETATM    5  O   UNL     1     -10.498   9.440  71.415  1.00  0.00    -0.333 OA 
ENDROOT
BRANCH   4   6
HETATM    6  C   UNL     1     -12.858   9.903  71.226  1.00  0.00    -0.486 C  
BRANCH   6   7
HETATM    7  C   UNL     1     -12.516  11.248  70.623  1.00  0.00    -0.439 A  
HETATM    8  C   UNL     1     -12.719  12.393  71.416  1.00  0.00    -0.346 A  
HETATM    9  C   UNL     1     -12.450  13.660  70.918  1.00  0.00    -0.448 A  
HETATM   10  C   UNL     1     -12.038  13.803  69.599  1.00  0.00    -0.392 A  
HETATM   11  C   UNL     1     -11.894  12.680  68.767  1.00  0.00    -0.341 A  
HETATM   12  C   UNL     1     -12.003  11.380  69.312  1.00  0.00    -0.332 A  
HETATM   13  H2  UNL     1     -12.708   9.723  68.468  1.00  0.00     0.000 HD 
HETATM   14  N   UNL     1     -11.823  10.228  68.514  1.00  0.00    -0.710 NA 
HETATM   15  H1  UNL     1     -11.453  10.323  67.568  1.00  0.00     0.000 HD 
BRANCH  11  16
HETATM   16  C   UNL     1     -11.592  12.901  67.315  1.00  0.00    -0.360 C  
HETATM   17  O   UNL     1     -12.196  12.272  66.453  1.00  0.00    -0.613 OA 
BRANCH  16  18
HETATM   18  C   UNL     1     -10.512  13.865  66.914  1.00  0.00    -0.276 A  
HETATM   19  C   UNL     1     -10.791  15.023  66.168  1.00  0.00    -0.329 A  
HETATM   20  C   UNL     1      -9.801  15.987  65.966  1.00  0.00    -0.365 A  
HETATM   21  C   UNL     1      -8.516  15.780  66.466  1.00  0.00    -0.335 A  
HETATM   22  C   UNL     1      -8.214  14.595  67.138  1.00  0.00    -0.227 A  
HETATM   23  C   UNL     1      -9.207  13.635  67.356  1.00  0.00    -0.222 A  
ENDBRANCH  16  18
ENDBRANCH  11  16
ENDBRANCH   6   7
ENDBRANCH   4   6
TORSDOF 4
ENDMDL
MODEL       16
REMARK 921   NORMALIZED FREE ENERGY PREDICTED BY IDOCK:   -6.18 KCAL/MOL
REMARK 922        TOTAL FREE ENERGY PREDICTED BY IDOCK:   -8.34 KCAL/MOL
REMARK 923 INTER-LIGAND FREE ENERGY PREDICTED BY IDOCK:   -7.47 KCAL/MOL
REMARK 924 INTRA-LIGAND FREE ENERGY PREDICTED BY IDOCK:   -0.86 KCAL/MOL
REMARK 927      BINDING AFFINITY PREDICTED BY RF-SCORE:    0.00 PKD
ROOT
HETATM    1  N   UNL     1     -14.286  15.346  70.945  1.00  0.00    -0.857 N  
HETATM    2  H2  UNL     1     -15.256  15.568  71.168  1.00  0.00     0.000 HD 
HETATM    3  H1  UNL     1     -13.823  15.831  70.176  1.00  0.00     0.000 HD 
HETATM    4  C   UNL     1     -13.627  14.404  71.681  1.00  0.00    -0.384 C  
HETATM    5  O   UNL     1     -14.182  13.822  72.604  1.00  0.00    -0.710 OA 
ENDROOT
BRANCH   4   6
HETATM    6  C   UNL     1     -12.194  14.144  71.276  1.00  0.00    -0.419 C  
BRANCH   6   7
HETATM    7  C   UNL     1     -12.084  13.153  70.138  1.00  0.00    -0.392 A  
HETATM    8  C   UNL     1     -12.091  11.783  70.457  1.00  0.00    -0.439 A  
HETATM    9  C   UNL     1     -11.969  10.820  69.466  1.00  0.00    -0.364 A  
HETATM   10  C   UNL     1     -11.770  11.216  68.149  1.00  0.00    -0.304 A  
HETATM   11  C   UNL     1     -11.689  12.579  67.815  1.00  0.00    -0.419 A  
HETATM   12  C   UNL     1     -11.980  13.562  68.789  1.00  0.00    -0.339 A  
HETATM   13  H2  UNL     1     -11.197  15.377  69.008  1.00  0.00     0.000 HD 
HETATM   14  N   UNL     1     -11.950  14.940  68.477  1.00  0.00    -0.543 NA 
HETATM   15  H1  UNL     1     -11.875  15.235  67.503  1.00  0.00     0.000 HD 
BRANCH  11  16
HETATM   16  C   UNL     1     -11.326  12.949  66.408  1.00  0.00    -0.319 C  
HETATM   17  O   UNL     1     -11.860  13.906  65.860  1.00  0.00    -0.348 OA 
BRANCH  16  18
HETATM   18  C   UNL     1     -10.332  12.115  65.649  1.00  0.00    -0.289 A  
HETATM   19  C   UNL     1      -9.130  11.680  66.231  1.00  0.00    -0.219 A  
HETATM   20  C   UNL     1      -8.316  10.762  65.564  1.00  0.00    -0.129 A  
HETATM   21  C   UNL     1      -8.672  10.310  64.294  1.00  0.00    -0.217 A  
HETATM   22  C   UNL     1      -9.824  10.801  63.679  1.00  0.00    -0.406 A  
HETATM   23  C   UNL     1     -10.649  11.708  64.350  1.00  0.00    -0.377 A  
ENDBRANCH  16  18
ENDBRANCH  11  16
ENDBRANCH   6   7
ENDBRANCH   4   6
TORSDOF 4
ENDMDL
MODEL       17
REMARK 921   NORMALIZED FREE ENERGY PREDICTED BY IDOCK:   -6.18 KCAL/MOL
REMARK 922        TOTAL FREE ENERGY PREDICTED BY IDOCK:   -8.34 KCAL/MOL
REMARK 923 INTER-LIGAND FREE ENERGY PREDICTED BY IDOCK:   -7.99 KCAL/MOL
REMARK 924 INTRA-LIGAND FREE ENERGY PREDICTED BY IDOCK:   -0.35 KCAL/MOL
REMARK 927      BINDING AFFINITY PREDICTED BY RF-SCORE:    0.00 PKD
ROOT
HETATM    1  N   UNL     1     -11.712  15.940  63.910  1.00  0.00    -0.901 N  
HETATM    2  H2  UNL     1     -11.009  16.553  63.497  1.00  0.00     0.000 HD 
HETATM    3  H1  UNL     1     -12.694  16.067  63.667  1.00  0.00     0.000 HD 
HETATM    4  C   UNL     1     -11.323  14.962  64.780  1.00  0.00    -0.397 C  
HETATM    5  O   UNL     1     -10.144  14.810  65.072  1.00  0.00    -0.371 OA 
ENDROOT
BRANCH   4   6
HETATM    6  C   UNL     1     -12.436  14.106  65.338  1.00  0.00    -0.488 C  
BRANCH   6   7
HETATM    7  C   UNL     1     -11.926  13.029  66.272  1.00  0.00    -0.477 A  
HETATM    8  C   UNL     1     -11.411  11.852  65.698  1.00  0.00    -0.339 A  
HETATM    9  C   UNL     1     -10.949  10.815  66.496  1.00  0.00    -0.143 A  
HETATM   10  C   UNL     1     -11.059  10.913  67.877  1.00  0.00    -0.362 A  
HETATM   11  C   UNL     1     -11.635  12.049  68.472  1.00  0.00    -0.363 A  
HETATM   12  C   UNL     1     -11.951  13.176  67.678  1.00  0.00    -0.315 A  
HETATM   13  H2  UNL     1     -13.438  14.480  67.891  1.00  0.00     0.000 HD 
HETATM   14  N   UNL     1     -12.491  14.351  68.248  1.00  0.00    -0.537 NA 
HETATM   15  H1  UNL     1     -12.509  14.457  69.262  1.00  0.00     0.000 HD 
BRANCH  11  16
HETATM   16  C   UNL     1     -11.865  12.041  69.953  1.00  0.00    -0.331 C  
HETATM   17  O   UNL     1     -11.927  13.094  70.578  1.00  0.00    -0.320 OA 
BRANCH  16  18
HETATM   18  C   UNL     1     -11.978  10.734  70.685  1.00  0.00    -0.466 A  
HETATM   19  C   UNL     1     -10.861   9.913  70.914  1.00  0.00    -0.357 A  
HETATM   20  C   UNL     1     -10.964   8.799  71.750  1.00  0.00    -0.415 A  
HETATM   21  C   UNL     1     -12.192   8.470  72.321  1.00  0.00    -0.454 A  
HETATM   22  C   UNL     1     -13.322   9.235  72.032  1.00  0.00    -0.518 A  
HETATM   23  C   UNL     1     -13.218  10.361  71.209  1.00  0.00    -0.431 A  
ENDBRANCH  16  18
ENDBRANCH  11  16
ENDBRANCH   6   7
ENDBRANCH   4   6
TORSDOF 4
ENDMDL
MODEL       18
REMARK 921   NORMALIZED FREE ENERGY PREDICTED BY IDOCK:   -6.18 KCAL/MOL
REMARK 922        TOTAL FREE ENERGY PREDICTED BY IDOCK:   -8.33 KCAL/MOL
REMARK 923 INTER-LIGAND FREE ENERGY PREDICTED BY IDOCK:   -7.67 KCAL/MOL
REMARK 924 INTRA-LIGAND FREE ENERGY PREDICTED BY IDOCK:   -0.66 KCAL/MOL
REMARK 927      BINDING AFFINITY PREDICTED BY RF-SCORE:    0.00 PKD
ROOT
HETATM    1  N   UNL     1     -13.060  11.662  62.920  1.00  0.00    -0.706 N  
HETATM    2  H2  UNL     1     -12.717  11.105  62.138  1.00  0.00     0.000 HD 
HETATM    3  H1  UNL     1     -14.059  11.680  63.126  1.00  0.00     0.000 HD 
HETATM    4  C   UNL     1     -12.174  12.376  63.676  1.00  0.00    -0.557 C  
HETATM    5  O   UNL     1     -10.975  12.355  63.429  1.00  0.00    -0.456 OA 
ENDROOT
BRANCH   4   6
HETATM    6  C   UNL     1     -12.776  13.170  64.812  1.00  0.00    -0.373 C  
BRANCH   6   7
HETATM    7  C   UNL     1     -11.748  13.573  65.847  1.00  0.00    -0.380 A  
HETATM    8  C   UNL     1     -11.736  12.872  67.067  1.00  0.00    -0.447 A  
HETATM    9  C   UNL     1     -10.836  13.204  68.070  1.00  0.00    -0.261 A  
HETATM   10  C   UNL     1      -9.983  14.285  67.892  1.00  0.00    -0.230 A  
HETATM   11  C   UNL     1     -10.024  15.044  66.709  1.00  0.00    -0.254 A  
HETATM   12  C   UNL     1     -10.816  14.611  65.621  1.00  0.00    -0.331 A  
HETATM   13  H2  UNL     1     -11.788  15.698  64.269  1.00  0.00     0.000 HD 
HETATM   14  N   UNL     1     -10.848  15.325  64.402  1.00  0.00    -0.600 NA 
HETATM   15  H1  UNL     1     -10.175  16.075  64.239  1.00  0.00     0.000 HD 
BRANCH  11  16
HETATM   16  C   UNL     1      -9.189  16.287  66.629  1.00  0.00    -0.244 C  
HETATM   17  O   UNL     1      -8.048  16.241  66.182  1.00  0.00    -0.293 OA 
BRANCH  16  18
HETATM   18  C   UNL     1      -9.736  17.590  67.139  1.00  0.00    -0.279 A  
HETATM   19  C   UNL     1      -9.677  17.937  68.499  1.00  0.00    -0.352 A  
HETATM   20  C   UNL     1     -10.028  19.224  68.914  1.00  0.00    -0.495 A  
HETATM   21  C   UNL     1     -10.485  20.155  67.983  1.00  0.00    -0.389 A  
HETATM   22  C   UNL     1     -10.622  19.789  66.643  1.00  0.00    -0.578 A  
HETATM   23  C   UNL     1     -10.256  18.507  66.222  1.00  0.00    -0.446 A  
ENDBRANCH  16  18
ENDBRANCH  11  16
ENDBRANCH   6   7
ENDBRANCH   4   6
TORSDOF 4
ENDMDL
MODEL       19
REMARK 921   NORMALIZED FREE ENERGY PREDICTED BY IDOCK:   -6.13 KCAL/MOL
REMARK 922        TOTAL FREE ENERGY PREDICTED BY IDOCK:   -8.27 KCAL/MOL
REMARK 923 INTER-LIGAND FREE ENERGY PREDICTED BY IDOCK:   -7.63 KCAL/MOL
REMARK 924 INTRA-LIGAND FREE ENERGY PREDICTED BY IDOCK:   -0.64 KCAL/MOL
REMARK 927      BINDING AFFINITY PREDICTED BY RF-SCORE:    0.00 PKD
ROOT
HETATM    1  N   UNL     1     -13.072  15.521  73.859  1.00  0.00    -0.627 N  
HETATM    2  H2  UNL     1     -12.530  15.936  74.617  1.00  0.00     0.000 HD 
HETATM    3  H1  UNL     1     -13.828  14.872  74.079  1.00  0.00     0.000 HD 
HETATM    4  C   UNL     1     -12.773  15.841  72.566  1.00  0.00    -0.451 C  
HETATM    5  O   UNL     1     -11.866  16.620  72.302  1.00  0.00    -0.466 OA 
ENDROOT
BRANCH   4   6
HETATM    6  C   UNL     1     -13.631  15.176  71.514  1.00  0.00    -0.564 C  
BRANCH   6   7
HETATM    7  C   UNL     1     -12.959  13.968  70.898  1.00  0.00    -0.347 A  
HETATM    8  C   UNL     1     -12.255  14.152  69.693  1.00  0.00    -0.376 A  
HETATM    9  C   UNL     1     -11.636  13.083  69.060  1.00  0.00    -0.367 A  
HETATM   10  C   UNL     1     -11.770  11.805  69.588  1.00  0.00    -0.413 A  
HETATM   11  C   UNL     1     -12.527  11.586  70.752  1.00  0.00    -0.444 A  
HETATM   12  C   UNL     1     -13.017  12.687  71.492  1.00  0.00    -0.282 A  
HETATM   13  H2  UNL     1     -14.698  12.839  72.545  1.00  0.00     0.000 HD 
HETATM   14  N   UNL     1     -13.745  12.505  72.689  1.00  0.00    -0.622 NA 
HETATM   15  H1  UNL     1     -13.787  11.580  73.118  1.00  0.00     0.000 HD 
BRANCH  11  16
HETATM   16  C   UNL     1     -12.764  10.173  71.194  1.00  0.00    -0.396 C  
HETATM   17  O   UNL     1     -13.894   9.699  71.181  1.00  0.00    -0.251 OA 
BRANCH  16  18
HETATM   18  C   UNL     1     -11.616   9.345  71.700  1.00  0.00    -0.466 A  
HETATM   19  C   UNL     1     -11.772   8.419  72.745  1.00  0.00    -0.245 A  
HETATM   20  C   UNL     1     -10.736   7.541  73.069  1.00  0.00    -0.438 A  
HETATM   21  C   UNL     1      -9.523   7.613  72.386  1.00  0.00    -0.217 A  
HETATM   22  C   UNL     1      -9.336   8.584  71.402  1.00  0.00    -0.274 A  
HETATM   23  C   UNL     1     -10.376   9.454  71.064  1.00  0.00    -0.382 A  
ENDBRANCH  16  18
ENDBRANCH  11  16
ENDBRANCH   6   7
ENDBRANCH   4   6
TORSDOF 4
ENDMDL
MODEL       20
REMARK 921   NORMALIZED FREE ENERGY PREDICTED BY IDOCK:   -6.12 KCAL/MOL
REMARK 922        TOTAL FREE ENERGY PREDICTED BY IDOCK:   -8.26 KCAL/MOL
REMARK 923 INTER-LIGAND FREE ENERGY PREDICTED BY IDOCK:   -7.48 KCAL/MOL
REMARK 924 INTRA-LIGAND FREE ENERGY PREDICTED BY IDOCK:   -0.77 KCAL/MOL
REMARK 927      BINDING AFFINITY PREDICTED BY RF-SCORE:    0.00 PKD
ROOT
HETATM    1  N   UNL     1     -12.227  14.566  67.354  1.00  0.00    -0.597 N  
HETATM    2  H2  UNL     1     -12.771  14.867  66.545  1.00  0.00     0.000 HD 
HETATM    3  H1  UNL     1     -11.995  15.241  68.083  1.00  0.00     0.000 HD 
HETATM    4  C   UNL     1     -11.820  13.266  67.444  1.00  0.00    -0.366 C  
HETATM    5  O   UNL     1     -12.098  12.456  66.569  1.00  0.00    -0.599 OA 
ENDROOT
BRANCH   4   6
HETATM    6  C   UNL     1     -11.020  12.916  68.677  1.00  0.00    -0.295 C  
BRANCH   6   7
HETATM    7  C   UNL     1     -11.885  12.382  69.797  1.00  0.00    -0.387 A  
HETATM    8  C   UNL     1     -12.315  13.288  70.784  1.00  0.00    -0.425 A  
HETATM    9  C   UNL     1     -13.091  12.862  71.853  1.00  0.00    -0.474 A  
HETATM   10  C   UNL     1     -13.390  11.512  71.985  1.00  0.00    -0.397 A  
HETATM   11  C   UNL     1     -12.913  10.577  71.050  1.00  0.00    -0.475 A  
HETATM   12  C   UNL     1     -12.268  11.023  69.873  1.00  0.00    -0.336 A  
HETATM   13  H2  UNL     1     -10.796  10.163  68.850  1.00  0.00     0.000 HD 
HETATM   14  N   UNL     1     -11.814  10.114  68.892  1.00  0.00    -0.564 NA 
HETATM   15  H1  UNL     1     -12.090   9.133  68.947  1.00  0.00     0.000 HD 
BRANCH  11  16
HETATM   16  C   UNL     1     -13.138   9.120  71.319  1.00  0.00    -0.240 C  
HETATM   17  O   UNL     1     -14.264   8.641  71.249  1.00  0.00    -0.336 OA 
BRANCH  16  18
HETATM   18  C   UNL     1     -11.982   8.247  71.722  1.00  0.00    -0.364 A  
HETATM   19  C   UNL     1     -10.776   8.787  72.200  1.00  0.00    -0.383 A  
HETATM   20  C   UNL     1      -9.793   7.951  72.734  1.00  0.00    -0.335 A  
HETATM   21  C   UNL     1      -9.986   6.571  72.750  1.00  0.00    -0.186 A  
HETATM   22  C   UNL     1     -11.148   6.025  72.204  1.00  0.00    -0.328 A  
HETATM   23  C   UNL     1     -12.142   6.859  71.684  1.00  0.00    -0.394 A  
ENDBRANCH  16  18
ENDBRANCH  11  16
ENDBRANCH   6   7
ENDBRANCH   4   6
TORSDOF 4
ENDMDL
MODEL       21
REMARK 921   NORMALIZED FREE ENERGY PREDICTED BY IDOCK:   -6.06 KCAL/MOL
REMARK 922        TOTAL FREE ENERGY PREDICTED BY IDOCK:   -8.18 KCAL/MOL
REMARK 923 INTER-LIGAND FREE ENERGY PREDICTED BY IDOCK:   -7.24 KCAL/MOL
REMARK 924 INTRA-LIGAND FREE ENERGY PREDICTED BY IDOCK:   -0.94 KCAL/MOL
REMARK 927      BINDING AFFINITY PREDICTED BY RF-SCORE:    0.00 PKD
ROOT
HETATM    1  N   UNL     1     -11.208   9.935  67.742  1.00  0.00    -0.479 N  
HETATM    2  H2  UNL     1     -11.920   9.309  67.366  1.00  0.00     0.000 HD 
HETATM    3  H1  UNL     1     -10.533   9.579  68.418  1.00  0.00     0.000 HD 
HETATM    4  C   UNL     1     -11.174  11.237  67.333  1.00  0.00    -0.303 C  
HETATM    5  O   UNL     1     -11.984  11.665  66.521  1.00  0.00    -0.474 OA 
ENDROOT
BRANCH   4   6
HETATM    6  C   UNL     1     -10.084  12.085  67.946  1.00  0.00    -0.199 C  
BRANCH   6   7
HETATM    7  C   UNL     1     -10.473  13.544  68.050  1.00  0.00    -0.245 A  
HETATM    8  C   UNL     1     -11.296  13.928  69.125  1.00  0.00    -0.331 A  
HETATM    9  C   UNL     1     -11.711  15.244  69.269  1.00  0.00    -0.359 A  
HETATM   10  C   UNL     1     -11.364  16.179  68.302  1.00  0.00    -0.316 A  
HETATM   11  C   UNL     1     -10.601  15.805  67.182  1.00  0.00    -0.313 A  
HETATM   12  C   UNL     1     -10.036  14.510  67.116  1.00  0.00    -0.252 A  
HETATM   13  H2  UNL     1      -9.708  13.367  65.522  1.00  0.00     0.000 HD 
HETATM   14  N   UNL     1      -9.229  14.113  66.026  1.00  0.00    -0.513 NA 
HETATM   15  H1  UNL     1      -8.913  14.811  65.352  1.00  0.00     0.000 HD 
BRANCH  11  16
HETATM   16  C   UNL     1     -10.382  16.815  66.096  1.00  0.00    -0.330 C  
HETATM   17  O   UNL     1     -10.705  16.564  64.940  1.00  0.00    -0.702 OA 
BRANCH  16  18
HETATM   18  C   UNL     1      -9.722  18.126  66.417  1.00  0.00    -0.329 A  
HETATM   19  C   UNL     1     -10.466  19.300  66.626  1.00  0.00    -0.541 A  
HETATM   20  C   UNL     1      -9.841  20.456  67.097  1.00  0.00    -0.601 A  
HETATM   21  C   UNL     1      -8.464  20.462  67.317  1.00  0.00    -0.405 A  
HETATM   22  C   UNL     1      -7.709  19.323  67.034  1.00  0.00    -0.263 A  
HETATM   23  C   UNL     1      -8.334  18.159  66.578  1.00  0.00    -0.288 A  
ENDBRANCH  16  18
ENDBRANCH  11  16
ENDBRANCH   6   7
ENDBRANCH   4   6
TORSDOF 4
ENDMDL
MODEL       22
REMARK 921   NORMALIZED FREE ENERGY PREDICTED BY IDOCK:   -6.02 KCAL/MOL
REMARK 922        TOTAL FREE ENERGY PREDICTED BY IDOCK:   -8.14 KCAL/MOL
REMARK 923 INTER-LIGAND FREE ENERGY PREDICTED BY IDOCK:   -7.13 KCAL/MOL
REMARK 924 INTRA-LIGAND FREE ENERGY PREDICTED BY IDOCK:   -1.01 KCAL/MOL
REMARK 927      BINDING AFFINITY PREDICTED BY RF-SCORE:    0.00 PKD
ROOT
HETATM    1  N   UNL     1     -11.122  11.750  64.181  1.00  0.00    -0.353 N  
HETATM    2  H2  UNL     1     -11.417  11.851  63.209  1.00  0.00     0.000 HD 
HETATM    3  H1  UNL     1     -10.217  11.329  64.390  1.00  0.00     0.000 HD 
HETATM    4  C   UNL     1     -11.946  12.179  65.181  1.00  0.00    -0.262 C  
HETATM    5  O   UNL     1     -13.033  12.684  64.930  1.00  0.00    -0.830 OA 
ENDROOT
BRANCH   4   6
HETATM    6  C   UNL     1     -11.423  11.987  66.585  1.00  0.00    -0.411 C  
BRANCH   6   7
HETATM    7  C   UNL     1     -10.504  13.108  67.021  1.00  0.00    -0.248 A  
HETATM    8  C   UNL     1      -9.117  12.870  66.985  1.00  0.00    -0.228 A  
HETATM    9  C   UNL     1      -8.218  13.845  67.393  1.00  0.00    -0.198 A  
HETATM   10  C   UNL     1      -8.696  15.045  67.905  1.00  0.00    -0.155 A  
HETATM   11  C   UNL     1     -10.077  15.278  68.016  1.00  0.00    -0.229 A  
HETATM   12  C   UNL     1     -10.994  14.362  67.449  1.00  0.00    -0.299 A  
HETATM   13  H2  UNL     1     -12.811  13.858  68.080  1.00  0.00     0.000 HD 
HETATM   14  N   UNL     1     -12.388  14.586  67.504  1.00  0.00    -0.582 NA 
HETATM   15  H1  UNL     1     -12.742  15.491  67.813  1.00  0.00     0.000 HD 
BRANCH  11  16
HETATM   16  C   UNL     1     -10.538  16.523  68.712  1.00  0.00    -0.322 C  
HETATM   17  O   UNL     1     -11.060  16.459  69.819  1.00  0.00    -0.338 OA 
BRANCH  16  18
HETATM   18  C   UNL     1     -10.402  17.855  68.029  1.00  0.00    -0.394 A  
HETATM   19  C   UNL     1      -9.979  19.003  68.720  1.00  0.00    -0.475 A  
HETATM   20  C   UNL     1      -9.690  20.178  68.024  1.00  0.00    -0.464 A  
HETATM   21  C   UNL     1      -9.867  20.230  66.643  1.00  0.00    -0.562 A  
HETATM   22  C   UNL     1     -10.363  19.117  65.963  1.00  0.00    -0.538 A  
HETATM   23  C   UNL     1     -10.638  17.934  66.654  1.00  0.00    -0.243 A  
ENDBRANCH  16  18
ENDBRANCH  11  16
ENDBRANCH   6   7
ENDBRANCH   4   6
TORSDOF 4
ENDMDL
MODEL       23
REMARK 921   NORMALIZED FREE ENERGY PREDICTED BY IDOCK:   -6.02 KCAL/MOL
REMARK 922        TOTAL FREE ENERGY PREDICTED BY IDOCK:   -8.14 KCAL/MOL
REMARK 923 INTER-LIGAND FREE ENERGY PREDICTED BY IDOCK:   -7.39 KCAL/MOL
REMARK 924 INTRA-LIGAND FREE ENERGY PREDICTED BY IDOCK:   -0.75 KCAL/MOL
REMARK 927      BINDING AFFINITY PREDICTED BY RF-SCORE:    0.00 PKD
ROOT
HETATM    1  N   UNL     1     -10.439  18.752  66.009  1.00  0.00    -0.467 N  
HETATM    2  H2  UNL     1     -10.949  19.445  65.461  1.00  0.00     0.000 HD 
HETATM    3  H1  UNL     1      -9.955  19.041  66.859  1.00  0.00     0.000 HD 
HETATM    4  C   UNL     1     -10.415  17.451  65.594  1.00  0.00    -0.165 C  
HETATM    5  O   UNL     1     -10.995  17.104  64.574  1.00  0.00    -1.003 OA 
ENDROOT
BRANCH   4   6
HETATM    6  C   UNL     1      -9.634  16.501  66.471  1.00  0.00    -0.292 C  
BRANCH   6   7
HETATM    7  C   UNL     1     -10.527  15.691  67.386  1.00  0.00    -0.291 A  
HETATM    8  C   UNL     1     -11.050  16.329  68.526  1.00  0.00    -0.368 A  
HETATM    9  C   UNL     1     -11.856  15.640  69.421  1.00  0.00    -0.391 A  
HETATM   10  C   UNL     1     -12.094  14.285  69.223  1.00  0.00    -0.351 A  
HETATM   11  C   UNL     1     -11.525  13.609  68.130  1.00  0.00    -0.348 A  
HETATM   12  C   UNL     1     -10.845  14.338  67.127  1.00  0.00    -0.296 A  
HETATM   13  H2  UNL     1      -9.283  13.792  66.024  1.00  0.00     0.000 HD 
HETATM   14  N   UNL     1     -10.298  13.697  65.993  1.00  0.00    -0.297 NA 
HETATM   15  H1  UNL     1     -10.528  12.721  65.806  1.00  0.00     0.000 HD 
BRANCH  11  16
HETATM   16  C   UNL     1     -11.690  12.122  68.046  1.00  0.00    -0.344 C  
HETATM   17  O   UNL     1     -12.055  11.595  67.001  1.00  0.00    -0.547 OA 
BRANCH  16  18
HETATM   18  C   UNL     1     -11.450  11.272  69.262  1.00  0.00    -0.369 A  
HETATM   19  C   UNL     1     -12.454  11.046  70.219  1.00  0.00    -0.365 A  
HETATM   20  C   UNL     1     -12.258  10.112  71.238  1.00  0.00    -0.496 A  
HETATM   21  C   UNL     1     -11.044   9.434  71.337  1.00  0.00    -0.450 A  
HETATM   22  C   UNL     1     -10.015   9.714  70.437  1.00  0.00    -0.330 A  
HETATM   23  C   UNL     1     -10.214  10.637  69.405  1.00  0.00    -0.218 A  
ENDBRANCH  16  18
ENDBRANCH  11  16
ENDBRANCH   6   7
ENDBRANCH   4   6
TORSDOF 4
ENDMDL
MODEL       24
REMARK 921   NORMALIZED FREE ENERGY PREDICTED BY IDOCK:   -6.02 KCAL/MOL
REMARK 922        TOTAL FREE ENERGY PREDICTED BY IDOCK:   -8.13 KCAL/MOL
REMARK 923 INTER-LIGAND FREE ENERGY PREDICTED BY IDOCK:   -7.15 KCAL/MOL
REMARK 924 INTRA-LIGAND FREE ENERGY PREDICTED BY IDOCK:   -0.98 KCAL/MOL
REMARK 927      BINDING AFFINITY PREDICTED BY RF-SCORE:    0.00 PKD
ROOT
HETATM    1  N   UNL     1     -12.750  15.982  74.476  1.00  0.00    -0.984 N  
HETATM    2  H2  UNL     1     -12.056  16.486  75.028  1.00  0.00     0.000 HD 
HETATM    3  H1  UNL     1     -13.503  15.482  74.950  1.00  0.00     0.000 HD 
HETATM    4  C   UNL     1     -12.658  15.986  73.113  1.00  0.00    -0.520 C  
HETATM    5  O   UNL     1     -11.755  16.585  72.544  1.00  0.00    -0.506 OA 
ENDROOT
BRANCH   4   6
HETATM    6  C   UNL     1     -13.731  15.212  72.384  1.00  0.00    -0.600 C  
BRANCH   6   7
HETATM    7  C   UNL     1     -13.163  14.107  71.520  1.00  0.00    -0.423 A  
HETATM    8  C   UNL     1     -13.170  12.799  72.039  1.00  0.00    -0.538 A  
HETATM    9  C   UNL     1     -12.644  11.741  71.311  1.00  0.00    -0.401 A  
HETATM   10  C   UNL     1     -12.043  11.989  70.083  1.00  0.00    -0.377 A  
HETATM   11  C   UNL     1     -11.962  13.297  69.575  1.00  0.00    -0.366 A  
HETATM   12  C   UNL     1     -12.642  14.350  70.229  1.00  0.00    -0.323 A  
HETATM   13  H2  UNL     1     -12.125  16.264  70.390  1.00  0.00     0.000 HD 
HETATM   14  N   UNL     1     -12.617  15.669  69.723  1.00  0.00    -0.553 NA 
HETATM   15  H1  UNL     1     -12.241  15.845  68.792  1.00  0.00     0.000 HD 
BRANCH  11  16
HETATM   16  C   UNL     1     -11.174  13.528  68.321  1.00  0.00    -0.274 C  
HETATM   17  O   UNL     1     -11.738  13.582  67.234  1.00  0.00    -0.340 OA 
BRANCH  16  18
HETATM   18  C   UNL     1      -9.678  13.651  68.389  1.00  0.00    -0.217 A  
HETATM   19  C   UNL     1      -9.051  14.784  68.935  1.00  0.00    -0.168 A  
HETATM   20  C   UNL     1      -7.671  14.791  69.149  1.00  0.00    -0.144 A  
HETATM   21  C   UNL     1      -6.903  13.689  68.776  1.00  0.00    -0.107 A  
HETATM   22  C   UNL     1      -7.511  12.594  68.160  1.00  0.00    -0.122 A  
HETATM   23  C   UNL     1      -8.894  12.577  67.960  1.00  0.00    -0.187 A  
ENDBRANCH  16  18
ENDBRANCH  11  16
ENDBRANCH   6   7
ENDBRANCH   4   6
TORSDOF 4
ENDMDL
MODEL       25
REMARK 921   NORMALIZED FREE ENERGY PREDICTED BY IDOCK:   -5.98 KCAL/MOL
REMARK 922        TOTAL FREE ENERGY PREDICTED BY IDOCK:   -8.09 KCAL/MOL
REMARK 923 INTER-LIGAND FREE ENERGY PREDICTED BY IDOCK:   -7.02 KCAL/MOL
REMARK 924 INTRA-LIGAND FREE ENERGY PREDICTED BY IDOCK:   -1.06 KCAL/MOL
REMARK 927      BINDING AFFINITY PREDICTED BY RF-SCORE:    0.00 PKD
ROOT
HETATM    1  N   UNL     1     -10.244   9.468  66.670  1.00  0.00    -0.247 N  
HETATM    2  H2  UNL     1     -10.595   9.160  65.764  1.00  0.00     0.000 HD 
HETATM    3  H1  UNL     1      -9.850  10.405  66.765  1.00  0.00     0.000 HD 
HETATM    4  C   UNL     1     -10.307   8.621  67.739  1.00  0.00    -0.242 C  
HETATM    5  O   UNL     1     -10.779   7.497  67.626  1.00  0.00    -0.239 OA 
ENDROOT
BRANCH   4   6
HETATM    6  C   UNL     1      -9.763   9.168  69.039  1.00  0.00    -0.166 C  
BRANCH   6   7
HETATM    7  C   UNL     1     -10.779  10.002  69.788  1.00  0.00    -0.304 A  
HETATM    8  C   UNL     1     -11.646   9.340  70.677  1.00  0.00    -0.305 A  
HETATM    9  C   UNL     1     -12.618  10.039  71.378  1.00  0.00    -0.518 A  
HETATM   10  C   UNL     1     -12.780  11.400  71.149  1.00  0.00    -0.479 A  
HETATM   11  C   UNL     1     -11.972  12.071  70.214  1.00  0.00    -0.398 A  
HETATM   12  C   UNL     1     -10.875  11.403  69.622  1.00  0.00    -0.047 A  
HETATM   13  H2  UNL     1     -10.115  11.617  67.797  1.00  0.00     0.000 HD 
HETATM   14  N   UNL     1     -10.017  12.059  68.711  1.00  0.00    -0.395 NA 
HETATM   15  H1  UNL     1     -10.086  13.070  68.592  1.00  0.00     0.000 HD 
BRANCH  11  16
HETATM   16  C   UNL     1     -12.286  13.501  69.895  1.00  0.00    -0.224 C  
HETATM   17  O   UNL     1     -12.219  13.911  68.741  1.00  0.00    -0.348 OA 
BRANCH  16  18
HETATM   18  C   UNL     1     -12.643  14.453  71.002  1.00  0.00    -0.419 A  
HETATM   19  C   UNL     1     -13.977  14.779  71.299  1.00  0.00    -0.444 A  
HETATM   20  C   UNL     1     -14.284  15.520  72.442  1.00  0.00    -0.571 A  
HETATM   21  C   UNL     1     -13.260  15.981  73.268  1.00  0.00    -0.651 A  
HETATM   22  C   UNL     1     -11.929  15.729  72.933  1.00  0.00    -0.599 A  
HETATM   23  C   UNL     1     -11.620  14.973  71.799  1.00  0.00    -0.425 A  
ENDBRANCH  16  18
ENDBRANCH  11  16
ENDBRANCH   6   7
ENDBRANCH   4   6
TORSDOF 4
ENDMDL
MODEL       26
REMARK 921   NORMALIZED FREE ENERGY PREDICTED BY IDOCK:   -5.97 KCAL/MOL
REMARK 922        TOTAL FREE ENERGY PREDICTED BY IDOCK:   -8.07 KCAL/MOL
REMARK 923 INTER-LIGAND FREE ENERGY PREDICTED BY IDOCK:   -7.17 KCAL/MOL
REMARK 924 INTRA-LIGAND FREE ENERGY PREDICTED BY IDOCK:   -0.90 KCAL/MOL
REMARK 927      BINDING AFFINITY PREDICTED BY RF-SCORE:    0.00 PKD
ROOT
HETATM    1  N   UNL     1     -13.881   8.871  73.021  1.00  0.00    -0.907 N  
HETATM    2  H2  UNL     1     -13.623   8.428  73.903  1.00  0.00     0.000 HD 
HETATM    3  H1  UNL     1     -14.862   9.080  72.832  1.00  0.00     0.000 HD 
HETATM    4  C   UNL     1     -12.909   9.175  72.112  1.00  0.00    -0.412 C  
HETATM    5  O   UNL     1     -11.733   8.924  72.339  1.00  0.00    -0.331 OA 
ENDROOT
BRANCH   4   6
HETATM    6  C   UNL     1     -13.390   9.828  70.837  1.00  0.00    -0.227 C  
BRANCH   6   7
HETATM    7  C   UNL     1     -12.733  11.169  70.589  1.00  0.00    -0.350 A  
HETATM    8  C   UNL     1     -13.140  12.256  71.385  1.00  0.00    -0.285 A  
HETATM    9  C   UNL     1     -12.597  13.519  71.196  1.00  0.00    -0.438 A  
HETATM   10  C   UNL     1     -11.691  13.726  70.164  1.00  0.00    -0.303 A  
HETATM   11  C   UNL     1     -11.322  12.671  69.311  1.00  0.00    -0.306 A  
HETATM   12  C   UNL     1     -11.739  11.351  69.601  1.00  0.00    -0.345 A  
HETATM   13  H2  UNL     1     -12.185   9.875  68.346  1.00  0.00     0.000 HD 
HETATM   14  N   UNL     1     -11.352  10.261  68.790  1.00  0.00    -0.437 NA 
HETATM   15  H1  UNL     1     -10.634  10.393  68.077  1.00  0.00     0.000 HD 
BRANCH  11  16
HETATM   16  C   UNL     1     -10.458  12.980  68.125  1.00  0.00    -0.245 C  
HETATM   17  O   UNL     1      -9.248  12.790  68.171  1.00  0.00    -0.204 OA 
BRANCH  16  18
HETATM   18  C   UNL     1     -11.072  13.569  66.886  1.00  0.00    -0.309 A  
HETATM   19  C   UNL     1     -10.822  14.894  66.492  1.00  0.00    -0.322 A  
HETATM   20  C   UNL     1     -11.259  15.354  65.248  1.00  0.00    -0.313 A  
HETATM   21  C   UNL     1     -11.988  14.510  64.411  1.00  0.00    -0.467 A  
HETATM   22  C   UNL     1     -12.308  13.219  64.833  1.00  0.00    -0.476 A  
HETATM   23  C   UNL     1     -11.858  12.750  66.071  1.00  0.00    -0.495 A  
ENDBRANCH  16  18
ENDBRANCH  11  16
ENDBRANCH   6   7
ENDBRANCH   4   6
TORSDOF 4
ENDMDL
MODEL       27
REMARK 921   NORMALIZED FREE ENERGY PREDICTED BY IDOCK:   -5.94 KCAL/MOL
REMARK 922        TOTAL FREE ENERGY PREDICTED BY IDOCK:   -8.04 KCAL/MOL
REMARK 923 INTER-LIGAND FREE ENERGY PREDICTED BY IDOCK:   -7.46 KCAL/MOL
REMARK 924 INTRA-LIGAND FREE ENERGY PREDICTED BY IDOCK:   -0.58 KCAL/MOL
REMARK 927      BINDING AFFINITY PREDICTED BY RF-SCORE:    0.00 PKD
ROOT
HETATM    1  N   UNL     1     -12.339  14.920  64.022  1.00  0.00    -1.021 N  
HETATM    2  H2  UNL     1     -13.143  14.984  63.397  1.00  0.00     0.000 HD 
HETATM    3  H1  UNL     1     -11.566  15.577  63.916  1.00  0.00     0.000 HD 
HETATM    4  C   UNL     1     -12.313  13.954  64.987  1.00  0.00    -0.430 C  
HETATM    5  O   UNL     1     -13.240  13.165  65.113  1.00  0.00    -0.683 OA 
ENDROOT
BRANCH   4   6
HETATM    6  C   UNL     1     -11.082  13.938  65.862  1.00  0.00    -0.291 C  
BRANCH   6   7
HETATM    7  C   UNL     1     -11.413  13.739  67.325  1.00  0.00    -0.367 A  
HETATM    8  C   UNL     1     -11.348  14.861  68.172  1.00  0.00    -0.326 A  
HETATM    9  C   UNL     1     -11.615  14.747  69.529  1.00  0.00    -0.339 A  
HETATM   10  C   UNL     1     -11.885  13.495  70.068  1.00  0.00    -0.371 A  
HETATM   11  C   UNL     1     -11.887  12.348  69.255  1.00  0.00    -0.361 A  
HETATM   12  C   UNL     1     -11.782  12.480  67.851  1.00  0.00    -0.359 A  
HETATM   13  H2  UNL     1     -10.918  11.260  66.540  1.00  0.00     0.000 HD 
HETATM   14  N   UNL     1     -11.824  11.353  67.000  1.00  0.00    -0.468 NA 
HETATM   15  H1  UNL     1     -12.090  10.444  67.379  1.00  0.00     0.000 HD 
BRANCH  11  16
HETATM   16  C   UNL     1     -12.035  11.008  69.910  1.00  0.00    -0.351 C  
HETATM   17  O   UNL     1     -13.145  10.581  70.206  1.00  0.00    -0.227 OA 
BRANCH  16  18
HETATM   18  C   UNL     1     -10.813  10.202  70.248  1.00  0.00    -0.370 A  
HETATM   19  C   UNL     1      -9.611  10.342  69.534  1.00  0.00    -0.225 A  
HETATM   20  C   UNL     1      -8.447   9.714  69.984  1.00  0.00    -0.223 A  
HETATM   21  C   UNL     1      -8.487   8.906  71.119  1.00  0.00    -0.250 A  
HETATM   22  C   UNL     1      -9.695   8.700  71.784  1.00  0.00    -0.361 A  
HETATM   23  C   UNL     1     -10.859   9.340  71.347  1.00  0.00    -0.434 A  
ENDBRANCH  16  18
ENDBRANCH  11  16
ENDBRANCH   6   7
ENDBRANCH   4   6
TORSDOF 4
ENDMDL
MODEL       28
REMARK 921   NORMALIZED FREE ENERGY PREDICTED BY IDOCK:   -5.93 KCAL/MOL
REMARK 922        TOTAL FREE ENERGY PREDICTED BY IDOCK:   -8.03 KCAL/MOL
REMARK 923 INTER-LIGAND FREE ENERGY PREDICTED BY IDOCK:   -7.15 KCAL/MOL
REMARK 924 INTRA-LIGAND FREE ENERGY PREDICTED BY IDOCK:   -0.88 KCAL/MOL
REMARK 927      BINDING AFFINITY PREDICTED BY RF-SCORE:    0.00 PKD
ROOT
HETATM    1  N   UNL     1     -13.388   6.617  72.157  1.00  0.00    -0.501 N  
HETATM    2  H2  UNL     1     -13.869   5.779  71.827  1.00  0.00     0.000 HD 
HETATM    3  H1  UNL     1     -13.933   7.392  72.536  1.00  0.00     0.000 HD 
HETATM    4  C   UNL     1     -12.027   6.684  72.084  1.00  0.00    -0.280 C  
HETATM    5  O   UNL     1     -11.373   5.754  71.629  1.00  0.00    -0.242 OA 
ENDROOT
BRANCH   4   6
HETATM    6  C   UNL     1     -11.408   7.964  72.596  1.00  0.00    -0.468 C  
BRANCH   6   7
HETATM    7  C   UNL     1     -10.826   8.812  71.486  1.00  0.00    -0.374 A  
HETATM    8  C   UNL     1      -9.429   8.796  71.312  1.00  0.00    -0.320 A  
HETATM    9  C   UNL     1      -8.826   9.569  70.330  1.00  0.00    -0.281 A  
HETATM   10  C   UNL     1      -9.605  10.417  69.553  1.00  0.00    -0.182 A  
HETATM   11  C   UNL     1     -10.993  10.502  69.755  1.00  0.00    -0.350 A  
HETATM   12  C   UNL     1     -11.634   9.599  70.635  1.00  0.00    -0.299 A  
HETATM   13  H2  UNL     1     -13.221   9.895  71.796  1.00  0.00     0.000 HD 
HETATM   14  N   UNL     1     -13.033   9.627  70.830  1.00  0.00    -0.559 NA 
HETATM   15  H1  UNL     1     -13.616  10.195  70.215  1.00  0.00     0.000 HD 
BRANCH  11  16
HETATM   16  C   UNL     1     -11.764  11.539  68.995  1.00  0.00    -0.335 C  
HETATM   17  O   UNL     1     -12.278  11.265  67.916  1.00  0.00    -0.570 OA 
BRANCH  16  18
HETATM   18  C   UNL     1     -11.870  12.937  69.536  1.00  0.00    -0.383 A  
HETATM   19  C   UNL     1     -11.604  14.063  68.739  1.00  0.00    -0.366 A  
HETATM   20  C   UNL     1     -11.885  15.346  69.214  1.00  0.00    -0.365 A  
HETATM   21  C   UNL     1     -12.387  15.515  70.504  1.00  0.00    -0.461 A  
HETATM   22  C   UNL     1     -12.578  14.405  71.327  1.00  0.00    -0.421 A  
HETATM   23  C   UNL     1     -12.313  13.119  70.849  1.00  0.00    -0.393 A  
ENDBRANCH  16  18
ENDBRANCH  11  16
ENDBRANCH   6   7
ENDBRANCH   4   6
TORSDOF 4
ENDMDL
MODEL       29
REMARK 921   NORMALIZED FREE ENERGY PREDICTED BY IDOCK:   -5.90 KCAL/MOL
REMARK 922        TOTAL FREE ENERGY PREDICTED BY IDOCK:   -7.99 KCAL/MOL
REMARK 923 INTER-LIGAND FREE ENERGY PREDICTED BY IDOCK:   -7.05 KCAL/MOL
REMARK 924 INTRA-LIGAND FREE ENERGY PREDICTED BY IDOCK:   -0.94 KCAL/MOL
REMARK 927      BINDING AFFINITY PREDICTED BY RF-SCORE:    0.00 PKD
ROOT
HETATM    1  N   UNL     1     -10.602  18.601  65.858  1.00  0.00    -0.427 N  
HETATM    2  H2  UNL     1     -11.037  19.436  66.250  1.00  0.00     0.000 HD 
HETATM    3  H1  UNL     1     -10.440  18.544  64.853  1.00  0.00     0.000 HD 
HETATM    4  C   UNL     1     -10.248  17.575  66.687  1.00  0.00    -0.332 C  
HETATM    5  O   UNL     1     -10.443  17.643  67.893  1.00  0.00    -0.362 OA 
ENDROOT
BRANCH   4   6
HETATM    6  C   UNL     1      -9.611  16.382  66.014  1.00  0.00    -0.352 C  
BRANCH   6   7
HETATM    7  C   UNL     1     -10.397  15.107  66.228  1.00  0.00    -0.303 A  
HETATM    8  C   UNL     1     -11.389  14.781  65.285  1.00  0.00    -0.363 A  
HETATM    9  C   UNL     1     -12.164  13.640  65.432  1.00  0.00    -0.474 A  
HETATM   10  C   UNL     1     -12.003  12.845  66.560  1.00  0.00    -0.447 A  
HETATM   11  C   UNL     1     -11.066  13.187  67.551  1.00  0.00    -0.296 A  
HETATM   12  C   UNL     1     -10.160  14.251  67.327  1.00  0.00    -0.252 A  
HETATM   13  H2  UNL     1      -9.384  15.530  68.637  1.00  0.00     0.000 HD 
HETATM   14  N   UNL     1      -9.178  14.595  68.283  1.00  0.00    -0.191 NA 
HETATM   15  H1  UNL     1      -9.008  13.977  69.076  1.00  0.00     0.000 HD 
BRANCH  11  16
HETATM   16  C   UNL     1     -11.036  12.382  68.815  1.00  0.00    -0.262 C  
HETATM   17  O   UNL     1     -10.288  11.417  68.919  1.00  0.00    -0.206 OA 
BRANCH  16  18
HETATM   18  C   UNL     1     -11.962  12.731  69.946  1.00  0.00    -0.368 A  
HETATM   19  C   UNL     1     -12.468  11.754  70.819  1.00  0.00    -0.405 A  
HETATM   20  C   UNL     1     -13.177  12.129  71.963  1.00  0.00    -0.496 A  
HETATM   21  C   UNL     1     -13.425  13.477  72.217  1.00  0.00    -0.669 A  
HETATM   22  C   UNL     1     -12.993  14.446  71.310  1.00  0.00    -0.414 A  
HETATM   23  C   UNL     1     -12.269  14.075  70.173  1.00  0.00    -0.425 A  
ENDBRANCH  16  18
ENDBRANCH  11  16
ENDBRANCH   6   7
ENDBRANCH   4   6
TORSDOF 4
ENDMDL
MODEL       30
REMARK 921   NORMALIZED FREE ENERGY PREDICTED BY IDOCK:   -5.85 KCAL/MOL
REMARK 922        TOTAL FREE ENERGY PREDICTED BY IDOCK:   -7.93 KCAL/MOL
REMARK 923 INTER-LIGAND FREE ENERGY PREDICTED BY IDOCK:   -7.27 KCAL/MOL
REMARK 924 INTRA-LIGAND FREE ENERGY PREDICTED BY IDOCK:   -0.66 KCAL/MOL
REMARK 927      BINDING AFFINITY PREDICTED BY RF-SCORE:    0.00 PKD
ROOT
HETATM    1  N   UNL     1     -12.308  13.941  63.521  1.00  0.00    -1.087 N  
HETATM    2  H2  UNL     1     -13.096  14.019  62.877  1.00  0.00     0.000 HD 
HETATM    3  H1  UNL     1     -11.916  13.021  63.726  1.00  0.00     0.000 HD 
HETATM    4  C   UNL     1     -11.795  15.068  64.096  1.00  0.00    -0.167 C  
HETATM    5  O   UNL     1     -12.265  16.171  63.850  1.00  0.00    -0.935 OA 
ENDROOT
BRANCH   4   6
HETATM    6  C   UNL     1     -10.630  14.850  65.033  1.00  0.00    -0.446 C  
BRANCH   6   7
HETATM    7  C   UNL     1     -11.021  14.075  66.273  1.00  0.00    -0.300 A  
HETATM    8  C   UNL     1     -11.500  14.803  67.378  1.00  0.00    -0.376 A  
HETATM    9  C   UNL     1     -11.854  14.160  68.556  1.00  0.00    -0.390 A  
HETATM   10  C   UNL     1     -11.669  12.788  68.667  1.00  0.00    -0.360 A  
HETATM   11  C   UNL     1     -11.127  12.048  67.601  1.00  0.00    -0.319 A  
HETATM   12  C   UNL     1     -10.923  12.667  66.346  1.00  0.00    -0.272 A  
HETATM   13  H2  UNL     1      -9.504  12.322  64.996  1.00  0.00     0.000 HD 
HETATM   14  N   UNL     1     -10.420  11.944  65.241  1.00  0.00    -0.264 NA 
HETATM   15  H1  UNL     1     -10.349  10.928  65.294  1.00  0.00     0.000 HD 
BRANCH  11  16
HETATM   16  C   UNL     1     -10.810  10.600  67.825  1.00  0.00    -0.286 C  
HETATM   17  O   UNL     1     -10.828   9.809  66.889  1.00  0.00    -0.170 OA 
BRANCH  16  18
HETATM   18  C   UNL     1     -10.511  10.106  69.212  1.00  0.00    -0.246 A  
HETATM   19  C   UNL     1     -11.529   9.860  70.148  1.00  0.00    -0.309 A  
HETATM   20  C   UNL     1     -11.236   9.233  71.360  1.00  0.00    -0.433 A  
HETATM   21  C   UNL     1      -9.920   8.891  71.666  1.00  0.00    -0.397 A  
HETATM   22  C   UNL     1      -8.894   9.206  70.775  1.00  0.00    -0.291 A  
HETATM   23  C   UNL     1      -9.186   9.819  69.553  1.00  0.00    -0.226 A  
ENDBRANCH  16  18
ENDBRANCH  11  16
ENDBRANCH   6   7
ENDBRANCH   4   6
TORSDOF 4
ENDMDL
MODEL       31
REMARK 921   NORMALIZED FREE ENERGY PREDICTED BY IDOCK:   -5.85 KCAL/MOL
REMARK 922        TOTAL FREE ENERGY PREDICTED BY IDOCK:   -7.93 KCAL/MOL
REMARK 923 INTER-LIGAND FREE ENERGY PREDICTED BY IDOCK:   -7.45 KCAL/MOL
REMARK 924 INTRA-LIGAND FREE ENERGY PREDICTED BY IDOCK:   -0.48 KCAL/MOL
REMARK 927      BINDING AFFINITY PREDICTED BY RF-SCORE:    0.00 PKD
ROOT
HETATM    1  N   UNL     1      -8.831  16.523  68.748  1.00  0.00    -0.246 N  
HETATM    2  H2  UNL     1      -8.033  17.027  69.133  1.00  0.00     0.000 HD 
HETATM    3  H1  UNL     1      -8.728  15.542  68.487  1.00  0.00     0.000 HD 
HETATM    4  C   UNL     1     -10.023  17.171  68.589  1.00  0.00    -0.313 C  
HETATM    5  O   UNL     1     -10.147  18.348  68.901  1.00  0.00    -0.388 OA 
ENDROOT
BRANCH   4   6
HETATM    6  C   UNL     1     -11.145  16.340  68.012  1.00  0.00    -0.299 C  
BRANCH   6   7
HETATM    7  C   UNL     1     -11.620  15.265  68.965  1.00  0.00    -0.360 A  
HETATM    8  C   UNL     1     -11.917  15.643  70.287  1.00  0.00    -0.398 A  
HETATM    9  C   UNL     1     -12.333  14.705  71.221  1.00  0.00    -0.407 A  
HETATM   10  C   UNL     1     -12.393  13.364  70.861  1.00  0.00    -0.436 A  
HETATM   11  C   UNL     1     -12.035  12.952  69.566  1.00  0.00    -0.346 A  
HETATM   12  C   UNL     1     -11.773  13.917  68.566  1.00  0.00    -0.355 A  
HETATM   13  H2  UNL     1     -10.493  13.830  67.046  1.00  0.00     0.000 HD 
HETATM   14  N   UNL     1     -11.451  13.539  67.244  1.00  0.00    -0.321 NA 
HETATM   15  H1  UNL     1     -11.562  12.567  66.956  1.00  0.00     0.000 HD 
BRANCH  11  16
HETATM   16  C   UNL     1     -11.974  11.482  69.275  1.00  0.00    -0.330 C  
HETATM   17  O   UNL     1     -12.033  11.075  68.121  1.00  0.00    -0.610 OA 
BRANCH  16  18
HETATM   18  C   UNL     1     -11.884  10.499  70.408  1.00  0.00    -0.431 A  
HETATM   19  C   UNL     1     -13.008  10.144  71.173  1.00  0.00    -0.488 A  
HETATM   20  C   UNL     1     -12.931   9.099  72.096  1.00  0.00    -0.498 A  
HETATM   21  C   UNL     1     -11.722   8.434  72.295  1.00  0.00    -0.453 A  
HETATM   22  C   UNL     1     -10.583   8.837  71.596  1.00  0.00    -0.401 A  
HETATM   23  C   UNL     1     -10.661   9.872  70.659  1.00  0.00    -0.372 A  
ENDBRANCH  16  18
ENDBRANCH  11  16
ENDBRANCH   6   7
ENDBRANCH   4   6
TORSDOF 4
ENDMDL
MODEL       32
REMARK 921   NORMALIZED FREE ENERGY PREDICTED BY IDOCK:   -5.84 KCAL/MOL
REMARK 922        TOTAL FREE ENERGY PREDICTED BY IDOCK:   -7.92 KCAL/MOL
REMARK 923 INTER-LIGAND FREE ENERGY PREDICTED BY IDOCK:   -7.03 KCAL/MOL
REMARK 924 INTRA-LIGAND FREE ENERGY PREDICTED BY IDOCK:   -0.89 KCAL/MOL
REMARK 927      BINDING AFFINITY PREDICTED BY RF-SCORE:    0.00 PKD
ROOT
HETATM    1  N   UNL     1     -13.792   8.751  71.431  1.00  0.00    -0.548 N  
HETATM    2  H2  UNL     1     -14.789   8.948  71.513  1.00  0.00     0.000 HD 
HETATM    3  H1  UNL     1     -13.484   7.817  71.158  1.00  0.00     0.000 HD 
HETATM    4  C   UNL     1     -12.888   9.741  71.691  1.00  0.00    -0.421 C  
HETATM    5  O   UNL     1     -13.256  10.861  72.020  1.00  0.00    -0.492 OA 
ENDROOT
BRANCH   4   6
HETATM    6  C   UNL     1     -11.435   9.353  71.543  1.00  0.00    -0.467 C  
BRANCH   6   7
HETATM    7  C   UNL     1     -11.013   9.225  70.096  1.00  0.00    -0.278 A  
HETATM    8  C   UNL     1     -10.704   7.939  69.614  1.00  0.00    -0.218 A  
HETATM    9  C   UNL     1     -10.287   7.752  68.303  1.00  0.00    -0.239 A  
HETATM   10  C   UNL     1     -10.109   8.855  67.478  1.00  0.00    -0.285 A  
HETATM   11  C   UNL     1     -10.344  10.155  67.958  1.00  0.00    -0.227 A  
HETATM   12  C   UNL     1     -10.928  10.341  69.233  1.00  0.00    -0.241 A  
HETATM   13  H2  UNL     1     -10.630  11.806  70.544  1.00  0.00     0.000 HD 
HETATM   14  N   UNL     1     -11.218  11.631  69.729  1.00  0.00    -0.470 NA 
HETATM   15  H1  UNL     1     -11.157  12.437  69.106  1.00  0.00     0.000 HD 
BRANCH  11  16
HETATM   16  C   UNL     1      -9.995  11.316  67.076  1.00  0.00    -0.198 C  
HETATM   17  O   UNL     1      -9.053  12.048  67.358  1.00  0.00    -0.168 OA 
BRANCH  16  18
HETATM   18  C   UNL     1     -10.831  11.612  65.863  1.00  0.00    -0.339 A  
HETATM   19  C   UNL     1     -11.983  12.413  65.934  1.00  0.00    -0.434 A  
HETATM   20  C   UNL     1     -12.634  12.817  64.767  1.00  0.00    -0.518 A  
HETATM   21  C   UNL     1     -12.168  12.386  63.526  1.00  0.00    -0.661 A  
HETATM   22  C   UNL     1     -11.071  11.525  63.455  1.00  0.00    -0.434 A  
HETATM   23  C   UNL     1     -10.408  11.133  64.621  1.00  0.00    -0.393 A  
ENDBRANCH  16  18
ENDBRANCH  11  16
ENDBRANCH   6   7
ENDBRANCH   4   6
TORSDOF 4
ENDMDL
MODEL       33
REMARK 921   NORMALIZED FREE ENERGY PREDICTED BY IDOCK:   -5.81 KCAL/MOL
REMARK 922        TOTAL FREE ENERGY PREDICTED BY IDOCK:   -7.88 KCAL/MOL
REMARK 923 INTER-LIGAND FREE ENERGY PREDICTED BY IDOCK:   -7.54 KCAL/MOL
REMARK 924 INTRA-LIGAND FREE ENERGY PREDICTED BY IDOCK:   -0.34 KCAL/MOL
REMARK 927      BINDING AFFINITY PREDICTED BY RF-SCORE:    0.00 PKD
ROOT
HETATM    1  N   UNL     1     -10.706   5.271  71.995  1.00  0.00    -0.217 N  
HETATM    2  H2  UNL     1     -11.067   4.343  71.773  1.00  0.00     0.000 HD 
HETATM    3  H1  UNL     1     -10.304   5.446  72.917  1.00  0.00     0.000 HD 
HETATM    4  C   UNL     1     -10.767   6.260  71.056  1.00  0.00    -0.259 C  
HETATM    5  O   UNL     1     -11.248   6.050  69.950  1.00  0.00    -0.386 OA 
ENDROOT
BRANCH   4   6
HETATM    6  C   UNL     1     -10.207   7.598  71.479  1.00  0.00    -0.212 C  
BRANCH   6   7
HETATM    7  C   UNL     1     -11.277   8.661  71.606  1.00  0.00    -0.379 A  
HETATM    8  C   UNL     1     -12.455   8.326  72.298  1.00  0.00    -0.384 A  
HETATM    9  C   UNL     1     -13.488   9.244  72.431  1.00  0.00    -0.526 A  
HETATM   10  C   UNL     1     -13.382  10.485  71.816  1.00  0.00    -0.446 A  
HETATM   11  C   UNL     1     -12.244  10.817  71.061  1.00  0.00    -0.485 A  
HETATM   12  C   UNL     1     -11.122   9.956  71.061  1.00  0.00    -0.331 A  
HETATM   13  H2  UNL     1      -9.822   9.594  69.601  1.00  0.00     0.000 HD 
HETATM   14  N   UNL     1      -9.946  10.278  70.348  1.00  0.00    -0.339 NA 
HETATM   15  H1  UNL     1      -9.835  11.213  69.955  1.00  0.00     0.000 HD 
BRANCH  11  16
HETATM   16  C   UNL     1     -12.245  12.107  70.297  1.00  0.00    -0.264 C  
HETATM   17  O   UNL     1     -12.017  12.115  69.092  1.00  0.00    -0.299 OA 
BRANCH  16  18
HETATM   18  C   UNL     1     -12.483  13.403  71.018  1.00  0.00    -0.437 A  
HETATM   19  C   UNL     1     -13.300  13.479  72.158  1.00  0.00    -0.593 A  
HETATM   20  C   UNL     1     -13.356  14.656  72.908  1.00  0.00    -0.585 A  
HETATM   21  C   UNL     1     -12.636  15.777  72.499  1.00  0.00    -0.541 A  
HETATM   22  C   UNL     1     -11.887  15.731  71.323  1.00  0.00    -0.491 A  
HETATM   23  C   UNL     1     -11.815  14.549  70.579  1.00  0.00    -0.372 A  
ENDBRANCH  16  18
ENDBRANCH  11  16
ENDBRANCH   6   7
ENDBRANCH   4   6
TORSDOF 4
ENDMDL
MODEL       34
REMARK 921   NORMALIZED FREE ENERGY PREDICTED BY IDOCK:   -5.81 KCAL/MOL
REMARK 922        TOTAL FREE ENERGY PREDICTED BY IDOCK:   -7.88 KCAL/MOL
REMARK 923 INTER-LIGAND FREE ENERGY PREDICTED BY IDOCK:   -6.83 KCAL/MOL
REMARK 924 INTRA-LIGAND FREE ENERGY PREDICTED BY IDOCK:   -1.04 KCAL/MOL
REMARK 927      BINDING AFFINITY PREDICTED BY RF-SCORE:    0.00 PKD
ROOT
HETATM    1  N   UNL     1      -9.905  11.282  69.165  1.00  0.00    -0.416 N  
HETATM    2  H2  UNL     1      -9.229  10.521  69.243  1.00  0.00     0.000 HD 
HETATM    3  H1  UNL     1      -9.790  12.117  69.740  1.00  0.00     0.000 HD 
HETATM    4  C   UNL     1     -10.950  11.166  68.294  1.00  0.00    -0.226 C  
HETATM    5  O   UNL     1     -11.088  10.164  67.605  1.00  0.00    -0.301 OA 
ENDROOT
BRANCH   4   6
HETATM    6  C   UNL     1     -11.896  12.343  68.251  1.00  0.00    -0.364 C  
BRANCH   6   7
HETATM    7  C   UNL     1     -11.497  13.370  67.214  1.00  0.00    -0.374 A  
HETATM    8  C   UNL     1     -12.073  13.269  65.934  1.00  0.00    -0.493 A  
HETATM    9  C   UNL     1     -11.733  14.162  64.928  1.00  0.00    -0.395 A  
HETATM   10  C   UNL     1     -10.763  15.127  65.169  1.00  0.00    -0.442 A  
HETATM   11  C   UNL     1     -10.123  15.204  66.418  1.00  0.00    -0.286 A  
HETATM   12  C   UNL     1     -10.582  14.410  67.495  1.00  0.00    -0.265 A  
HETATM   13  H2  UNL     1      -9.542  13.600  68.984  1.00  0.00     0.000 HD 
HETATM   14  N   UNL     1      -9.990  14.492  68.775  1.00  0.00    -0.234 NA 
HETATM   15  H1  UNL     1      -9.330  15.243  68.978  1.00  0.00     0.000 HD 
BRANCH  11  16
HETATM   16  C   UNL     1      -8.982  16.163  66.578  1.00  0.00    -0.287 C  
HETATM   17  O   UNL     1      -7.832  15.750  66.673  1.00  0.00    -0.234 OA 
BRANCH  16  18
HETATM   18  C   UNL     1      -9.252  17.639  66.669  1.00  0.00    -0.284 A  
HETATM   19  C   UNL     1     -10.445  18.142  67.215  1.00  0.00    -0.407 A  
HETATM   20  C   UNL     1     -10.589  19.511  67.450  1.00  0.00    -0.607 A  
HETATM   21  C   UNL     1      -9.565  20.390  67.098  1.00  0.00    -0.587 A  
HETATM   22  C   UNL     1      -8.412  19.902  66.482  1.00  0.00    -0.379 A  
HETATM   23  C   UNL     1      -8.257  18.531  66.261  1.00  0.00    -0.248 A  
ENDBRANCH  16  18
ENDBRANCH  11  16
ENDBRANCH   6   7
ENDBRANCH   4   6
TORSDOF 4
ENDMDL
MODEL       35
REMARK 921   NORMALIZED FREE ENERGY PREDICTED BY IDOCK:   -5.81 KCAL/MOL
REMARK 922        TOTAL FREE ENERGY PREDICTED BY IDOCK:   -7.87 KCAL/MOL
REMARK 923 INTER-LIGAND FREE ENERGY PREDICTED BY IDOCK:   -7.03 KCAL/MOL
REMARK 924 INTRA-LIGAND FREE ENERGY PREDICTED BY IDOCK:   -0.84 KCAL/MOL
REMARK 927      BINDING AFFINITY PREDICTED BY RF-SCORE:    0.00 PKD
ROOT
HETATM    1  N   UNL     1      -6.708  17.068  69.038  1.00  0.00    -0.210 N  
HETATM    2  H2  UNL     1      -5.749  16.767  68.863  1.00  0.00     0.000 HD 
HETATM    3  H1  UNL     1      -7.220  16.679  69.830  1.00  0.00     0.000 HD 
HETATM    4  C   UNL     1      -7.289  17.983  68.207  1.00  0.00    -0.259 C  
HETATM    5  O   UNL     1      -6.675  18.450  67.257  1.00  0.00    -0.193 OA 
ENDROOT
BRANCH   4   6
HETATM    6  C   UNL     1      -8.710  18.364  68.548  1.00  0.00    -0.336 C  
BRANCH   6   7
HETATM    7  C   UNL     1      -9.710  17.309  68.128  1.00  0.00    -0.284 A  
HETATM    8  C   UNL     1     -10.254  16.484  69.130  1.00  0.00    -0.298 A  
HETATM    9  C   UNL     1     -11.158  15.480  68.813  1.00  0.00    -0.291 A  
HETATM   10  C   UNL     1     -11.478  15.244  67.482  1.00  0.00    -0.271 A  
HETATM   11  C   UNL     1     -10.895  16.009  66.457  1.00  0.00    -0.167 A  
HETATM   12  C   UNL     1     -10.106  17.138  66.782  1.00  0.00    -0.303 A  
HETATM   13  H2  UNL     1      -8.524  17.876  65.830  1.00  0.00     0.000 HD 
HETATM   14  N   UNL     1      -9.540  17.954  65.778  1.00  0.00    -0.482 NA 
HETATM   15  H1  UNL     1      -9.826  17.831  64.806  1.00  0.00     0.000 HD 
BRANCH  11  16
HETATM   16  C   UNL     1     -11.158  15.617  65.035  1.00  0.00    -0.389 C  
HETATM   17  O   UNL     1     -11.337  16.475  64.177  1.00  0.00    -1.060 OA 
BRANCH  16  18
HETATM   18  C   UNL     1     -11.249  14.164  64.664  1.00  0.00    -0.371 A  
HETATM   19  C   UNL     1     -12.356  13.642  63.975  1.00  0.00    -0.382 A  
HETATM   20  C   UNL     1     -12.330  12.333  63.488  1.00  0.00    -0.670 A  
HETATM   21  C   UNL     1     -11.220  11.524  63.726  1.00  0.00    -0.456 A  
HETATM   22  C   UNL     1     -10.152  12.012  64.479  1.00  0.00    -0.293 A  
HETATM   23  C   UNL     1     -10.168  13.327  64.954  1.00  0.00    -0.313 A  
ENDBRANCH  16  18
ENDBRANCH  11  16
ENDBRANCH   6   7
ENDBRANCH   4   6
TORSDOF 4
ENDMDL
MODEL       36
REMARK 921   NORMALIZED FREE ENERGY PREDICTED BY IDOCK:   -5.80 KCAL/MOL
REMARK 922        TOTAL FREE ENERGY PREDICTED BY IDOCK:   -7.87 KCAL/MOL
REMARK 923 INTER-LIGAND FREE ENERGY PREDICTED BY IDOCK:   -6.91 KCAL/MOL
REMARK 924 INTRA-LIGAND FREE ENERGY PREDICTED BY IDOCK:   -0.96 KCAL/MOL
REMARK 927      BINDING AFFINITY PREDICTED BY RF-SCORE:    0.00 PKD
ROOT
HETATM    1  N   UNL     1      -8.654  16.201  66.173  1.00  0.00    -0.331 N  
HETATM    2  H2  UNL     1      -8.053  16.564  65.433  1.00  0.00     0.000 HD 
HETATM    3  H1  UNL     1      -8.242  15.671  66.941  1.00  0.00     0.000 HD 
HETATM    4  C   UNL     1      -9.999  16.432  66.121  1.00  0.00    -0.339 C  
HETATM    5  O   UNL     1     -10.494  17.069  65.200  1.00  0.00    -0.667 OA 
ENDROOT
BRANCH   4   6
HETATM    6  C   UNL     1     -10.805  15.856  67.262  1.00  0.00    -0.279 C  
BRANCH   6   7
HETATM    7  C   UNL     1     -10.975  14.357  67.153  1.00  0.00    -0.305 A  
HETATM    8  C   UNL     1     -11.775  13.862  66.106  1.00  0.00    -0.393 A  
HETATM    9  C   UNL     1     -11.994  12.499  65.961  1.00  0.00    -0.456 A  
HETATM   10  C   UNL     1     -11.471  11.619  66.899  1.00  0.00    -0.320 A  
HETATM   11  C   UNL     1     -10.727  12.095  67.993  1.00  0.00    -0.242 A  
HETATM   12  C   UNL     1     -10.359  13.460  68.055  1.00  0.00    -0.241 A  
HETATM   13  H2  UNL     1     -10.140  14.626  69.650  1.00  0.00     0.000 HD 
HETATM   14  N   UNL     1      -9.576  13.964  69.116  1.00  0.00    -0.397 NA 
HETATM   15  H1  UNL     1      -9.131  13.316  69.767  1.00  0.00     0.000 HD 
BRANCH  11  16
HETATM   16  C   UNL     1     -10.313  11.121  69.054  1.00  0.00    -0.194 C  
HETATM   17  O   UNL     1      -9.161  10.705  69.101  1.00  0.00    -0.181 OA 
BRANCH  16  18
HETATM   18  C   UNL     1     -11.327  10.615  70.041  1.00  0.00    -0.400 A  
HETATM   19  C   UNL     1     -11.396   9.260  70.405  1.00  0.00    -0.283 A  
HETATM   20  C   UNL     1     -12.224   8.853  71.453  1.00  0.00    -0.374 A  
HETATM   21  C   UNL     1     -13.023   9.786  72.111  1.00  0.00    -0.483 A  
HETATM   22  C   UNL     1     -13.018  11.120  71.700  1.00  0.00    -0.548 A  
HETATM   23  C   UNL     1     -12.178  11.533  70.662  1.00  0.00    -0.473 A  
ENDBRANCH  16  18
ENDBRANCH  11  16
ENDBRANCH   6   7
ENDBRANCH   4   6
TORSDOF 4
ENDMDL
MODEL       37
REMARK 921   NORMALIZED FREE ENERGY PREDICTED BY IDOCK:   -5.80 KCAL/MOL
REMARK 922        TOTAL FREE ENERGY PREDICTED BY IDOCK:   -7.86 KCAL/MOL
REMARK 923 INTER-LIGAND FREE ENERGY PREDICTED BY IDOCK:   -7.04 KCAL/MOL
REMARK 924 INTRA-LIGAND FREE ENERGY PREDICTED BY IDOCK:   -0.83 KCAL/MOL
REMARK 927      BINDING AFFINITY PREDICTED BY RF-SCORE:    0.00 PKD
ROOT
HETATM    1  N   UNL     1      -9.795   8.643  65.935  1.00  0.00    -0.464 N  
HETATM    2  H2  UNL     1     -10.070   7.710  66.243  1.00  0.00     0.000 HD 
HETATM    3  H1  UNL     1      -9.168   8.744  65.136  1.00  0.00     0.000 HD 
HETATM    4  C   UNL     1     -10.269   9.738  66.598  1.00  0.00    -0.226 C  
HETATM    5  O   UNL     1     -11.021   9.617  67.557  1.00  0.00    -0.260 OA 
ENDROOT
BRANCH   4   6
HETATM    6  C   UNL     1      -9.806  11.074  66.068  1.00  0.00    -0.273 C  
BRANCH   6   7
HETATM    7  C   UNL     1     -10.624  12.228  66.606  1.00  0.00    -0.257 A  
HETATM    8  C   UNL     1     -11.679  12.712  65.811  1.00  0.00    -0.466 A  
HETATM    9  C   UNL     1     -12.455  13.782  66.232  1.00  0.00    -0.441 A  
HETATM   10  C   UNL     1     -12.143  14.426  67.422  1.00  0.00    -0.348 A  
HETATM   11  C   UNL     1     -11.050  14.005  68.200  1.00  0.00    -0.280 A  
HETATM   12  C   UNL     1     -10.362  12.816  67.864  1.00  0.00    -0.226 A  
HETATM   13  H2  UNL     1      -8.435  12.379  68.088  1.00  0.00     0.000 HD 
HETATM   14  N   UNL     1      -9.287  12.341  68.648  1.00  0.00    -0.393 NA 
HETATM   15  H1  UNL     1      -9.099  12.765  69.556  1.00  0.00     0.000 HD 
BRANCH  11  16
HETATM   16  C   UNL     1     -10.667  14.825  69.395  1.00  0.00    -0.239 C  
HETATM   17  O   UNL     1      -9.621  15.464  69.401  1.00  0.00    -0.246 OA 
BRANCH  16  18
HETATM   18  C   UNL     1     -11.547  14.829  70.613  1.00  0.00    -0.324 A  
HETATM   19  C   UNL     1     -11.641  15.948  71.457  1.00  0.00    -0.537 A  
HETATM   20  C   UNL     1     -12.598  15.987  72.473  1.00  0.00    -0.535 A  
HETATM   21  C   UNL     1     -13.434  14.891  72.683  1.00  0.00    -0.573 A  
HETATM   22  C   UNL     1     -13.289  13.745  71.900  1.00  0.00    -0.499 A  
HETATM   23  C   UNL     1     -12.343  13.710  70.871  1.00  0.00    -0.450 A  
ENDBRANCH  16  18
ENDBRANCH  11  16
ENDBRANCH   6   7
ENDBRANCH   4   6
TORSDOF 4
ENDMDL
MODEL       38
REMARK 921   NORMALIZED FREE ENERGY PREDICTED BY IDOCK:   -5.79 KCAL/MOL
REMARK 922        TOTAL FREE ENERGY PREDICTED BY IDOCK:   -7.85 KCAL/MOL
REMARK 923 INTER-LIGAND FREE ENERGY PREDICTED BY IDOCK:   -7.02 KCAL/MOL
REMARK 924 INTRA-LIGAND FREE ENERGY PREDICTED BY IDOCK:   -0.83 KCAL/MOL
REMARK 927      BINDING AFFINITY PREDICTED BY RF-SCORE:    0.00 PKD
ROOT
HETATM    1  N   UNL     1     -12.454  14.228  63.214  1.00  0.00    -1.068 N  
HETATM    2  H2  UNL     1     -13.361  14.509  62.841  1.00  0.00     0.000 HD 
HETATM    3  H1  UNL     1     -11.734  14.934  63.369  1.00  0.00     0.000 HD 
HETATM    4  C   UNL     1     -12.221  12.913  63.498  1.00  0.00    -0.512 C  
HETATM    5  O   UNL     1     -13.085  12.065  63.312  1.00  0.00    -0.701 OA 
ENDROOT
BRANCH   4   6
HETATM    6  C   UNL     1     -10.850  12.596  64.046  1.00  0.00    -0.452 C  
BRANCH   6   7
HETATM    7  C   UNL     1     -10.897  12.095  65.473  1.00  0.00    -0.324 A  
HETATM    8  C   UNL     1     -11.643  12.840  66.406  1.00  0.00    -0.435 A  
HETATM    9  C   UNL     1     -11.710  12.453  67.736  1.00  0.00    -0.413 A  
HETATM   10  C   UNL     1     -10.977  11.353  68.166  1.00  0.00    -0.284 A  
HETATM   11  C   UNL     1     -10.169  10.635  67.267  1.00  0.00    -0.250 A  
HETATM   12  C   UNL     1     -10.228  10.920  65.883  1.00  0.00    -0.257 A  
HETATM   13  H2  UNL     1      -8.782  10.819  64.522  1.00  0.00     0.000 HD 
HETATM   14  N   UNL     1      -9.462  10.190  64.947  1.00  0.00    -0.265 NA 
HETATM   15  H1  UNL     1      -8.979   9.341  65.243  1.00  0.00     0.000 HD 
BRANCH  11  16
HETATM   16  C   UNL     1      -9.285   9.552  67.810  1.00  0.00    -0.124 C  
HETATM   17  O   UNL     1      -8.072   9.598  67.641  1.00  0.00    -0.112 OA 
BRANCH  16  18
HETATM   18  C   UNL     1      -9.893   8.380  68.527  1.00  0.00    -0.186 A  
HETATM   19  C   UNL     1     -10.132   8.400  69.912  1.00  0.00    -0.195 A  
HETATM   20  C   UNL     1     -10.859   7.372  70.516  1.00  0.00    -0.259 A  
HETATM   21  C   UNL     1     -11.310   6.297  69.753  1.00  0.00    -0.506 A  
HETATM   22  C   UNL     1     -11.005   6.233  68.393  1.00  0.00    -0.409 A  
HETATM   23  C   UNL     1     -10.292   7.268  67.781  1.00  0.00    -0.267 A  
ENDBRANCH  16  18
ENDBRANCH  11  16
ENDBRANCH   6   7
ENDBRANCH   4   6
TORSDOF 4
ENDMDL
MODEL       39
REMARK 921   NORMALIZED FREE ENERGY PREDICTED BY IDOCK:   -5.75 KCAL/MOL
REMARK 922        TOTAL FREE ENERGY PREDICTED BY IDOCK:   -7.81 KCAL/MOL
REMARK 923 INTER-LIGAND FREE ENERGY PREDICTED BY IDOCK:   -7.15 KCAL/MOL
REMARK 924 INTRA-LIGAND FREE ENERGY PREDICTED BY IDOCK:   -0.65 KCAL/MOL
REMARK 927      BINDING AFFINITY PREDICTED BY RF-SCORE:    0.00 PKD
ROOT
HETATM    1  N   UNL     1     -13.914   9.281  72.652  1.00  0.00    -0.731 N  
HETATM    2  H2  UNL     1     -14.837   8.870  72.793  1.00  0.00     0.000 HD 
HETATM    3  H1  UNL     1     -13.727  10.226  72.989  1.00  0.00     0.000 HD 
HETATM    4  C   UNL     1     -12.947   8.559  72.013  1.00  0.00    -0.371 C  
HETATM    5  O   UNL     1     -13.170   7.425  71.609  1.00  0.00    -0.356 OA 
ENDROOT
BRANCH   4   6
HETATM    6  C   UNL     1     -11.614   9.252  71.851  1.00  0.00    -0.405 C  
BRANCH   6   7
HETATM    7  C   UNL     1     -11.449   9.879  70.484  1.00  0.00    -0.391 A  
HETATM    8  C   UNL     1     -10.767   9.139  69.500  1.00  0.00    -0.226 A  
HETATM    9  C   UNL     1     -10.559   9.663  68.232  1.00  0.00    -0.268 A  
HETATM   10  C   UNL     1     -10.970  10.960  67.952  1.00  0.00    -0.325 A  
HETATM   11  C   UNL     1     -11.591  11.744  68.940  1.00  0.00    -0.370 A  
HETATM   12  C   UNL     1     -11.956  11.162  70.176  1.00  0.00    -0.365 A  
HETATM   13  H2  UNL     1     -12.004  11.989  71.984  1.00  0.00     0.000 HD 
HETATM   14  N   UNL     1     -12.620  11.909  71.175  1.00  0.00    -0.348 NA 
HETATM   15  H1  UNL     1     -12.986  12.835  70.952  1.00  0.00     0.000 HD 
BRANCH  11  16
HETATM   16  C   UNL     1     -11.879  13.183  68.633  1.00  0.00    -0.328 C  
HETATM   17  O   UNL     1     -12.409  13.903  69.471  1.00  0.00    -0.333 OA 
BRANCH  16  18
HETATM   18  C   UNL     1     -11.557  13.737  67.273  1.00  0.00    -0.391 A  
HETATM   19  C   UNL     1     -12.361  13.469  66.153  1.00  0.00    -0.463 A  
HETATM   20  C   UNL     1     -12.140  14.140  64.949  1.00  0.00    -0.438 A  
HETATM   21  C   UNL     1     -11.086  15.046  64.841  1.00  0.00    -0.425 A  
HETATM   22  C   UNL     1     -10.234  15.255  65.927  1.00  0.00    -0.353 A  
HETATM   23  C   UNL     1     -10.464  14.597  67.139  1.00  0.00    -0.268 A  
ENDBRANCH  16  18
ENDBRANCH  11  16
ENDBRANCH   6   7
ENDBRANCH   4   6
TORSDOF 4
ENDMDL
MODEL       40
REMARK 921   NORMALIZED FREE ENERGY PREDICTED BY IDOCK:   -5.74 KCAL/MOL
REMARK 922        TOTAL FREE ENERGY PREDICTED BY IDOCK:   -7.79 KCAL/MOL
REMARK 923 INTER-LIGAND FREE ENERGY PREDICTED BY IDOCK:   -7.04 KCAL/MOL
REMARK 924 INTRA-LIGAND FREE ENERGY PREDICTED BY IDOCK:   -0.75 KCAL/MOL
REMARK 927      BINDING AFFINITY PREDICTED BY RF-SCORE:    0.00 PKD
ROOT
HETATM    1  N   UNL     1     -11.436   6.819  67.315  1.00  0.00    -0.729 N  
HETATM    2  H2  UNL     1     -11.607   5.839  67.085  1.00  0.00     0.000 HD 
HETATM    3  H1  UNL     1     -12.213   7.480  67.302  1.00  0.00     0.000 HD 
HETATM    4  C   UNL     1     -10.173   7.224  67.635  1.00  0.00    -0.200 C  
HETATM    5  O   UNL     1      -9.241   6.431  67.650  1.00  0.00    -0.118 OA 
ENDROOT
BRANCH   4   6
HETATM    6  C   UNL     1     -10.021   8.692  67.960  1.00  0.00    -0.221 C  
BRANCH   6   7
HETATM    7  C   UNL     1     -10.201   9.577  66.746  1.00  0.00    -0.313 A  
HETATM    8  C   UNL     1      -9.385   9.330  65.626  1.00  0.00    -0.308 A  
HETATM    9  C   UNL     1      -9.480  10.117  64.488  1.00  0.00    -0.364 A  
HETATM   10  C   UNL     1     -10.345  11.205  64.479  1.00  0.00    -0.400 A  
HETATM   11  C   UNL     1     -11.120  11.514  65.611  1.00  0.00    -0.261 A  
HETATM   12  C   UNL     1     -11.153  10.621  66.708  1.00  0.00    -0.030 A  
HETATM   13  H2  UNL     1     -11.341  11.026  68.645  1.00  0.00     0.000 HD 
HETATM   14  N   UNL     1     -11.953  10.879  67.843  1.00  0.00    -0.735 NA 
HETATM   15  H1  UNL     1     -12.640  11.632  67.815  1.00  0.00     0.000 HD 
BRANCH  11  16
HETATM   16  C   UNL     1     -11.922  12.780  65.603  1.00  0.00    -0.452 C  
HETATM   17  O   UNL     1     -13.056  12.794  65.136  1.00  0.00    -0.750 OA 
BRANCH  16  18
HETATM   18  C   UNL     1     -11.319  14.051  66.129  1.00  0.00    -0.322 A  
HETATM   19  C   UNL     1     -10.522  14.883  65.324  1.00  0.00    -0.427 A  
HETATM   20  C   UNL     1     -10.126  16.140  65.784  1.00  0.00    -0.390 A  
HETATM   21  C   UNL     1     -10.483  16.556  67.066  1.00  0.00    -0.289 A  
HETATM   22  C   UNL     1     -11.206  15.701  67.899  1.00  0.00    -0.328 A  
HETATM   23  C   UNL     1     -11.618  14.448  67.435  1.00  0.00    -0.398 A  
ENDBRANCH  16  18
ENDBRANCH  11  16
ENDBRANCH   6   7
ENDBRANCH   4   6
TORSDOF 4
ENDMDL
MODEL       41
REMARK 921   NORMALIZED FREE ENERGY PREDICTED BY IDOCK:   -5.73 KCAL/MOL
REMARK 922        TOTAL FREE ENERGY PREDICTED BY IDOCK:   -7.78 KCAL/MOL
REMARK 923 INTER-LIGAND FREE ENERGY PREDICTED BY IDOCK:   -7.00 KCAL/MOL
REMARK 924 INTRA-LIGAND FREE ENERGY PREDICTED BY IDOCK:   -0.78 KCAL/MOL
REMARK 927      BINDING AFFINITY PREDICTED BY RF-SCORE:    0.00 PKD
ROOT
HETATM    1  N   UNL     1      -7.741  16.715  66.292  1.00  0.00    -0.293 N  
HETATM    2  H2  UNL     1      -6.752  16.587  66.507  1.00  0.00     0.000 HD 
HETATM    3  H1  UNL     1      -8.116  16.350  65.416  1.00  0.00     0.000 HD 
HETATM    4  C   UNL     1      -8.543  17.372  67.180  1.00  0.00    -0.219 C  
HETATM    5  O   UNL     1      -8.093  17.810  68.231  1.00  0.00    -0.264 OA 
ENDROOT
BRANCH   4   6
HETATM    6  C   UNL     1      -9.991  17.511  66.773  1.00  0.00    -0.313 C  
BRANCH   6   7
HETATM    7  C   UNL     1     -10.773  16.230  66.965  1.00  0.00    -0.233 A  
HETATM    8  C   UNL     1     -11.043  15.817  68.283  1.00  0.00    -0.342 A  
HETATM    9  C   UNL     1     -11.734  14.640  68.533  1.00  0.00    -0.348 A  
HETATM   10  C   UNL     1     -12.105  13.827  67.470  1.00  0.00    -0.366 A  
HETATM   11  C   UNL     1     -11.785  14.183  66.148  1.00  0.00    -0.402 A  
HETATM   12  C   UNL     1     -11.233  15.456  65.875  1.00  0.00    -0.179 A  
HETATM   13  H2  UNL     1      -9.929  15.980  64.468  1.00  0.00     0.000 HD 
HETATM   14  N   UNL     1     -10.939  15.864  64.555  1.00  0.00    -0.871 NA 
HETATM   15  H1  UNL     1     -11.271  15.306  63.769  1.00  0.00     0.000 HD 
BRANCH  11  16
HETATM   16  C   UNL     1     -12.075  13.201  65.053  1.00  0.00    -0.415 C  
HETATM   17  O   UNL     1     -13.145  13.235  64.456  1.00  0.00    -0.588 OA 
BRANCH  16  18
HETATM   18  C   UNL     1     -11.067  12.139  64.715  1.00  0.00    -0.364 A  
HETATM   19  C   UNL     1     -10.555  11.265  65.688  1.00  0.00    -0.303 A  
HETATM   20  C   UNL     1      -9.761  10.179  65.313  1.00  0.00    -0.365 A  
HETATM   21  C   UNL     1      -9.435   9.986  63.971  1.00  0.00    -0.299 A  
HETATM   22  C   UNL     1      -9.876  10.897  63.011  1.00  0.00    -0.358 A  
HETATM   23  C   UNL     1     -10.684  11.976  63.381  1.00  0.00    -0.475 A  
ENDBRANCH  16  18
ENDBRANCH  11  16
ENDBRANCH   6   7
ENDBRANCH   4   6
TORSDOF 4
ENDMDL
MODEL       42
REMARK 921   NORMALIZED FREE ENERGY PREDICTED BY IDOCK:   -5.71 KCAL/MOL
REMARK 922        TOTAL FREE ENERGY PREDICTED BY IDOCK:   -7.76 KCAL/MOL
REMARK 923 INTER-LIGAND FREE ENERGY PREDICTED BY IDOCK:   -7.40 KCAL/MOL
REMARK 924 INTRA-LIGAND FREE ENERGY PREDICTED BY IDOCK:   -0.36 KCAL/MOL
REMARK 927      BINDING AFFINITY PREDICTED BY RF-SCORE:    0.00 PKD
ROOT
HETATM    1  N   UNL     1      -7.286   8.487  71.150  1.00  0.00    -0.068 N  
HETATM    2  H2  UNL     1      -6.423   8.952  71.433  1.00  0.00     0.000 HD 
HETATM    3  H1  UNL     1      -7.401   8.187  70.182  1.00  0.00     0.000 HD 
HETATM    4  C   UNL     1      -8.270   8.277  72.073  1.00  0.00    -0.160 C  
HETATM    5  O   UNL     1      -8.132   8.637  73.235  1.00  0.00    -0.408 OA 
ENDROOT
BRANCH   4   6
HETATM    6  C   UNL     1      -9.509   7.582  71.559  1.00  0.00    -0.166 C  
BRANCH   6   7
HETATM    7  C   UNL     1     -10.745   8.449  71.663  1.00  0.00    -0.333 A  
HETATM    8  C   UNL     1     -11.811   7.980  72.453  1.00  0.00    -0.429 A  
HETATM    9  C   UNL     1     -12.984   8.712  72.573  1.00  0.00    -0.346 A  
HETATM   10  C   UNL     1     -13.132   9.889  71.850  1.00  0.00    -0.559 A  
HETATM   11  C   UNL     1     -12.108  10.343  71.000  1.00  0.00    -0.488 A  
HETATM   12  C   UNL     1     -10.851   9.694  71.003  1.00  0.00    -0.342 A  
HETATM   13  H2  UNL     1      -9.576   9.430  69.500  1.00  0.00     0.000 HD 
HETATM   14  N   UNL     1      -9.786  10.148  70.193  1.00  0.00    -0.408 NA 
HETATM   15  H1  UNL     1      -9.863  11.047  69.716  1.00  0.00     0.000 HD 
BRANCH  11  16
HETATM   16  C   UNL     1     -12.376  11.535  70.132  1.00  0.00    -0.245 C  
HETATM   17  O   UNL     1     -12.384  11.425  68.911  1.00  0.00    -0.446 OA 
BRANCH  16  18
HETATM   18  C   UNL     1     -12.592  12.883  70.759  1.00  0.00    -0.314 A  
HETATM   19  C   UNL     1     -12.177  14.069  70.130  1.00  0.00    -0.425 A  
HETATM   20  C   UNL     1     -12.551  15.310  70.649  1.00  0.00    -0.471 A  
HETATM   21  C   UNL     1     -13.299  15.377  71.823  1.00  0.00    -0.567 A  
HETATM   22  C   UNL     1     -13.645  14.204  72.495  1.00  0.00    -0.644 A  
HETATM   23  C   UNL     1     -13.286  12.959  71.969  1.00  0.00    -0.579 A  
ENDBRANCH  16  18
ENDBRANCH  11  16
ENDBRANCH   6   7
ENDBRANCH   4   6
TORSDOF 4
ENDMDL
MODEL       43
REMARK 921   NORMALIZED FREE ENERGY PREDICTED BY IDOCK:   -5.70 KCAL/MOL
REMARK 922        TOTAL FREE ENERGY PREDICTED BY IDOCK:   -7.74 KCAL/MOL
REMARK 923 INTER-LIGAND FREE ENERGY PREDICTED BY IDOCK:   -6.98 KCAL/MOL
REMARK 924 INTRA-LIGAND FREE ENERGY PREDICTED BY IDOCK:   -0.77 KCAL/MOL
REMARK 927      BINDING AFFINITY PREDICTED BY RF-SCORE:    0.00 PKD
ROOT
HETATM    1  N   UNL     1      -9.747  20.103  65.925  1.00  0.00    -0.593 N  
HETATM    2  H2  UNL     1      -9.918  20.156  64.920  1.00  0.00     0.000 HD 
HETATM    3  H1  UNL     1     -10.460  20.437  66.574  1.00  0.00     0.000 HD 
HETATM    4  C   UNL     1      -8.568  19.587  66.381  1.00  0.00    -0.360 C  
HETATM    5  O   UNL     1      -7.713  19.185  65.602  1.00  0.00    -0.460 OA 
ENDROOT
BRANCH   4   6
HETATM    6  C   UNL     1      -8.409  19.550  67.882  1.00  0.00    -0.350 C  
BRANCH   6   7
HETATM    7  C   UNL     1      -8.650  18.172  68.458  1.00  0.00    -0.307 A  
HETATM    8  C   UNL     1      -7.531  17.348  68.680  1.00  0.00    -0.263 A  
HETATM    9  C   UNL     1      -7.680  16.064  69.183  1.00  0.00    -0.231 A  
HETATM   10  C   UNL     1      -8.956  15.562  69.407  1.00  0.00    -0.275 A  
HETATM   11  C   UNL     1     -10.093  16.340  69.126  1.00  0.00    -0.264 A  
HETATM   12  C   UNL     1      -9.945  17.702  68.775  1.00  0.00    -0.358 A  
HETATM   13  H2  UNL     1     -11.054  18.806  67.548  1.00  0.00     0.000 HD 
HETATM   14  N   UNL     1     -11.066  18.525  68.528  1.00  0.00     0.108 NA 
HETATM   15  H1  UNL     1     -12.001  18.186  68.757  1.00  0.00     0.000 HD 
BRANCH  11  16
HETATM   16  C   UNL     1     -11.443  15.700  69.243  1.00  0.00    -0.362 C  
HETATM   17  O   UNL     1     -12.030  15.300  68.244  1.00  0.00    -0.297 OA 
BRANCH  16  18
HETATM   18  C   UNL     1     -12.104  15.588  70.588  1.00  0.00    -0.430 A  
HETATM   19  C   UNL     1     -13.496  15.449  70.722  1.00  0.00    -0.324 A  
HETATM   20  C   UNL     1     -14.059  15.167  71.968  1.00  0.00    -0.659 A  
HETATM   21  C   UNL     1     -13.244  15.069  73.094  1.00  0.00    -0.587 A  
HETATM   22  C   UNL     1     -11.870  15.286  72.980  1.00  0.00    -0.502 A  
HETATM   23  C   UNL     1     -11.301  15.552  71.731  1.00  0.00    -0.463 A  
ENDBRANCH  16  18
ENDBRANCH  11  16
ENDBRANCH   6   7
ENDBRANCH   4   6
TORSDOF 4
ENDMDL
MODEL       44
REMARK 921   NORMALIZED FREE ENERGY PREDICTED BY IDOCK:   -5.68 KCAL/MOL
REMARK 922        TOTAL FREE ENERGY PREDICTED BY IDOCK:   -7.72 KCAL/MOL
REMARK 923 INTER-LIGAND FREE ENERGY PREDICTED BY IDOCK:   -6.88 KCAL/MOL
REMARK 924 INTRA-LIGAND FREE ENERGY PREDICTED BY IDOCK:   -0.84 KCAL/MOL
REMARK 927      BINDING AFFINITY PREDICTED BY RF-SCORE:    0.00 PKD
ROOT
HETATM    1  N   UNL     1      -8.700   8.834  63.487  1.00  0.00    -0.427 N  
HETATM    2  H2  UNL     1      -8.628   7.867  63.802  1.00  0.00     0.000 HD 
HETATM    3  H1  UNL     1      -8.382   9.083  62.550  1.00  0.00     0.000 HD 
HETATM    4  C   UNL     1      -9.222   9.777  64.326  1.00  0.00    -0.232 C  
HETATM    5  O   UNL     1      -9.605   9.479  65.450  1.00  0.00    -0.276 OA 
ENDROOT
BRANCH   4   6
HETATM    6  C   UNL     1      -9.289  11.180  63.769  1.00  0.00    -0.204 C  
BRANCH   6   7
HETATM    7  C   UNL     1     -10.436  11.980  64.348  1.00  0.00    -0.353 A  
HETATM    8  C   UNL     1     -11.673  11.931  63.679  1.00  0.00    -0.572 A  
HETATM    9  C   UNL     1     -12.761  12.658  64.141  1.00  0.00    -0.373 A  
HETATM   10  C   UNL     1     -12.607  13.497  65.238  1.00  0.00    -0.517 A  
HETATM   11  C   UNL     1     -11.362  13.616  65.880  1.00  0.00    -0.317 A  
HETATM   12  C   UNL     1     -10.299  12.755  65.522  1.00  0.00    -0.284 A  
HETATM   13  H2  UNL     1      -8.344  13.121  65.502  1.00  0.00     0.000 HD 
HETATM   14  N   UNL     1      -9.048  12.818  66.175  1.00  0.00    -0.438 NA 
HETATM   15  H1  UNL     1      -8.949  13.377  67.023  1.00  0.00     0.000 HD 
BRANCH  11  16
HETATM   16  C   UNL     1     -11.212  14.643  66.961  1.00  0.00    -0.344 C  
HETATM   17  O   UNL     1     -10.653  15.710  66.731  1.00  0.00    -0.301 OA 
BRANCH  16  18
HETATM   18  C   UNL     1     -11.709  14.348  68.348  1.00  0.00    -0.367 A  
HETATM   19  C   UNL     1     -11.758  13.038  68.855  1.00  0.00    -0.371 A  
HETATM   20  C   UNL     1     -12.052  12.815  70.202  1.00  0.00    -0.370 A  
HETATM   21  C   UNL     1     -12.345  13.891  71.038  1.00  0.00    -0.453 A  
HETATM   22  C   UNL     1     -12.376  15.186  70.520  1.00  0.00    -0.408 A  
HETATM   23  C   UNL     1     -12.066  15.415  69.177  1.00  0.00    -0.270 A  
ENDBRANCH  16  18
ENDBRANCH  11  16
ENDBRANCH   6   7
ENDBRANCH   4   6
TORSDOF 4
ENDMDL
MODEL       45
REMARK 921   NORMALIZED FREE ENERGY PREDICTED BY IDOCK:   -5.66 KCAL/MOL
REMARK 922        TOTAL FREE ENERGY PREDICTED BY IDOCK:   -7.69 KCAL/MOL
REMARK 923 INTER-LIGAND FREE ENERGY PREDICTED BY IDOCK:   -7.05 KCAL/MOL
REMARK 924 INTRA-LIGAND FREE ENERGY PREDICTED BY IDOCK:   -0.64 KCAL/MOL
REMARK 927      BINDING AFFINITY PREDICTED BY RF-SCORE:    0.00 PKD
ROOT
HETATM    1  N   UNL     1     -13.589   7.377  70.973  1.00  0.00    -0.611 N  
HETATM    2  H2  UNL     1     -14.005   6.501  70.658  1.00  0.00     0.000 HD 
HETATM    3  H1  UNL     1     -14.175   8.207  71.067  1.00  0.00     0.000 HD 
HETATM    4  C   UNL     1     -12.255   7.422  71.263  1.00  0.00    -0.341 C  
HETATM    5  O   UNL     1     -11.552   6.427  71.151  1.00  0.00    -0.314 OA 
ENDROOT
BRANCH   4   6
HETATM    6  C   UNL     1     -11.732   8.763  71.722  1.00  0.00    -0.416 C  
BRANCH   6   7
HETATM    7  C   UNL     1     -10.981   9.497  70.632  1.00  0.00    -0.370 A  
HETATM    8  C   UNL     1      -9.584   9.335  70.574  1.00  0.00    -0.317 A  
HETATM    9  C   UNL     1      -8.830   9.997  69.616  1.00  0.00    -0.217 A  
HETATM   10  C   UNL     1      -9.455  10.882  68.746  1.00  0.00    -0.196 A  
HETATM   11  C   UNL     1     -10.839  11.114  68.830  1.00  0.00    -0.256 A  
HETATM   12  C   UNL     1     -11.635  10.320  69.688  1.00  0.00    -0.201 A  
HETATM   13  H2  UNL     1     -13.269  10.826  70.702  1.00  0.00     0.000 HD 
HETATM   14  N   UNL     1     -13.035  10.496  69.766  1.00  0.00    -0.537 NA 
HETATM   15  H1  UNL     1     -13.507  11.091  69.084  1.00  0.00     0.000 HD 
BRANCH  11  16
HETATM   16  C   UNL     1     -11.437  12.186  67.970  1.00  0.00    -0.319 C  
HETATM   17  O   UNL     1     -11.935  13.184  68.479  1.00  0.00    -0.337 OA 
BRANCH  16  18
HETATM   18  C   UNL     1     -11.467  12.018  66.477  1.00  0.00    -0.413 A  
HETATM   19  C   UNL     1     -12.273  12.824  65.656  1.00  0.00    -0.503 A  
HETATM   20  C   UNL     1     -12.144  12.766  64.267  1.00  0.00    -0.497 A  
HETATM   21  C   UNL     1     -11.246  11.870  63.688  1.00  0.00    -0.522 A  
HETATM   22  C   UNL     1     -10.502  11.011  64.497  1.00  0.00    -0.411 A  
HETATM   23  C   UNL     1     -10.616  11.078  65.889  1.00  0.00    -0.270 A  
ENDBRANCH  16  18
ENDBRANCH  11  16
ENDBRANCH   6   7
ENDBRANCH   4   6
TORSDOF 4
ENDMDL
MODEL       46
REMARK 921   NORMALIZED FREE ENERGY PREDICTED BY IDOCK:   -5.64 KCAL/MOL
REMARK 922        TOTAL FREE ENERGY PREDICTED BY IDOCK:   -7.67 KCAL/MOL
REMARK 923 INTER-LIGAND FREE ENERGY PREDICTED BY IDOCK:   -6.93 KCAL/MOL
REMARK 924 INTRA-LIGAND FREE ENERGY PREDICTED BY IDOCK:   -0.74 KCAL/MOL
REMARK 927      BINDING AFFINITY PREDICTED BY RF-SCORE:    0.00 PKD
ROOT
HETATM    1  N   UNL     1     -13.532  15.521  73.315  1.00  0.00    -0.602 N  
HETATM    2  H2  UNL     1     -13.239  15.678  74.279  1.00  0.00     0.000 HD 
HETATM    3  H1  UNL     1     -14.512  15.317  73.115  1.00  0.00     0.000 HD 
HETATM    4  C   UNL     1     -12.609  15.586  72.312  1.00  0.00    -0.396 C  
HETATM    5  O   UNL     1     -11.434  15.830  72.551  1.00  0.00    -0.402 OA 
ENDROOT
BRANCH   4   6
HETATM    6  C   UNL     1     -13.140  15.339  70.919  1.00  0.00    -0.523 C  
BRANCH   6   7
HETATM    7  C   UNL     1     -12.037  15.092  69.913  1.00  0.00    -0.376 A  
HETATM    8  C   UNL     1     -11.359  16.211  69.394  1.00  0.00    -0.323 A  
HETATM    9  C   UNL     1     -10.353  16.060  68.450  1.00  0.00    -0.251 A  
HETATM   10  C   UNL     1     -10.058  14.793  67.963  1.00  0.00    -0.218 A  
HETATM   11  C   UNL     1     -10.769  13.667  68.414  1.00  0.00    -0.272 A  
HETATM   12  C   UNL     1     -11.675  13.791  69.494  1.00  0.00    -0.323 A  
HETATM   13  H2  UNL     1     -13.370  12.807  69.825  1.00  0.00     0.000 HD 
HETATM   14  N   UNL     1     -12.374  12.674  70.001  1.00  0.00    -0.158 NA 
HETATM   15  H1  UNL     1     -12.113  11.735  69.698  1.00  0.00     0.000 HD 
BRANCH  11  16
HETATM   16  C   UNL     1     -10.515  12.348  67.749  1.00  0.00    -0.218 C  
HETATM   17  O   UNL     1      -9.884  11.471  68.329  1.00  0.00    -0.190 OA 
BRANCH  16  18
HETATM   18  C   UNL     1     -10.997  12.112  66.346  1.00  0.00    -0.327 A  
HETATM   19  C   UNL     1     -12.098  12.804  65.814  1.00  0.00    -0.505 A  
HETATM   20  C   UNL     1     -12.409  12.697  64.457  1.00  0.00    -0.537 A  
HETATM   21  C   UNL     1     -11.654  11.863  63.633  1.00  0.00    -0.559 A  
HETATM   22  C   UNL     1     -10.609  11.113  64.174  1.00  0.00    -0.436 A  
HETATM   23  C   UNL     1     -10.285  11.230  65.529  1.00  0.00    -0.312 A  
ENDBRANCH  16  18
ENDBRANCH  11  16
ENDBRANCH   6   7
ENDBRANCH   4   6
TORSDOF 4
ENDMDL
MODEL       47
REMARK 921   NORMALIZED FREE ENERGY PREDICTED BY IDOCK:   -5.62 KCAL/MOL
REMARK 922        TOTAL FREE ENERGY PREDICTED BY IDOCK:   -7.64 KCAL/MOL
REMARK 923 INTER-LIGAND FREE ENERGY PREDICTED BY IDOCK:   -6.86 KCAL/MOL
REMARK 924 INTRA-LIGAND FREE ENERGY PREDICTED BY IDOCK:   -0.78 KCAL/MOL
REMARK 927      BINDING AFFINITY PREDICTED BY RF-SCORE:    0.00 PKD
ROOT
HETATM    1  N   UNL     1     -11.821   6.618  69.675  1.00  0.00    -0.646 N  
HETATM    2  H2  UNL     1     -12.474   5.946  69.271  1.00  0.00     0.000 HD 
HETATM    3  H1  UNL     1     -10.939   6.811  69.200  1.00  0.00     0.000 HD 
HETATM    4  C   UNL     1     -12.141   7.246  70.845  1.00  0.00    -0.288 C  
HETATM    5  O   UNL     1     -13.200   7.015  71.415  1.00  0.00    -0.365 OA 
ENDROOT
BRANCH   4   6
HETATM    6  C   UNL     1     -11.113   8.223  71.365  1.00  0.00    -0.302 C  
BRANCH   6   7
HETATM    7  C   UNL     1     -11.376   9.641  70.907  1.00  0.00    -0.431 A  
HETATM    8  C   UNL     1     -12.457  10.328  71.490  1.00  0.00    -0.524 A  
HETATM    9  C   UNL     1     -12.772  11.622  71.101  1.00  0.00    -0.426 A  
HETATM   10  C   UNL     1     -12.051  12.222  70.076  1.00  0.00    -0.346 A  
HETATM   11  C   UNL     1     -11.011  11.530  69.430  1.00  0.00    -0.233 A  
HETATM   12  C   UNL     1     -10.578  10.280  69.932  1.00  0.00    -0.276 A  
HETATM   13  H2  UNL     1      -9.870   8.709  68.940  1.00  0.00     0.000 HD 
HETATM   14  N   UNL     1      -9.508   9.577  69.335  1.00  0.00    -0.167 NA 
HETATM   15  H1  UNL     1      -8.931  10.039  68.631  1.00  0.00     0.000 HD 
BRANCH  11  16
HETATM   16  C   UNL     1     -10.366  12.163  68.235  1.00  0.00    -0.212 C  
HETATM   17  O   UNL     1      -9.179  12.471  68.259  1.00  0.00    -0.201 OA 
BRANCH  16  18
HETATM   18  C   UNL     1     -11.187  12.465  67.013  1.00  0.00    -0.358 A  
HETATM   19  C   UNL     1     -12.026  13.590  66.942  1.00  0.00    -0.447 A  
HETATM   20  C   UNL     1     -12.634  13.940  65.735  1.00  0.00    -0.533 A  
HETATM   21  C   UNL     1     -12.449  13.145  64.605  1.00  0.00    -0.433 A  
HETATM   22  C   UNL     1     -11.682  11.982  64.692  1.00  0.00    -0.358 A  
HETATM   23  C   UNL     1     -11.058  11.637  65.894  1.00  0.00    -0.320 A  
ENDBRANCH  16  18
ENDBRANCH  11  16
ENDBRANCH   6   7
ENDBRANCH   4   6
TORSDOF 4
ENDMDL
MODEL       48
REMARK 921   NORMALIZED FREE ENERGY PREDICTED BY IDOCK:   -5.62 KCAL/MOL
REMARK 922        TOTAL FREE ENERGY PREDICTED BY IDOCK:   -7.64 KCAL/MOL
REMARK 923 INTER-LIGAND FREE ENERGY PREDICTED BY IDOCK:   -6.71 KCAL/MOL
REMARK 924 INTRA-LIGAND FREE ENERGY PREDICTED BY IDOCK:   -0.93 KCAL/MOL
REMARK 927      BINDING AFFINITY PREDICTED BY RF-SCORE:    0.00 PKD
ROOT
HETATM    1  N   UNL     1     -11.292  13.548  64.534  1.00  0.00    -0.351 N  
HETATM    2  H2  UNL     1     -11.512  13.977  63.635  1.00  0.00     0.000 HD 
HETATM    3  H1  UNL     1     -10.419  13.031  64.644  1.00  0.00     0.000 HD 
HETATM    4  C   UNL     1     -12.171  13.672  65.572  1.00  0.00    -0.443 C  
HETATM    5  O   UNL     1     -13.218  14.292  65.440  1.00  0.00    -0.688 OA 
ENDROOT
BRANCH   4   6
HETATM    6  C   UNL     1     -11.757  13.003  66.861  1.00  0.00    -0.441 C  
BRANCH   6   7
HETATM    7  C   UNL     1     -11.416  13.999  67.948  1.00  0.00    -0.347 A  
HETATM    8  C   UNL     1     -12.354  14.192  68.979  1.00  0.00    -0.145 A  
HETATM    9  C   UNL     1     -12.117  15.107  69.995  1.00  0.00    -0.384 A  
HETATM   10  C   UNL     1     -10.970  15.890  69.956  1.00  0.00    -0.361 A  
HETATM   11  C   UNL     1     -10.051  15.764  68.900  1.00  0.00    -0.222 A  
HETATM   12  C   UNL     1     -10.201  14.721  67.956  1.00  0.00    -0.226 A  
HETATM   13  H2  UNL     1      -9.748  14.711  66.020  1.00  0.00     0.000 HD 
HETATM   14  N   UNL     1      -9.273  14.539  66.906  1.00  0.00    -0.239 NA 
HETATM   15  H1  UNL     1      -8.397  15.061  66.911  1.00  0.00     0.000 HD 
BRANCH  11  16
HETATM   16  C   UNL     1      -8.910  16.733  68.827  1.00  0.00    -0.258 C  
HETATM   17  O   UNL     1      -7.836  16.469  69.357  1.00  0.00    -0.194 OA 
BRANCH  16  18
HETATM   18  C   UNL     1      -9.094  18.055  68.138  1.00  0.00    -0.279 A  
HETATM   19  C   UNL     1     -10.253  18.353  67.401  1.00  0.00    -0.393 A  
HETATM   20  C   UNL     1     -10.473  19.648  66.927  1.00  0.00    -0.606 A  
HETATM   21  C   UNL     1      -9.517  20.640  67.141  1.00  0.00    -0.505 A  
HETATM   22  C   UNL     1      -8.328  20.328  67.802  1.00  0.00    -0.267 A  
HETATM   23  C   UNL     1      -8.112  19.038  68.293  1.00  0.00    -0.359 A  
ENDBRANCH  16  18
ENDBRANCH  11  16
ENDBRANCH   6   7
ENDBRANCH   4   6
TORSDOF 4
ENDMDL
MODEL       49
REMARK 921   NORMALIZED FREE ENERGY PREDICTED BY IDOCK:   -5.61 KCAL/MOL
REMARK 922        TOTAL FREE ENERGY PREDICTED BY IDOCK:   -7.63 KCAL/MOL
REMARK 923 INTER-LIGAND FREE ENERGY PREDICTED BY IDOCK:   -6.81 KCAL/MOL
REMARK 924 INTRA-LIGAND FREE ENERGY PREDICTED BY IDOCK:   -0.82 KCAL/MOL
REMARK 927      BINDING AFFINITY PREDICTED BY RF-SCORE:    0.00 PKD
ROOT
HETATM    1  N   UNL     1     -10.092  18.013  66.373  1.00  0.00    -0.369 N  
HETATM    2  H2  UNL     1     -10.573  18.909  66.295  1.00  0.00     0.000 HD 
HETATM    3  H1  UNL     1      -9.781  17.534  65.527  1.00  0.00     0.000 HD 
HETATM    4  C   UNL     1      -9.873  17.472  67.607  1.00  0.00    -0.291 C  
HETATM    5  O   UNL     1     -10.246  18.046  68.622  1.00  0.00    -0.376 OA 
ENDROOT
BRANCH   4   6
HETATM    6  C   UNL     1      -9.153  16.144  67.620  1.00  0.00    -0.197 C  
BRANCH   6   7
HETATM    7  C   UNL     1     -10.102  14.970  67.725  1.00  0.00    -0.234 A  
HETATM    8  C   UNL     1     -10.562  14.389  66.529  1.00  0.00    -0.296 A  
HETATM    9  C   UNL     1     -11.453  13.325  66.551  1.00  0.00    -0.372 A  
HETATM   10  C   UNL     1     -11.948  12.873  67.768  1.00  0.00    -0.336 A  
HETATM   11  C   UNL     1     -11.557  13.483  68.972  1.00  0.00    -0.356 A  
HETATM   12  C   UNL     1     -10.526  14.452  68.970  1.00  0.00    -0.222 A  
HETATM   13  H2  UNL     1     -10.306  16.048  70.135  1.00  0.00     0.000 HD 
HETATM   14  N   UNL     1     -10.078  15.054  70.167  1.00  0.00    -0.503 NA 
HETATM   15  H1  UNL     1     -10.384  14.680  71.065  1.00  0.00     0.000 HD 
BRANCH  11  16
HETATM   16  C   UNL     1     -12.232  13.057  70.241  1.00  0.00    -0.296 C  
HETATM   17  O   UNL     1     -12.811  13.879  70.943  1.00  0.00    -0.328 OA 
BRANCH  16  18
HETATM   18  C   UNL     1     -12.162  11.622  70.680  1.00  0.00    -0.461 A  
HETATM   19  C   UNL     1     -11.181  10.743  70.190  1.00  0.00    -0.345 A  
HETATM   20  C   UNL     1     -11.030   9.472  70.749  1.00  0.00    -0.389 A  
HETATM   21  C   UNL     1     -11.887   9.053  71.766  1.00  0.00    -0.442 A  
HETATM   22  C   UNL     1     -12.913   9.893  72.200  1.00  0.00    -0.471 A  
HETATM   23  C   UNL     1     -13.057  11.172  71.654  1.00  0.00    -0.529 A  
ENDBRANCH  16  18
ENDBRANCH  11  16
ENDBRANCH   6   7
ENDBRANCH   4   6
TORSDOF 4
ENDMDL
MODEL       50
REMARK 921   NORMALIZED FREE ENERGY PREDICTED BY IDOCK:   -5.58 KCAL/MOL
REMARK 922        TOTAL FREE ENERGY PREDICTED BY IDOCK:   -7.60 KCAL/MOL
REMARK 923 INTER-LIGAND FREE ENERGY PREDICTED BY IDOCK:   -6.78 KCAL/MOL
REMARK 924 INTRA-LIGAND FREE ENERGY PREDICTED BY IDOCK:   -0.81 KCAL/MOL
REMARK 927      BINDING AFFINITY PREDICTED BY RF-SCORE:    0.00 PKD
ROOT
HETATM    1  N   UNL     1     -12.454  14.260  63.390  1.00  0.00    -1.101 N  
HETATM    2  H2  UNL     1     -13.305  14.500  62.882  1.00  0.00     0.000 HD 
HETATM    3  H1  UNL     1     -11.771  14.988  63.600  1.00  0.00     0.000 HD 
HETATM    4  C   UNL     1     -12.244  12.967  63.777  1.00  0.00    -0.460 C  
HETATM    5  O   UNL     1     -13.063  12.093  63.525  1.00  0.00    -0.785 OA 
ENDROOT
BRANCH   4   6
HETATM    6  C   UNL     1     -10.956  12.710  64.524  1.00  0.00    -0.365 C  
BRANCH   6   7
HETATM    7  C   UNL     1     -11.026  13.150  65.970  1.00  0.00    -0.295 A  
HETATM    8  C   UNL     1     -11.566  12.247  66.905  1.00  0.00    -0.427 A  
HETATM    9  C   UNL     1     -11.683  12.594  68.244  1.00  0.00    -0.389 A  
HETATM   10  C   UNL     1     -11.323  13.872  68.653  1.00  0.00    -0.310 A  
HETATM   11  C   UNL     1     -10.846  14.814  67.725  1.00  0.00    -0.278 A  
HETATM   12  C   UNL     1     -10.567  14.417  66.397  1.00  0.00    -0.297 A  
HETATM   13  H2  UNL     1     -10.741  15.463  64.715  1.00  0.00     0.000 HD 
HETATM   14  N   UNL     1     -10.047  15.327  65.450  1.00  0.00    -0.365 NA 
HETATM   15  H1  UNL     1      -9.716  16.241  65.758  1.00  0.00     0.000 HD 
BRANCH  11  16
HETATM   16  C   UNL     1     -10.614  16.220  68.190  1.00  0.00    -0.307 C  
HETATM   17  O   UNL     1     -11.556  16.993  68.326  1.00  0.00     0.090 OA 
BRANCH  16  18
HETATM   18  C   UNL     1      -9.215  16.701  68.450  1.00  0.00    -0.225 A  
HETATM   19  C   UNL     1      -8.822  18.023  68.180  1.00  0.00    -0.277 A  
HETATM   20  C   UNL     1      -7.573  18.487  68.598  1.00  0.00    -0.330 A  
HETATM   21  C   UNL     1      -6.690  17.622  69.242  1.00  0.00    -0.221 A  
HETATM   22  C   UNL     1      -7.044  16.287  69.440  1.00  0.00    -0.204 A  
HETATM   23  C   UNL     1      -8.300  15.824  69.039  1.00  0.00    -0.236 A  
ENDBRANCH  16  18
ENDBRANCH  11  16
ENDBRANCH   6   7
ENDBRANCH   4   6
TORSDOF 4
ENDMDL
MODEL       51
REMARK 921   NORMALIZED FREE ENERGY PREDICTED BY IDOCK:   -5.58 KCAL/MOL
REMARK 922        TOTAL FREE ENERGY PREDICTED BY IDOCK:   -7.60 KCAL/MOL
REMARK 923 INTER-LIGAND FREE ENERGY PREDICTED BY IDOCK:   -6.76 KCAL/MOL
REMARK 924 INTRA-LIGAND FREE ENERGY PREDICTED BY IDOCK:   -0.84 KCAL/MOL
REMARK 927      BINDING AFFINITY PREDICTED BY RF-SCORE:    0.00 PKD
ROOT
HETATM    1  N   UNL     1      -9.537   9.592  63.367  1.00  0.00    -0.474 N  
HETATM    2  H2  UNL     1      -9.590   8.588  63.540  1.00  0.00     0.000 HD 
HETATM    3  H1  UNL     1      -9.303   9.929  62.432  1.00  0.00     0.000 HD 
HETATM    4  C   UNL     1      -9.781  10.465  64.388  1.00  0.00    -0.333 C  
HETATM    5  O   UNL     1     -10.063  10.061  65.509  1.00  0.00    -0.298 OA 
ENDROOT
BRANCH   4   6
HETATM    6  C   UNL     1      -9.679  11.930  64.033  1.00  0.00    -0.179 C  
BRANCH   6   7
HETATM    7  C   UNL     1     -10.566  12.799  64.898  1.00  0.00    -0.336 A  
HETATM    8  C   UNL     1     -11.928  12.893  64.557  1.00  0.00    -0.452 A  
HETATM    9  C   UNL     1     -12.793  13.691  65.291  1.00  0.00    -0.421 A  
HETATM   10  C   UNL     1     -12.293  14.459  66.336  1.00  0.00    -0.298 A  
HETATM   11  C   UNL     1     -10.924  14.436  66.652  1.00  0.00    -0.318 A  
HETATM   12  C   UNL     1     -10.070  13.502  66.019  1.00  0.00    -0.310 A  
HETATM   13  H2  UNL     1      -8.154  13.694  65.523  1.00  0.00     0.000 HD 
HETATM   14  N   UNL     1      -8.697  13.423  66.343  1.00  0.00    -0.425 NA 
HETATM   15  H1  UNL     1      -8.340  13.930  67.153  1.00  0.00     0.000 HD 
BRANCH  11  16
HETATM   16  C   UNL     1     -10.414  15.393  67.686  1.00  0.00    -0.272 C  
HETATM   17  O   UNL     1     -10.072  14.989  68.792  1.00  0.00    -0.216 OA 
BRANCH  16  18
HETATM   18  C   UNL     1     -10.361  16.864  67.384  1.00  0.00    -0.309 A  
HETATM   19  C   UNL     1     -10.471  17.356  66.072  1.00  0.00    -0.278 A  
HETATM   20  C   UNL     1     -10.599  18.727  65.842  1.00  0.00    -0.405 A  
HETATM   21  C   UNL     1     -10.570  19.618  66.914  1.00  0.00    -0.603 A  
HETATM   22  C   UNL     1     -10.381  19.140  68.211  1.00  0.00    -0.448 A  
HETATM   23  C   UNL     1     -10.269  17.767  68.446  1.00  0.00    -0.384 A  
ENDBRANCH  16  18
ENDBRANCH  11  16
ENDBRANCH   6   7
ENDBRANCH   4   6
TORSDOF 4
ENDMDL
MODEL       52
REMARK 921   NORMALIZED FREE ENERGY PREDICTED BY IDOCK:   -5.57 KCAL/MOL
REMARK 922        TOTAL FREE ENERGY PREDICTED BY IDOCK:   -7.58 KCAL/MOL
REMARK 923 INTER-LIGAND FREE ENERGY PREDICTED BY IDOCK:   -7.71 KCAL/MOL
REMARK 924 INTRA-LIGAND FREE ENERGY PREDICTED BY IDOCK:    0.13 KCAL/MOL
REMARK 927      BINDING AFFINITY PREDICTED BY RF-SCORE:    0.00 PKD
ROOT
HETATM    1  N   UNL     1     -12.869   7.140  70.923  1.00  0.00    -0.585 N  
HETATM    2  H2  UNL     1     -13.623   6.513  70.642  1.00  0.00     0.000 HD 
HETATM    3  H1  UNL     1     -11.906   6.911  70.675  1.00  0.00     0.000 HD 
HETATM    4  C   UNL     1     -13.163   8.272  71.627  1.00  0.00    -0.328 C  
HETATM    5  O   UNL     1     -14.318   8.548  71.925  1.00  0.00    -0.433 OA 
ENDROOT
BRANCH   4   6
HETATM    6  C   UNL     1     -11.980   9.136  71.997  1.00  0.00    -0.421 C  
BRANCH   6   7
HETATM    7  C   UNL     1     -11.600  10.103  70.897  1.00  0.00    -0.459 A  
HETATM    8  C   UNL     1     -10.575   9.722  70.012  1.00  0.00    -0.320 A  
HETATM    9  C   UNL     1     -10.160  10.570  68.995  1.00  0.00    -0.230 A  
HETATM   10  C   UNL     1     -10.718  11.837  68.892  1.00  0.00    -0.241 A  
HETATM   11  C   UNL     1     -11.695  12.268  69.806  1.00  0.00    -0.368 A  
HETATM   12  C   UNL     1     -12.241  11.353  70.737  1.00  0.00    -0.376 A  
HETATM   13  H2  UNL     1     -12.880  11.685  72.590  1.00  0.00     0.000 HD 
HETATM   14  N   UNL     1     -13.254  11.740  71.643  1.00  0.00    -0.363 NA 
HETATM   15  H1  UNL     1     -13.716  12.642  71.527  1.00  0.00     0.000 HD 
BRANCH  11  16
HETATM   16  C   UNL     1     -12.155  13.693  69.742  1.00  0.00    -0.334 C  
HETATM   17  O   UNL     1     -12.238  14.272  68.665  1.00  0.00    -0.291 OA 
BRANCH  16  18
HETATM   18  C   UNL     1     -12.475  14.433  71.010  1.00  0.00    -0.425 A  
HETATM   19  C   UNL     1     -11.468  14.903  71.870  1.00  0.00    -0.251 A  
HETATM   20  C   UNL     1     -11.789  15.740  72.941  1.00  0.00    -0.568 A  
HETATM   21  C   UNL     1     -13.120  16.073  73.189  1.00  0.00    -0.631 A  
HETATM   22  C   UNL     1     -14.131  15.543  72.386  1.00  0.00    -0.627 A  
HETATM   23  C   UNL     1     -13.811  14.719  71.303  1.00  0.00    -0.460 A  
ENDBRANCH  16  18
ENDBRANCH  11  16
ENDBRANCH   6   7
ENDBRANCH   4   6
TORSDOF 4
ENDMDL
MODEL       53
REMARK 921   NORMALIZED FREE ENERGY PREDICTED BY IDOCK:   -5.56 KCAL/MOL
REMARK 922        TOTAL FREE ENERGY PREDICTED BY IDOCK:   -7.56 KCAL/MOL
REMARK 923 INTER-LIGAND FREE ENERGY PREDICTED BY IDOCK:   -7.35 KCAL/MOL
REMARK 924 INTRA-LIGAND FREE ENERGY PREDICTED BY IDOCK:   -0.22 KCAL/MOL
REMARK 927      BINDING AFFINITY PREDICTED BY RF-SCORE:    0.00 PKD
ROOT
HETATM    1  N   UNL     1      -9.777  10.031  64.224  1.00  0.00    -0.385 N  
HETATM    2  H2  UNL     1      -8.940   9.494  64.000  1.00  0.00     0.000 HD 
HETATM    3  H1  UNL     1     -10.512  10.133  63.523  1.00  0.00     0.000 HD 
HETATM    4  C   UNL     1      -9.899  10.604  65.457  1.00  0.00    -0.258 C  
HETATM    5  O   UNL     1      -9.018  10.481  66.299  1.00  0.00    -0.151 OA 
ENDROOT
BRANCH   4   6
HETATM    6  C   UNL     1     -11.174  11.379  65.695  1.00  0.00    -0.144 C  
BRANCH   6   7
HETATM    7  C   UNL     1     -11.331  11.809  67.137  1.00  0.00    -0.387 A  
HETATM    8  C   UNL     1     -11.491  10.802  68.108  1.00  0.00    -0.346 A  
HETATM    9  C   UNL     1     -11.664  11.125  69.447  1.00  0.00    -0.402 A  
HETATM   10  C   UNL     1     -11.749  12.460  69.822  1.00  0.00    -0.361 A  
HETATM   11  C   UNL     1     -11.662  13.482  68.861  1.00  0.00    -0.379 A  
HETATM   12  C   UNL     1     -11.318  13.167  67.526  1.00  0.00    -0.298 A  
HETATM   13  H2  UNL     1     -11.909  14.043  65.841  1.00  0.00     0.000 HD 
HETATM   14  N   UNL     1     -11.181  14.173  66.543  1.00  0.00    -0.322 NA 
HETATM   15  H1  UNL     1     -11.171  15.154  66.824  1.00  0.00     0.000 HD 
BRANCH  11  16
HETATM   16  C   UNL     1     -11.908  14.895  69.297  1.00  0.00    -0.318 C  
HETATM   17  O   UNL     1     -11.720  15.827  68.522  1.00  0.00    -0.383 OA 
BRANCH  16  18
HETATM   18  C   UNL     1     -12.346  15.178  70.706  1.00  0.00    -0.415 A  
HETATM   19  C   UNL     1     -11.494  15.792  71.639  1.00  0.00    -0.495 A  
HETATM   20  C   UNL     1     -11.987  16.203  72.880  1.00  0.00    -0.623 A  
HETATM   21  C   UNL     1     -13.318  15.961  73.215  1.00  0.00    -0.660 A  
HETATM   22  C   UNL     1     -14.147  15.279  72.324  1.00  0.00    -0.651 A  
HETATM   23  C   UNL     1     -13.661  14.881  71.074  1.00  0.00    -0.367 A  
ENDBRANCH  16  18
ENDBRANCH  11  16
ENDBRANCH   6   7
ENDBRANCH   4   6
TORSDOF 4
ENDMDL
MODEL       54
REMARK 921   NORMALIZED FREE ENERGY PREDICTED BY IDOCK:   -5.54 KCAL/MOL
REMARK 922        TOTAL FREE ENERGY PREDICTED BY IDOCK:   -7.54 KCAL/MOL
REMARK 923 INTER-LIGAND FREE ENERGY PREDICTED BY IDOCK:   -6.76 KCAL/MOL
REMARK 924 INTRA-LIGAND FREE ENERGY PREDICTED BY IDOCK:   -0.78 KCAL/MOL
REMARK 927      BINDING AFFINITY PREDICTED BY RF-SCORE:    0.00 PKD
ROOT
HETATM    1  N   UNL     1     -13.663  13.620  72.281  1.00  0.00    -0.545 N  
HETATM    2  H2  UNL     1     -14.323  14.155  72.845  1.00  0.00     0.000 HD 
HETATM    3  H1  UNL     1     -13.432  12.663  72.550  1.00  0.00     0.000 HD 
HETATM    4  C   UNL     1     -13.100  14.195  71.178  1.00  0.00    -0.328 C  
HETATM    5  O   UNL     1     -13.376  15.343  70.855  1.00  0.00    -0.471 OA 
ENDROOT
BRANCH   4   6
HETATM    6  C   UNL     1     -12.135  13.324  70.408  1.00  0.00    -0.401 C  
BRANCH   6   7
HETATM    7  C   UNL     1     -11.696  13.955  69.105  1.00  0.00    -0.382 A  
HETATM    8  C   UNL     1     -12.286  13.485  67.916  1.00  0.00    -0.168 A  
HETATM    9  C   UNL     1     -11.913  14.002  66.684  1.00  0.00    -0.473 A  
HETATM   10  C   UNL     1     -10.898  14.948  66.618  1.00  0.00    -0.319 A  
HETATM   11  C   UNL     1     -10.246  15.383  67.785  1.00  0.00    -0.241 A  
HETATM   12  C   UNL     1     -10.732  14.988  69.053  1.00  0.00    -0.239 A  
HETATM   13  H2  UNL     1      -9.720  14.638  70.728  1.00  0.00     0.000 HD 
HETATM   14  N   UNL     1     -10.128  15.440  70.247  1.00  0.00    -0.448 NA 
HETATM   15  H1  UNL     1      -9.432  16.185  70.210  1.00  0.00     0.000 HD 
BRANCH  11  16
HETATM   16  C   UNL     1      -9.061  16.290  67.645  1.00  0.00    -0.194 C  
HETATM   17  O   UNL     1      -7.924  15.852  67.780  1.00  0.00    -0.134 OA 
BRANCH  16  18
HETATM   18  C   UNL     1      -9.267  17.755  67.383  1.00  0.00    -0.248 A  
HETATM   19  C   UNL     1     -10.336  18.468  67.952  1.00  0.00    -0.424 A  
HETATM   20  C   UNL     1     -10.398  19.858  67.836  1.00  0.00    -0.545 A  
HETATM   21  C   UNL     1      -9.422  20.540  67.112  1.00  0.00    -0.544 A  
HETATM   22  C   UNL     1      -8.403  19.828  66.477  1.00  0.00    -0.373 A  
HETATM   23  C   UNL     1      -8.328  18.438  66.605  1.00  0.00    -0.280 A  
ENDBRANCH  16  18
ENDBRANCH  11  16
ENDBRANCH   6   7
ENDBRANCH   4   6
TORSDOF 4
ENDMDL
MODEL       55
REMARK 921   NORMALIZED FREE ENERGY PREDICTED BY IDOCK:   -5.50 KCAL/MOL
REMARK 922        TOTAL FREE ENERGY PREDICTED BY IDOCK:   -7.49 KCAL/MOL
REMARK 923 INTER-LIGAND FREE ENERGY PREDICTED BY IDOCK:   -7.05 KCAL/MOL
REMARK 924 INTRA-LIGAND FREE ENERGY PREDICTED BY IDOCK:   -0.44 KCAL/MOL
REMARK 927      BINDING AFFINITY PREDICTED BY RF-SCORE:    0.00 PKD
ROOT
HETATM    1  N   UNL     1     -11.839  14.214  64.019  1.00  0.00    -0.663 N  
HETATM    2  H2  UNL     1     -12.493  14.236  63.237  1.00  0.00     0.000 HD 
HETATM    3  H1  UNL     1     -10.837  14.279  63.838  1.00  0.00     0.000 HD 
HETATM    4  C   UNL     1     -12.317  14.096  65.292  1.00  0.00    -0.460 C  
HETATM    5  O   UNL     1     -13.519  14.017  65.510  1.00  0.00    -0.677 OA 
ENDROOT
BRANCH   4   6
HETATM    6  C   UNL     1     -11.271  14.072  66.383  1.00  0.00    -0.321 C  
BRANCH   6   7
HETATM    7  C   UNL     1     -11.095  12.696  66.988  1.00  0.00    -0.322 A  
HETATM    8  C   UNL     1     -10.574  11.679  66.166  1.00  0.00    -0.306 A  
HETATM    9  C   UNL     1     -10.409  10.388  66.649  1.00  0.00    -0.292 A  
HETATM   10  C   UNL     1     -10.826  10.083  67.938  1.00  0.00    -0.323 A  
HETATM   11  C   UNL     1     -11.414  11.065  68.754  1.00  0.00    -0.372 A  
HETATM   12  C   UNL     1     -11.431  12.415  68.332  1.00  0.00    -0.310 A  
HETATM   13  H2  UNL     1     -12.796  13.818  68.678  1.00  0.00     0.000 HD 
HETATM   14  N   UNL     1     -11.974  13.434  69.144  1.00  0.00    -0.327 NA 
HETATM   15  H1  UNL     1     -12.216  13.231  70.114  1.00  0.00     0.000 HD 
BRANCH  11  16
HETATM   16  C   UNL     1     -11.981  10.648  70.078  1.00  0.00    -0.329 C  
HETATM   17  O   UNL     1     -13.072  11.069  70.447  1.00  0.00    -0.127 OA 
BRANCH  16  18
HETATM   18  C   UNL     1     -11.189   9.744  70.980  1.00  0.00    -0.451 A  
HETATM   19  C   UNL     1     -11.797   9.003  72.006  1.00  0.00    -0.426 A  
HETATM   20  C   UNL     1     -11.067   8.040  72.707  1.00  0.00    -0.448 A  
HETATM   21  C   UNL     1      -9.717   7.845  72.421  1.00  0.00    -0.275 A  
HETATM   22  C   UNL     1      -9.089   8.635  71.457  1.00  0.00    -0.308 A  
HETATM   23  C   UNL     1      -9.820   9.589  70.743  1.00  0.00    -0.309 A  
ENDBRANCH  16  18
ENDBRANCH  11  16
ENDBRANCH   6   7
ENDBRANCH   4   6
TORSDOF 4
ENDMDL
MODEL       56
REMARK 921   NORMALIZED FREE ENERGY PREDICTED BY IDOCK:   -5.49 KCAL/MOL
REMARK 922        TOTAL FREE ENERGY PREDICTED BY IDOCK:   -7.49 KCAL/MOL
REMARK 923 INTER-LIGAND FREE ENERGY PREDICTED BY IDOCK:   -6.91 KCAL/MOL
REMARK 924 INTRA-LIGAND FREE ENERGY PREDICTED BY IDOCK:   -0.58 KCAL/MOL
REMARK 927      BINDING AFFINITY PREDICTED BY RF-SCORE:    0.00 PKD
ROOT
HETATM    1  N   UNL     1     -12.308  14.141  63.848  1.00  0.00    -0.932 N  
HETATM    2  H2  UNL     1     -12.770  14.225  62.942  1.00  0.00     0.000 HD 
HETATM    3  H1  UNL     1     -11.700  14.894  64.174  1.00  0.00     0.000 HD 
HETATM    4  C   UNL     1     -12.512  13.025  64.606  1.00  0.00    -0.400 C  
HETATM    5  O   UNL     1     -13.241  12.122  64.216  1.00  0.00    -0.768 OA 
ENDROOT
BRANCH   4   6
HETATM    6  C   UNL     1     -11.786  12.993  65.931  1.00  0.00    -0.442 C  
BRANCH   6   7
HETATM    7  C   UNL     1     -10.848  11.811  66.050  1.00  0.00    -0.343 A  
HETATM    8  C   UNL     1      -9.834  11.678  65.084  1.00  0.00    -0.281 A  
HETATM    9  C   UNL     1      -8.954  10.606  65.119  1.00  0.00    -0.217 A  
HETATM   10  C   UNL     1      -9.120   9.617  66.081  1.00  0.00    -0.201 A  
HETATM   11  C   UNL     1     -10.168   9.692  67.013  1.00  0.00    -0.308 A  
HETATM   12  C   UNL     1     -10.962  10.860  67.090  1.00  0.00    -0.272 A  
HETATM   13  H2  UNL     1     -12.888  11.038  67.550  1.00  0.00     0.000 HD 
HETATM   14  N   UNL     1     -11.996  10.987  68.043  1.00  0.00    -0.761 NA 
HETATM   15  H1  UNL     1     -12.078  10.301  68.793  1.00  0.00     0.000 HD 
BRANCH  11  16
HETATM   16  C   UNL     1     -10.393   8.528  67.931  1.00  0.00    -0.223 C  
HETATM   17  O   UNL     1     -10.875   7.485  67.505  1.00  0.00    -0.233 OA 
BRANCH  16  18
HETATM   18  C   UNL     1     -10.066   8.654  69.393  1.00  0.00    -0.204 A  
HETATM   19  C   UNL     1     -11.051   8.530  70.387  1.00  0.00    -0.246 A  
HETATM   20  C   UNL     1     -10.689   8.472  71.734  1.00  0.00    -0.373 A  
HETATM   21  C   UNL     1      -9.349   8.586  72.100  1.00  0.00    -0.353 A  
HETATM   22  C   UNL     1      -8.375   8.790  71.122  1.00  0.00    -0.219 A  
HETATM   23  C   UNL     1      -8.732   8.831  69.771  1.00  0.00    -0.133 A  
ENDBRANCH  16  18
ENDBRANCH  11  16
ENDBRANCH   6   7
ENDBRANCH   4   6
TORSDOF 4
ENDMDL
MODEL       57
REMARK 921   NORMALIZED FREE ENERGY PREDICTED BY IDOCK:   -5.49 KCAL/MOL
REMARK 922        TOTAL FREE ENERGY PREDICTED BY IDOCK:   -7.48 KCAL/MOL
REMARK 923 INTER-LIGAND FREE ENERGY PREDICTED BY IDOCK:   -6.75 KCAL/MOL
REMARK 924 INTRA-LIGAND FREE ENERGY PREDICTED BY IDOCK:   -0.72 KCAL/MOL
REMARK 927      BINDING AFFINITY PREDICTED BY RF-SCORE:    0.00 PKD
ROOT
HETATM    1  N   UNL     1     -10.356  15.647  65.368  1.00  0.00    -0.381 N  
HETATM    2  H2  UNL     1      -9.690  16.413  65.467  1.00  0.00     0.000 HD 
HETATM    3  H1  UNL     1     -10.208  14.781  65.887  1.00  0.00     0.000 HD 
HETATM    4  C   UNL     1     -11.433  15.795  64.541  1.00  0.00    -0.289 C  
HETATM    5  O   UNL     1     -11.611  16.833  63.917  1.00  0.00    -1.122 OA 
ENDROOT
BRANCH   4   6
HETATM    6  C   UNL     1     -12.362  14.606  64.460  1.00  0.00    -0.416 C  
BRANCH   6   7
HETATM    7  C   UNL     1     -11.675  13.307  64.822  1.00  0.00    -0.390 A  
HETATM    8  C   UNL     1     -11.084  12.566  63.782  1.00  0.00    -0.503 A  
HETATM    9  C   UNL     1     -10.458  11.354  64.039  1.00  0.00    -0.435 A  
HETATM   10  C   UNL     1     -10.475  10.835  65.327  1.00  0.00    -0.282 A  
HETATM   11  C   UNL     1     -11.120  11.524  66.369  1.00  0.00    -0.328 A  
HETATM   12  C   UNL     1     -11.611  12.833  66.152  1.00  0.00    -0.379 A  
HETATM   13  H2  UNL     1     -13.205  13.719  66.943  1.00  0.00     0.000 HD 
HETATM   14  N   UNL     1     -12.226  13.570  67.187  1.00  0.00    -0.332 NA 
HETATM   15  H1  UNL     1     -12.179  13.228  68.147  1.00  0.00     0.000 HD 
BRANCH  11  16
HETATM   16  C   UNL     1     -11.238  10.852  67.704  1.00  0.00    -0.309 C  
HETATM   17  O   UNL     1     -12.213  11.058  68.419  1.00  0.00    -0.586 OA 
BRANCH  16  18
HETATM   18  C   UNL     1     -10.135   9.955  68.190  1.00  0.00    -0.193 A  
HETATM   19  C   UNL     1      -8.961  10.468  68.766  1.00  0.00    -0.166 A  
HETATM   20  C   UNL     1      -8.039   9.610  69.369  1.00  0.00    -0.118 A  
HETATM   21  C   UNL     1      -8.259   8.233  69.359  1.00  0.00    -0.117 A  
HETATM   22  C   UNL     1      -9.384   7.713  68.717  1.00  0.00    -0.148 A  
HETATM   23  C   UNL     1     -10.317   8.570  68.127  1.00  0.00    -0.258 A  
ENDBRANCH  16  18
ENDBRANCH  11  16
ENDBRANCH   6   7
ENDBRANCH   4   6
TORSDOF 4
ENDMDL
MODEL       58
REMARK 921   NORMALIZED FREE ENERGY PREDICTED BY IDOCK:   -5.46 KCAL/MOL
REMARK 922        TOTAL FREE ENERGY PREDICTED BY IDOCK:   -7.45 KCAL/MOL
REMARK 923 INTER-LIGAND FREE ENERGY PREDICTED BY IDOCK:   -6.39 KCAL/MOL
REMARK 924 INTRA-LIGAND FREE ENERGY PREDICTED BY IDOCK:   -1.05 KCAL/MOL
REMARK 927      BINDING AFFINITY PREDICTED BY RF-SCORE:    0.00 PKD
ROOT
HETATM    1  N   UNL     1      -9.779  10.317  69.881  1.00  0.00    -0.412 N  
HETATM    2  H2  UNL     1      -8.900   9.935  70.231  1.00  0.00     0.000 HD 
HETATM    3  H1  UNL     1      -9.787  10.836  69.003  1.00  0.00     0.000 HD 
HETATM    4  C   UNL     1     -10.927  10.127  70.596  1.00  0.00    -0.285 C  
HETATM    5  O   UNL     1     -10.918   9.504  71.649  1.00  0.00    -0.362 OA 
ENDROOT
BRANCH   4   6
HETATM    6  C   UNL     1     -12.176  10.730  69.997  1.00  0.00    -0.409 C  
BRANCH   6   7
HETATM    7  C   UNL     1     -12.033  12.213  69.728  1.00  0.00    -0.372 A  
HETATM    8  C   UNL     1     -12.276  13.099  70.793  1.00  0.00    -0.375 A  
HETATM    9  C   UNL     1     -12.187  14.472  70.612  1.00  0.00    -0.401 A  
HETATM   10  C   UNL     1     -11.920  14.978  69.346  1.00  0.00    -0.336 A  
HETATM   11  C   UNL     1     -11.742  14.115  68.251  1.00  0.00    -0.383 A  
HETATM   12  C   UNL     1     -11.665  12.718  68.460  1.00  0.00    -0.333 A  
HETATM   13  H2  UNL     1     -12.273  11.239  67.278  1.00  0.00     0.000 HD 
HETATM   14  N   UNL     1     -11.444  11.823  67.389  1.00  0.00    -0.430 NA 
HETATM   15  H1  UNL     1     -11.178  12.188  66.474  1.00  0.00     0.000 HD 
BRANCH  11  16
HETATM   16  C   UNL     1     -11.605  14.713  66.884  1.00  0.00    -0.362 C  
HETATM   17  O   UNL     1     -12.403  14.428  65.998  1.00  0.00    -0.394 OA 
BRANCH  16  18
HETATM   18  C   UNL     1     -10.456  15.634  66.582  1.00  0.00    -0.301 A  
HETATM   19  C   UNL     1     -10.637  17.019  66.426  1.00  0.00    -0.172 A  
HETATM   20  C   UNL     1      -9.532  17.867  66.327  1.00  0.00    -0.234 A  
HETATM   21  C   UNL     1      -8.244  17.335  66.334  1.00  0.00    -0.317 A  
HETATM   22  C   UNL     1      -8.062  15.953  66.407  1.00  0.00    -0.197 A  
HETATM   23  C   UNL     1      -9.165  15.103  66.524  1.00  0.00    -0.318 A  
ENDBRANCH  16  18
ENDBRANCH  11  16
ENDBRANCH   6   7
ENDBRANCH   4   6
TORSDOF 4
ENDMDL
MODEL       59
REMARK 921   NORMALIZED FREE ENERGY PREDICTED BY IDOCK:   -5.46 KCAL/MOL
REMARK 922        TOTAL FREE ENERGY PREDICTED BY IDOCK:   -7.44 KCAL/MOL
REMARK 923 INTER-LIGAND FREE ENERGY PREDICTED BY IDOCK:   -6.64 KCAL/MOL
REMARK 924 INTRA-LIGAND FREE ENERGY PREDICTED BY IDOCK:   -0.80 KCAL/MOL
REMARK 927      BINDING AFFINITY PREDICTED BY RF-SCORE:    0.00 PKD
ROOT
HETATM    1  N   UNL     1     -10.730  14.963  64.732  1.00  0.00    -0.573 N  
HETATM    2  H2  UNL     1     -10.434  15.867  64.363  1.00  0.00     0.000 HD 
HETATM    3  H1  UNL     1     -10.071  14.398  65.269  1.00  0.00     0.000 HD 
HETATM    4  C   UNL     1     -12.003  14.526  64.500  1.00  0.00    -0.468 C  
HETATM    5  O   UNL     1     -12.794  15.203  63.856  1.00  0.00    -0.671 OA 
ENDROOT
BRANCH   4   6
HETATM    6  C   UNL     1     -12.348  13.177  65.087  1.00  0.00    -0.525 C  
BRANCH   6   7
HETATM    7  C   UNL     1     -11.281  12.138  64.818  1.00  0.00    -0.373 A  
HETATM    8  C   UNL     1     -10.961  11.858  63.476  1.00  0.00    -0.505 A  
HETATM    9  C   UNL     1     -10.010  10.899  63.156  1.00  0.00    -0.368 A  
HETATM   10  C   UNL     1      -9.416  10.161  64.172  1.00  0.00    -0.353 A  
HETATM   11  C   UNL     1      -9.769  10.374  65.515  1.00  0.00    -0.307 A  
HETATM   12  C   UNL     1     -10.609  11.460  65.860  1.00  0.00    -0.263 A  
HETATM   13  H2  UNL     1     -11.954  11.588  67.318  1.00  0.00     0.000 HD 
HETATM   14  N   UNL     1     -10.951  11.729  67.203  1.00  0.00    -0.260 NA 
HETATM   15  H1  UNL     1     -10.465  11.240  67.955  1.00  0.00     0.000 HD 
BRANCH  11  16
HETATM   16  C   UNL     1      -9.211   9.452  66.557  1.00  0.00    -0.159 C  
HETATM   17  O   UNL     1      -8.430   9.871  67.404  1.00  0.00    -0.118 OA 
BRANCH  16  18
HETATM   18  C   UNL     1      -9.574   7.994  66.537  1.00  0.00    -0.295 A  
HETATM   19  C   UNL     1      -8.733   7.028  65.961  1.00  0.00    -0.156 A  
HETATM   20  C   UNL     1      -9.011   5.668  66.117  1.00  0.00    -0.153 A  
HETATM   21  C   UNL     1     -10.154   5.266  66.807  1.00  0.00    -0.255 A  
HETATM   22  C   UNL     1     -11.034   6.224  67.311  1.00  0.00    -0.455 A  
HETATM   23  C   UNL     1     -10.750   7.585  67.171  1.00  0.00    -0.379 A  
ENDBRANCH  16  18
ENDBRANCH  11  16
ENDBRANCH   6   7
ENDBRANCH   4   6
TORSDOF 4
ENDMDL
MODEL       60
REMARK 921   NORMALIZED FREE ENERGY PREDICTED BY IDOCK:   -5.44 KCAL/MOL
REMARK 922        TOTAL FREE ENERGY PREDICTED BY IDOCK:   -7.42 KCAL/MOL
REMARK 923 INTER-LIGAND FREE ENERGY PREDICTED BY IDOCK:   -6.65 KCAL/MOL
REMARK 924 INTRA-LIGAND FREE ENERGY PREDICTED BY IDOCK:   -0.77 KCAL/MOL
REMARK 927      BINDING AFFINITY PREDICTED BY RF-SCORE:    0.00 PKD
ROOT
HETATM    1  N   UNL     1      -8.469   8.158  62.980  1.00  0.00    -0.404 N  
HETATM    2  H2  UNL     1      -7.651   7.554  63.067  1.00  0.00     0.000 HD 
HETATM    3  H1  UNL     1      -9.368   7.752  62.719  1.00  0.00     0.000 HD 
HETATM    4  C   UNL     1      -8.343   9.497  63.214  1.00  0.00    -0.181 C  
HETATM    5  O   UNL     1      -7.264   9.984  63.527  1.00  0.00    -0.131 OA 
ENDROOT
BRANCH   4   6
HETATM    6  C   UNL     1      -9.608  10.308  63.060  1.00  0.00    -0.297 C  
BRANCH   6   7
HETATM    7  C   UNL     1     -10.135  10.819  64.383  1.00  0.00    -0.419 A  
HETATM    8  C   UNL     1     -10.099   9.945  65.486  1.00  0.00    -0.297 A  
HETATM    9  C   UNL     1     -10.587  10.339  66.723  1.00  0.00    -0.252 A  
HETATM   10  C   UNL     1     -11.179  11.588  66.858  1.00  0.00    -0.363 A  
HETATM   11  C   UNL     1     -11.289  12.453  65.755  1.00  0.00    -0.393 A  
HETATM   12  C   UNL     1     -10.646  12.127  64.538  1.00  0.00    -0.310 A  
HETATM   13  H2  UNL     1     -11.217  12.528  62.675  1.00  0.00     0.000 HD 
HETATM   14  N   UNL     1     -10.700  12.992  63.422  1.00  0.00    -0.452 NA 
HETATM   15  H1  UNL     1     -11.069  13.937  63.533  1.00  0.00     0.000 HD 
BRANCH  11  16
HETATM   16  C   UNL     1     -12.067  13.724  65.918  1.00  0.00    -0.433 C  
HETATM   17  O   UNL     1     -13.144  13.870  65.351  1.00  0.00    -0.752 OA 
BRANCH  16  18
HETATM   18  C   UNL     1     -11.504  14.844  66.746  1.00  0.00    -0.304 A  
HETATM   19  C   UNL     1     -10.659  15.822  66.194  1.00  0.00    -0.318 A  
HETATM   20  C   UNL     1     -10.300  16.946  66.941  1.00  0.00    -0.304 A  
HETATM   21  C   UNL     1     -10.740  17.077  68.257  1.00  0.00    -0.372 A  
HETATM   22  C   UNL     1     -11.513  16.069  68.835  1.00  0.00    -0.362 A  
HETATM   23  C   UNL     1     -11.888  14.951  68.085  1.00  0.00    -0.307 A  
ENDBRANCH  16  18
ENDBRANCH  11  16
ENDBRANCH   6   7
ENDBRANCH   4   6
TORSDOF 4
ENDMDL
MODEL       61
REMARK 921   NORMALIZED FREE ENERGY PREDICTED BY IDOCK:   -5.44 KCAL/MOL
REMARK 922        TOTAL FREE ENERGY PREDICTED BY IDOCK:   -7.42 KCAL/MOL
REMARK 923 INTER-LIGAND FREE ENERGY PREDICTED BY IDOCK:   -6.40 KCAL/MOL
REMARK 924 INTRA-LIGAND FREE ENERGY PREDICTED BY IDOCK:   -1.02 KCAL/MOL
REMARK 927      BINDING AFFINITY PREDICTED BY RF-SCORE:    0.00 PKD
ROOT
HETATM    1  N   UNL     1     -10.362  10.414  67.473  1.00  0.00    -0.209 N  
HETATM    2  H2  UNL     1     -10.388  10.079  66.510  1.00  0.00     0.000 HD 
HETATM    3  H1  UNL     1      -9.662  10.042  68.116  1.00  0.00     0.000 HD 
HETATM    4  C   UNL     1     -11.265  11.352  67.883  1.00  0.00    -0.288 C  
HETATM    5  O   UNL     1     -12.104  11.799  67.112  1.00  0.00    -0.592 OA 
ENDROOT
BRANCH   4   6
HETATM    6  C   UNL     1     -11.147  11.785  69.326  1.00  0.00    -0.278 C  
BRANCH   6   7
HETATM    7  C   UNL     1     -11.445  10.661  70.295  1.00  0.00    -0.422 A  
HETATM    8  C   UNL     1     -12.774  10.504  70.729  1.00  0.00    -0.471 A  
HETATM    9  C   UNL     1     -13.114   9.510  71.635  1.00  0.00    -0.486 A  
HETATM   10  C   UNL     1     -12.118   8.704  72.171  1.00  0.00    -0.451 A  
HETATM   11  C   UNL     1     -10.773   8.887  71.806  1.00  0.00    -0.432 A  
HETATM   12  C   UNL     1     -10.442   9.781  70.761  1.00  0.00    -0.269 A  
HETATM   13  H2  UNL     1      -8.822  10.915  70.551  1.00  0.00     0.000 HD 
HETATM   14  N   UNL     1      -9.106   9.958  70.339  1.00  0.00    -0.350 NA 
HETATM   15  H1  UNL     1      -8.382   9.323  70.676  1.00  0.00     0.000 HD 
BRANCH  11  16
HETATM   16  C   UNL     1      -9.724   8.092  72.522  1.00  0.00    -0.258 C  
HETATM   17  O   UNL     1      -8.685   8.627  72.895  1.00  0.00    -0.384 OA 
BRANCH  16  18
HETATM   18  C   UNL     1      -9.924   6.620  72.748  1.00  0.00    -0.187 A  
HETATM   19  C   UNL     1     -10.275   6.103  74.007  1.00  0.00    -0.309 A  
HETATM   20  C   UNL     1     -10.629   4.759  74.143  1.00  0.00    -0.351 A  
HETATM   21  C   UNL     1     -10.589   3.913  73.036  1.00  0.00    -0.254 A  
HETATM   22  C   UNL     1     -10.164   4.404  71.801  1.00  0.00    -0.201 A  
HETATM   23  C   UNL     1      -9.825   5.752  71.657  1.00  0.00    -0.205 A  
ENDBRANCH  16  18
ENDBRANCH  11  16
ENDBRANCH   6   7
ENDBRANCH   4   6
TORSDOF 4
ENDMDL
MODEL       62
REMARK 921   NORMALIZED FREE ENERGY PREDICTED BY IDOCK:   -5.43 KCAL/MOL
REMARK 922        TOTAL FREE ENERGY PREDICTED BY IDOCK:   -7.41 KCAL/MOL
REMARK 923 INTER-LIGAND FREE ENERGY PREDICTED BY IDOCK:   -6.35 KCAL/MOL
REMARK 924 INTRA-LIGAND FREE ENERGY PREDICTED BY IDOCK:   -1.06 KCAL/MOL
REMARK 927      BINDING AFFINITY PREDICTED BY RF-SCORE:    0.00 PKD
ROOT
HETATM    1  N   UNL     1      -9.799  20.211  65.839  1.00  0.00    -0.591 N  
HETATM    2  H2  UNL     1     -10.012  20.261  64.843  1.00  0.00     0.000 HD 
HETATM    3  H1  UNL     1     -10.519  20.454  66.520  1.00  0.00     0.000 HD 
HETATM    4  C   UNL     1      -8.554  19.821  66.241  1.00  0.00    -0.364 C  
HETATM    5  O   UNL     1      -7.690  19.530  65.425  1.00  0.00    -0.378 OA 
ENDROOT
BRANCH   4   6
HETATM    6  C   UNL     1      -8.334  19.778  67.736  1.00  0.00    -0.344 C  
BRANCH   6   7
HETATM    7  C   UNL     1      -8.440  18.377  68.297  1.00  0.00    -0.321 A  
HETATM    8  C   UNL     1      -7.245  17.685  68.567  1.00  0.00    -0.242 A  
HETATM    9  C   UNL     1      -7.268  16.389  69.060  1.00  0.00    -0.215 A  
HETATM   10  C   UNL     1      -8.486  15.742  69.226  1.00  0.00    -0.258 A  
HETATM   11  C   UNL     1      -9.691  16.388  68.898  1.00  0.00    -0.257 A  
HETATM   12  C   UNL     1      -9.685  17.760  68.557  1.00  0.00    -0.343 A  
HETATM   13  H2  UNL     1     -10.859  18.738  67.284  1.00  0.00     0.000 HD 
HETATM   14  N   UNL     1     -10.882  18.451  68.263  1.00  0.00    -0.264 NA 
HETATM   15  H1  UNL     1     -11.781  18.006  68.450  1.00  0.00     0.000 HD 
BRANCH  11  16
HETATM   16  C   UNL     1     -10.963  15.597  68.955  1.00  0.00    -0.266 C  
HETATM   17  O   UNL     1     -11.821  15.859  69.790  1.00  0.00    -0.336 OA 
BRANCH  16  18
HETATM   18  C   UNL     1     -11.171  14.446  68.011  1.00  0.00    -0.298 A  
HETATM   19  C   UNL     1     -11.012  13.112  68.421  1.00  0.00    -0.287 A  
HETATM   20  C   UNL     1     -11.386  12.065  67.576  1.00  0.00    -0.387 A  
HETATM   21  C   UNL     1     -11.875  12.342  66.300  1.00  0.00    -0.387 A  
HETATM   22  C   UNL     1     -11.959  13.663  65.859  1.00  0.00    -0.438 A  
HETATM   23  C   UNL     1     -11.601  14.714  66.709  1.00  0.00    -0.370 A  
ENDBRANCH  16  18
ENDBRANCH  11  16
ENDBRANCH   6   7
ENDBRANCH   4   6
TORSDOF 4
ENDMDL
MODEL       63
REMARK 921   NORMALIZED FREE ENERGY PREDICTED BY IDOCK:   -5.43 KCAL/MOL
REMARK 922        TOTAL FREE ENERGY PREDICTED BY IDOCK:   -7.41 KCAL/MOL
REMARK 923 INTER-LIGAND FREE ENERGY PREDICTED BY IDOCK:   -6.29 KCAL/MOL
REMARK 924 INTRA-LIGAND FREE ENERGY PREDICTED BY IDOCK:   -1.12 KCAL/MOL
REMARK 927      BINDING AFFINITY PREDICTED BY RF-SCORE:    0.00 PKD
ROOT
HETATM    1  N   UNL     1     -12.453   6.000  72.622  1.00  0.00    -0.487 N  
HETATM    2  H2  UNL     1     -13.110   6.030  73.402  1.00  0.00     0.000 HD 
HETATM    3  H1  UNL     1     -12.718   6.407  71.725  1.00  0.00     0.000 HD 
HETATM    4  C   UNL     1     -11.231   5.416  72.795  1.00  0.00    -0.300 C  
HETATM    5  O   UNL     1     -10.912   4.928  73.871  1.00  0.00    -0.303 OA 
ENDROOT
BRANCH   4   6
HETATM    6  C   UNL     1     -10.328   5.422  71.584  1.00  0.00    -0.280 C  
BRANCH   6   7
HETATM    7  C   UNL     1      -9.875   6.815  71.204  1.00  0.00    -0.188 A  
HETATM    8  C   UNL     1      -8.725   7.326  71.835  1.00  0.00    -0.124 A  
HETATM    9  C   UNL     1      -8.267   8.605  71.552  1.00  0.00    -0.209 A  
HETATM   10  C   UNL     1      -8.991   9.414  70.686  1.00  0.00    -0.285 A  
HETATM   11  C   UNL     1     -10.181   8.951  70.098  1.00  0.00    -0.218 A  
HETATM   12  C   UNL     1     -10.561   7.597  70.248  1.00  0.00    -0.230 A  
HETATM   13  H2  UNL     1     -12.386   6.816  70.366  1.00  0.00     0.000 HD 
HETATM   14  N   UNL     1     -11.728   7.087  69.636  1.00  0.00    -0.576 NA 
HETATM   15  H1  UNL     1     -12.223   7.653  68.946  1.00  0.00     0.000 HD 
BRANCH  11  16
HETATM   16  C   UNL     1     -11.001   9.913  69.292  1.00  0.00    -0.211 C  
HETATM   17  O   UNL     1     -11.035   9.828  68.069  1.00  0.00    -0.246 OA 
BRANCH  16  18
HETATM   18  C   UNL     1     -11.751  11.018  69.982  1.00  0.00    -0.437 A  
HETATM   19  C   UNL     1     -12.539  10.780  71.121  1.00  0.00    -0.532 A  
HETATM   20  C   UNL     1     -13.075  11.849  71.842  1.00  0.00    -0.474 A  
HETATM   21  C   UNL     1     -12.870  13.156  71.405  1.00  0.00    -0.401 A  
HETATM   22  C   UNL     1     -12.156  13.393  70.229  1.00  0.00    -0.419 A  
HETATM   23  C   UNL     1     -11.603  12.326  69.514  1.00  0.00    -0.366 A  
ENDBRANCH  16  18
ENDBRANCH  11  16
ENDBRANCH   6   7
ENDBRANCH   4   6
TORSDOF 4
ENDMDL
MODEL       64
REMARK 921   NORMALIZED FREE ENERGY PREDICTED BY IDOCK:   -5.42 KCAL/MOL
REMARK 922        TOTAL FREE ENERGY PREDICTED BY IDOCK:   -7.40 KCAL/MOL
REMARK 923 INTER-LIGAND FREE ENERGY PREDICTED BY IDOCK:   -6.47 KCAL/MOL
REMARK 924 INTRA-LIGAND FREE ENERGY PREDICTED BY IDOCK:   -0.93 KCAL/MOL
REMARK 927      BINDING AFFINITY PREDICTED BY RF-SCORE:    0.00 PKD
ROOT
HETATM    1  N   UNL     1      -9.712  16.406  65.792  1.00  0.00    -0.287 N  
HETATM    2  H2  UNL     1      -9.188  17.210  65.447  1.00  0.00     0.000 HD 
HETATM    3  H1  UNL     1      -9.349  15.870  66.581  1.00  0.00     0.000 HD 
HETATM    4  C   UNL     1     -10.889  16.062  65.191  1.00  0.00    -0.395 C  
HETATM    5  O   UNL     1     -11.325  16.704  64.245  1.00  0.00    -1.116 OA 
ENDROOT
BRANCH   4   6
HETATM    6  C   UNL     1     -11.591  14.857  65.773  1.00  0.00    -0.234 C  
BRANCH   6   7
HETATM    7  C   UNL     1     -11.313  13.591  64.992  1.00  0.00    -0.334 A  
HETATM    8  C   UNL     1     -12.238  13.215  64.001  1.00  0.00    -0.482 A  
HETATM    9  C   UNL     1     -12.059  12.053  63.263  1.00  0.00    -0.509 A  
HETATM   10  C   UNL     1     -10.988  11.217  63.555  1.00  0.00    -0.329 A  
HETATM   11  C   UNL     1     -10.090  11.536  64.588  1.00  0.00    -0.318 A  
HETATM   12  C   UNL     1     -10.169  12.795  65.227  1.00  0.00    -0.279 A  
HETATM   13  H2  UNL     1      -9.768  13.267  67.117  1.00  0.00     0.000 HD 
HETATM   14  N   UNL     1      -9.256  13.166  66.240  1.00  0.00    -0.456 NA 
HETATM   15  H1  UNL     1      -8.430  12.592  66.410  1.00  0.00     0.000 HD 
BRANCH  11  16
HETATM   16  C   UNL     1      -9.043  10.530  64.960  1.00  0.00    -0.201 C  
HETATM   17  O   UNL     1      -7.957  10.525  64.392  1.00  0.00    -0.121 OA 
BRANCH  16  18
HETATM   18  C   UNL     1      -9.340   9.492  66.005  1.00  0.00    -0.273 A  
HETATM   19  C   UNL     1     -10.177   9.761  67.101  1.00  0.00    -0.288 A  
HETATM   20  C   UNL     1     -10.577   8.729  67.953  1.00  0.00    -0.236 A  
HETATM   21  C   UNL     1     -10.107   7.434  67.745  1.00  0.00    -0.232 A  
HETATM   22  C   UNL     1      -9.211   7.177  66.706  1.00  0.00    -0.188 A  
HETATM   23  C   UNL     1      -8.822   8.205  65.842  1.00  0.00    -0.194 A  
ENDBRANCH  16  18
ENDBRANCH  11  16
ENDBRANCH   6   7
ENDBRANCH   4   6
TORSDOF 4
ENDMDL
MODEL       65
REMARK 921   NORMALIZED FREE ENERGY PREDICTED BY IDOCK:   -5.42 KCAL/MOL
REMARK 922        TOTAL FREE ENERGY PREDICTED BY IDOCK:   -7.40 KCAL/MOL
REMARK 923 INTER-LIGAND FREE ENERGY PREDICTED BY IDOCK:   -6.45 KCAL/MOL
REMARK 924 INTRA-LIGAND FREE ENERGY PREDICTED BY IDOCK:   -0.95 KCAL/MOL
REMARK 927      BINDING AFFINITY PREDICTED BY RF-SCORE:    0.00 PKD
ROOT
HETATM    1  N   UNL     1     -11.436  10.377  68.003  1.00  0.00    -0.484 N  
HETATM    2  H2  UNL     1     -12.117   9.625  67.891  1.00  0.00     0.000 HD 
HETATM    3  H1  UNL     1     -11.556  11.055  68.756  1.00  0.00     0.000 HD 
HETATM    4  C   UNL     1     -10.378  10.459  67.144  1.00  0.00    -0.238 C  
HETATM    5  O   UNL     1     -10.234   9.645  66.241  1.00  0.00    -0.260 OA 
ENDROOT
BRANCH   4   6
HETATM    6  C   UNL     1      -9.425  11.606  67.390  1.00  0.00    -0.171 C  
BRANCH   6   7
HETATM    7  C   UNL     1      -9.964  12.927  66.886  1.00  0.00    -0.238 A  
HETATM    8  C   UNL     1     -10.059  13.108  65.494  1.00  0.00    -0.271 A  
HETATM    9  C   UNL     1     -10.522  14.303  64.961  1.00  0.00    -0.458 A  
HETATM   10  C   UNL     1     -10.830  15.356  65.813  1.00  0.00    -0.349 A  
HETATM   11  C   UNL     1     -10.677  15.223  67.204  1.00  0.00    -0.316 A  
HETATM   12  C   UNL     1     -10.369  13.960  67.761  1.00  0.00    -0.240 A  
HETATM   13  H2  UNL     1      -9.282  13.534  69.371  1.00  0.00     0.000 HD 
HETATM   14  N   UNL     1     -10.249  13.780  69.157  1.00  0.00    -0.431 NA 
HETATM   15  H1  UNL     1     -10.541  14.526  69.789  1.00  0.00     0.000 HD 
BRANCH  11  16
HETATM   16  C   UNL     1     -10.880  16.434  68.064  1.00  0.00    -0.342 C  
HETATM   17  O   UNL     1     -11.688  16.412  68.986  1.00  0.00    -0.240 OA 
BRANCH  16  18
HETATM   18  C   UNL     1     -10.122  17.697  67.769  1.00  0.00    -0.338 A  
HETATM   19  C   UNL     1     -10.735  18.805  67.160  1.00  0.00    -0.469 A  
HETATM   20  C   UNL     1     -10.055  20.021  67.064  1.00  0.00    -0.594 A  
HETATM   21  C   UNL     1      -8.746  20.126  67.530  1.00  0.00    -0.415 A  
HETATM   22  C   UNL     1      -8.106  19.006  68.063  1.00  0.00    -0.328 A  
HETATM   23  C   UNL     1      -8.788  17.792  68.176  1.00  0.00    -0.267 A  
ENDBRANCH  16  18
ENDBRANCH  11  16
ENDBRANCH   6   7
ENDBRANCH   4   6
TORSDOF 4
ENDMDL
MODEL       66
REMARK 921   NORMALIZED FREE ENERGY PREDICTED BY IDOCK:   -5.42 KCAL/MOL
REMARK 922        TOTAL FREE ENERGY PREDICTED BY IDOCK:   -7.39 KCAL/MOL
REMARK 923 INTER-LIGAND FREE ENERGY PREDICTED BY IDOCK:   -6.48 KCAL/MOL
REMARK 924 INTRA-LIGAND FREE ENERGY PREDICTED BY IDOCK:   -0.92 KCAL/MOL
REMARK 927      BINDING AFFINITY PREDICTED BY RF-SCORE:    0.00 PKD
ROOT
HETATM    1  N   UNL     1      -7.514  11.446  69.579  1.00  0.00    -0.355 N  
HETATM    2  H2  UNL     1      -7.313  10.704  70.249  1.00  0.00     0.000 HD 
HETATM    3  H1  UNL     1      -7.544  12.415  69.898  1.00  0.00     0.000 HD 
HETATM    4  C   UNL     1      -7.738  11.129  68.270  1.00  0.00    -0.116 C  
HETATM    5  O   UNL     1      -7.702   9.967  67.888  1.00  0.00    -0.089 OA 
ENDROOT
BRANCH   4   6
HETATM    6  C   UNL     1      -8.027  12.297  67.356  1.00  0.00    -0.171 C  
BRANCH   6   7
HETATM    7  C   UNL     1      -9.450  12.795  67.483  1.00  0.00    -0.187 A  
HETATM    8  C   UNL     1     -10.433  12.186  66.681  1.00  0.00    -0.248 A  
HETATM    9  C   UNL     1     -11.753  12.609  66.728  1.00  0.00    -0.460 A  
HETATM   10  C   UNL     1     -12.096  13.692  67.528  1.00  0.00    -0.352 A  
HETATM   11  C   UNL     1     -11.119  14.362  68.285  1.00  0.00    -0.275 A  
HETATM   12  C   UNL     1      -9.810  13.834  68.372  1.00  0.00    -0.227 A  
HETATM   13  H2  UNL     1      -8.079  14.799  68.538  1.00  0.00     0.000 HD 
HETATM   14  N   UNL     1      -8.815  14.457  69.157  1.00  0.00    -0.382 NA 
HETATM   15  H1  UNL     1      -9.074  15.206  69.799  1.00  0.00     0.000 HD 
BRANCH  11  16
HETATM   16  C   UNL     1     -11.512  15.612  69.012  1.00  0.00    -0.363 C  
HETATM   17  O   UNL     1     -11.246  16.713  68.543  1.00  0.00    -0.344 OA 
BRANCH  16  18
HETATM   18  C   UNL     1     -12.198  15.518  70.346  1.00  0.00    -0.443 A  
HETATM   19  C   UNL     1     -11.554  15.886  71.539  1.00  0.00    -0.537 A  
HETATM   20  C   UNL     1     -12.272  15.958  72.734  1.00  0.00    -0.604 A  
HETATM   21  C   UNL     1     -13.623  15.618  72.756  1.00  0.00    -0.678 A  
HETATM   22  C   UNL     1     -14.248  15.174  71.589  1.00  0.00    -0.664 A  
HETATM   23  C   UNL     1     -13.536  15.117  70.387  1.00  0.00     0.020 A  
ENDBRANCH  16  18
ENDBRANCH  11  16
ENDBRANCH   6   7
ENDBRANCH   4   6
TORSDOF 4
ENDMDL
MODEL       67
REMARK 921   NORMALIZED FREE ENERGY PREDICTED BY IDOCK:   -5.42 KCAL/MOL
REMARK 922        TOTAL FREE ENERGY PREDICTED BY IDOCK:   -7.39 KCAL/MOL
REMARK 923 INTER-LIGAND FREE ENERGY PREDICTED BY IDOCK:   -6.30 KCAL/MOL
REMARK 924 INTRA-LIGAND FREE ENERGY PREDICTED BY IDOCK:   -1.09 KCAL/MOL
REMARK 927      BINDING AFFINITY PREDICTED BY RF-SCORE:    0.00 PKD
ROOT
HETATM    1  N   UNL     1     -13.060   7.763  70.932  1.00  0.00    -0.540 N  
HETATM    2  H2  UNL     1     -13.463   6.844  70.747  1.00  0.00     0.000 HD 
HETATM    3  H1  UNL     1     -13.649   8.593  70.868  1.00  0.00     0.000 HD 
HETATM    4  C   UNL     1     -11.738   7.863  71.260  1.00  0.00    -0.287 C  
HETATM    5  O   UNL     1     -11.030   6.867  71.336  1.00  0.00    -0.233 OA 
ENDROOT
BRANCH   4   6
HETATM    6  C   UNL     1     -11.233   9.264  71.515  1.00  0.00    -0.457 C  
BRANCH   6   7
HETATM    7  C   UNL     1     -10.580   9.876  70.295  1.00  0.00    -0.359 A  
HETATM    8  C   UNL     1      -9.182   9.765  70.174  1.00  0.00    -0.253 A  
HETATM    9  C   UNL     1      -8.515  10.324  69.093  1.00  0.00    -0.164 A  
HETATM   10  C   UNL     1      -9.229  11.060  68.155  1.00  0.00    -0.165 A  
HETATM   11  C   UNL     1     -10.615  11.244  68.292  1.00  0.00    -0.228 A  
HETATM   12  C   UNL     1     -11.324  10.540  69.294  1.00  0.00    -0.262 A  
HETATM   13  H2  UNL     1     -12.922  11.109  70.331  1.00  0.00     0.000 HD 
HETATM   14  N   UNL     1     -12.724  10.668  69.433  1.00  0.00    -0.628 NA 
HETATM   15  H1  UNL     1     -13.262  11.147  68.710  1.00  0.00     0.000 HD 
BRANCH  11  16
HETATM   16  C   UNL     1     -11.311  12.168  67.339  1.00  0.00    -0.326 C  
HETATM   17  O   UNL     1     -12.136  11.733  66.542  1.00  0.00    -0.498 OA 
BRANCH  16  18
HETATM   18  C   UNL     1     -10.965  13.630  67.326  1.00  0.00    -0.299 A  
HETATM   19  C   UNL     1     -10.278  14.221  66.252  1.00  0.00    -0.307 A  
HETATM   20  C   UNL     1     -10.131  15.608  66.188  1.00  0.00    -0.333 A  
HETATM   21  C   UNL     1     -10.625  16.409  67.216  1.00  0.00    -0.293 A  
HETATM   22  C   UNL     1     -11.236  15.820  68.324  1.00  0.00    -0.356 A  
HETATM   23  C   UNL     1     -11.400  14.433  68.384  1.00  0.00    -0.312 A  
ENDBRANCH  16  18
ENDBRANCH  11  16
ENDBRANCH   6   7
ENDBRANCH   4   6
TORSDOF 4
ENDMDL
MODEL       68
REMARK 921   NORMALIZED FREE ENERGY PREDICTED BY IDOCK:   -5.41 KCAL/MOL
REMARK 922        TOTAL FREE ENERGY PREDICTED BY IDOCK:   -7.38 KCAL/MOL
REMARK 923 INTER-LIGAND FREE ENERGY PREDICTED BY IDOCK:   -6.60 KCAL/MOL
REMARK 924 INTRA-LIGAND FREE ENERGY PREDICTED BY IDOCK:   -0.78 KCAL/MOL
REMARK 927      BINDING AFFINITY PREDICTED BY RF-SCORE:    0.00 PKD
ROOT
HETATM    1  N   UNL     1     -10.508  18.786  66.176  1.00  0.00    -0.456 N  
HETATM    2  H2  UNL     1     -10.991  19.544  66.659  1.00  0.00     0.000 HD 
HETATM    3  H1  UNL     1     -10.167  18.931  65.226  1.00  0.00     0.000 HD 
HETATM    4  C   UNL     1     -10.327  17.591  66.812  1.00  0.00    -0.314 C  
HETATM    5  O   UNL     1     -10.736  17.416  67.953  1.00  0.00    -0.383 OA 
ENDROOT
BRANCH   4   6
HETATM    6  C   UNL     1      -9.602  16.531  66.017  1.00  0.00    -0.323 C  
BRANCH   6   7
HETATM    7  C   UNL     1     -10.481  15.341  65.699  1.00  0.00    -0.377 A  
HETATM    8  C   UNL     1     -11.420  15.479  64.660  1.00  0.00    -0.326 A  
HETATM    9  C   UNL     1     -12.275  14.436  64.331  1.00  0.00    -0.481 A  
HETATM   10  C   UNL     1     -12.247  13.267  65.080  1.00  0.00    -0.487 A  
HETATM   11  C   UNL     1     -11.365  13.132  66.166  1.00  0.00    -0.343 A  
HETATM   12  C   UNL     1     -10.380  14.119  66.401  1.00  0.00    -0.287 A  
HETATM   13  H2  UNL     1      -9.621  14.743  68.130  1.00  0.00     0.000 HD 
HETATM   14  N   UNL     1      -9.450  13.995  67.458  1.00  0.00    -0.215 NA 
HETATM   15  H1  UNL     1      -9.378  13.113  67.965  1.00  0.00     0.000 HD 
BRANCH  11  16
HETATM   16  C   UNL     1     -11.479  11.913  67.032  1.00  0.00    -0.316 C  
HETATM   17  O   UNL     1     -12.129  11.947  68.071  1.00  0.00    -0.541 OA 
BRANCH  16  18
HETATM   18  C   UNL     1     -10.755  10.653  66.648  1.00  0.00    -0.246 A  
HETATM   19  C   UNL     1     -10.047  10.543  65.439  1.00  0.00    -0.358 A  
HETATM   20  C   UNL     1      -9.240   9.431  65.194  1.00  0.00    -0.287 A  
HETATM   21  C   UNL     1      -9.172   8.400  66.131  1.00  0.00    -0.263 A  
HETATM   22  C   UNL     1      -9.937   8.468  67.296  1.00  0.00    -0.289 A  
HETATM   23  C   UNL     1     -10.733   9.588  67.552  1.00  0.00    -0.311 A  
ENDBRANCH  16  18
ENDBRANCH  11  16
ENDBRANCH   6   7
ENDBRANCH   4   6
TORSDOF 4
ENDMDL
MODEL       69
REMARK 921   NORMALIZED FREE ENERGY PREDICTED BY IDOCK:   -5.38 KCAL/MOL
REMARK 922        TOTAL FREE ENERGY PREDICTED BY IDOCK:   -7.35 KCAL/MOL
REMARK 923 INTER-LIGAND FREE ENERGY PREDICTED BY IDOCK:   -6.86 KCAL/MOL
REMARK 924 INTRA-LIGAND FREE ENERGY PREDICTED BY IDOCK:   -0.49 KCAL/MOL
REMARK 927      BINDING AFFINITY PREDICTED BY RF-SCORE:    0.00 PKD
ROOT
HETATM    1  N   UNL     1     -12.055  13.998  63.986  1.00  0.00    -0.722 N  
HETATM    2  H2  UNL     1     -12.434  14.014  63.039  1.00  0.00     0.000 HD 
HETATM    3  H1  UNL     1     -11.345  14.681  64.254  1.00  0.00     0.000 HD 
HETATM    4  C   UNL     1     -12.503  13.064  64.875  1.00  0.00    -0.455 C  
HETATM    5  O   UNL     1     -13.354  12.245  64.553  1.00  0.00    -0.769 OA 
ENDROOT
BRANCH   4   6
HETATM    6  C   UNL     1     -11.882  13.121  66.251  1.00  0.00    -0.455 C  
BRANCH   6   7
HETATM    7  C   UNL     1     -11.044  11.900  66.560  1.00  0.00    -0.357 A  
HETATM    8  C   UNL     1     -10.635  11.094  65.481  1.00  0.00    -0.289 A  
HETATM    9  C   UNL     1      -9.885   9.946  65.694  1.00  0.00    -0.368 A  
HETATM   10  C   UNL     1      -9.592   9.552  66.994  1.00  0.00    -0.214 A  
HETATM   11  C   UNL     1     -10.048  10.303  68.091  1.00  0.00    -0.175 A  
HETATM   12  C   UNL     1     -10.665  11.558  67.878  1.00  0.00    -0.200 A  
HETATM   13  H2  UNL     1     -12.114  12.434  68.921  1.00  0.00     0.000 HD 
HETATM   14  N   UNL     1     -11.098  12.359  68.959  1.00  0.00    -0.306 NA 
HETATM   15  H1  UNL     1     -10.825  12.113  69.910  1.00  0.00     0.000 HD 
BRANCH  11  16
HETATM   16  C   UNL     1      -9.833   9.757  69.470  1.00  0.00    -0.214 C  
HETATM   17  O   UNL     1      -8.799  10.001  70.081  1.00  0.00    -0.165 OA 
BRANCH  16  18
HETATM   18  C   UNL     1     -10.872   8.867  70.092  1.00  0.00    -0.251 A  
HETATM   19  C   UNL     1     -10.909   7.484  69.845  1.00  0.00    -0.250 A  
HETATM   20  C   UNL     1     -11.768   6.660  70.574  1.00  0.00    -0.453 A  
HETATM   21  C   UNL     1     -12.629   7.216  71.520  1.00  0.00    -0.427 A  
HETATM   22  C   UNL     1     -12.652   8.598  71.712  1.00  0.00    -0.396 A  
HETATM   23  C   UNL     1     -11.781   9.424  70.995  1.00  0.00    -0.395 A  
ENDBRANCH  16  18
ENDBRANCH  11  16
ENDBRANCH   6   7
ENDBRANCH   4   6
TORSDOF 4
ENDMDL
MODEL       70
REMARK 921   NORMALIZED FREE ENERGY PREDICTED BY IDOCK:   -5.38 KCAL/MOL
REMARK 922        TOTAL FREE ENERGY PREDICTED BY IDOCK:   -7.35 KCAL/MOL
REMARK 923 INTER-LIGAND FREE ENERGY PREDICTED BY IDOCK:   -6.34 KCAL/MOL
REMARK 924 INTRA-LIGAND FREE ENERGY PREDICTED BY IDOCK:   -1.01 KCAL/MOL
REMARK 927      BINDING AFFINITY PREDICTED BY RF-SCORE:    0.00 PKD
ROOT
HETATM    1  N   UNL     1     -13.214   7.012  71.715  1.00  0.00    -0.495 N  
HETATM    2  H2  UNL     1     -14.067   7.400  72.119  1.00  0.00     0.000 HD 
HETATM    3  H1  UNL     1     -13.250   6.113  71.234  1.00  0.00     0.000 HD 
HETATM    4  C   UNL     1     -12.042   7.702  71.829  1.00  0.00    -0.305 C  
HETATM    5  O   UNL     1     -11.998   8.781  72.407  1.00  0.00    -0.359 OA 
ENDROOT
BRANCH   4   6
HETATM    6  C   UNL     1     -10.834   7.047  71.201  1.00  0.00    -0.263 C  
BRANCH   6   7
HETATM    7  C   UNL     1     -10.728   7.327  69.717  1.00  0.00    -0.253 A  
HETATM    8  C   UNL     1     -11.054   6.286  68.828  1.00  0.00    -0.424 A  
HETATM    9  C   UNL     1     -10.956   6.466  67.455  1.00  0.00    -0.454 A  
HETATM   10  C   UNL     1     -10.466   7.667  66.957  1.00  0.00    -0.419 A  
HETATM   11  C   UNL     1     -10.068   8.696  67.827  1.00  0.00    -0.266 A  
HETATM   12  C   UNL     1     -10.322   8.584  69.214  1.00  0.00    -0.221 A  
HETATM   13  H2  UNL     1      -9.251   9.270  70.742  1.00  0.00     0.000 HD 
HETATM   14  N   UNL     1      -9.975   9.617  70.113  1.00  0.00    -0.246 NA 
HETATM   15  H1  UNL     1      -9.682  10.524  69.749  1.00  0.00     0.000 HD 
BRANCH  11  16
HETATM   16  C   UNL     1      -9.409   9.910  67.245  1.00  0.00    -0.145 C  
HETATM   17  O   UNL     1      -8.266  10.213  67.569  1.00  0.00    -0.113 OA 
BRANCH  16  18
HETATM   18  C   UNL     1     -10.168  10.788  66.290  1.00  0.00    -0.301 A  
HETATM   19  C   UNL     1     -10.020  10.671  64.898  1.00  0.00    -0.382 A  
HETATM   20  C   UNL     1     -10.868  11.373  64.038  1.00  0.00    -0.450 A  
HETATM   21  C   UNL     1     -11.836  12.229  64.560  1.00  0.00    -0.441 A  
HETATM   22  C   UNL     1     -11.933  12.410  65.941  1.00  0.00    -0.434 A  
HETATM   23  C   UNL     1     -11.096  11.696  66.805  1.00  0.00    -0.366 A  
ENDBRANCH  16  18
ENDBRANCH  11  16
ENDBRANCH   6   7
ENDBRANCH   4   6
TORSDOF 4
ENDMDL
MODEL       71
REMARK 921   NORMALIZED FREE ENERGY PREDICTED BY IDOCK:   -5.37 KCAL/MOL
REMARK 922        TOTAL FREE ENERGY PREDICTED BY IDOCK:   -7.34 KCAL/MOL
REMARK 923 INTER-LIGAND FREE ENERGY PREDICTED BY IDOCK:   -6.58 KCAL/MOL
REMARK 924 INTRA-LIGAND FREE ENERGY PREDICTED BY IDOCK:   -0.76 KCAL/MOL
REMARK 927      BINDING AFFINITY PREDICTED BY RF-SCORE:    0.00 PKD
ROOT
HETATM    1  N   UNL     1      -8.542  15.092  67.238  1.00  0.00    -0.192 N  
HETATM    2  H2  UNL     1      -7.632  15.241  66.800  1.00  0.00     0.000 HD 
HETATM    3  H1  UNL     1      -8.591  14.665  68.163  1.00  0.00     0.000 HD 
HETATM    4  C   UNL     1      -9.676  15.466  66.575  1.00  0.00    -0.272 C  
HETATM    5  O   UNL     1      -9.618  15.978  65.465  1.00  0.00    -0.418 OA 
ENDROOT
BRANCH   4   6
HETATM    6  C   UNL     1     -10.973  15.205  67.304  1.00  0.00    -0.327 C  
BRANCH   6   7
HETATM    7  C   UNL     1     -11.170  13.741  67.632  1.00  0.00    -0.316 A  
HETATM    8  C   UNL     1     -11.208  12.828  66.561  1.00  0.00    -0.349 A  
HETATM    9  C   UNL     1     -11.409  11.474  66.787  1.00  0.00    -0.309 A  
HETATM   10  C   UNL     1     -11.643  11.024  68.080  1.00  0.00    -0.345 A  
HETATM   11  C   UNL     1     -11.680  11.926  69.158  1.00  0.00    -0.380 A  
HETATM   12  C   UNL     1     -11.311  13.277  68.959  1.00  0.00    -0.285 A  
HETATM   13  H2  UNL     1     -12.008  14.910  69.854  1.00  0.00     0.000 HD 
HETATM   14  N   UNL     1     -11.295  14.201  70.027  1.00  0.00    -0.451 NA 
HETATM   15  H1  UNL     1     -11.396  13.866  70.986  1.00  0.00     0.000 HD 
BRANCH  11  16
HETATM   16  C   UNL     1     -12.084  11.412  70.507  1.00  0.00    -0.394 C  
HETATM   17  O   UNL     1     -12.760  12.104  71.259  1.00  0.00    -0.366 OA 
BRANCH  16  18
HETATM   18  C   UNL     1     -11.620  10.056  70.960  1.00  0.00    -0.476 A  
HETATM   19  C   UNL     1     -10.273   9.666  70.876  1.00  0.00    -0.303 A  
HETATM   20  C   UNL     1      -9.845   8.476  71.467  1.00  0.00    -0.309 A  
HETATM   21  C   UNL     1     -10.766   7.645  72.104  1.00  0.00    -0.289 A  
HETATM   22  C   UNL     1     -12.119   7.989  72.120  1.00  0.00    -0.391 A  
HETATM   23  C   UNL     1     -12.547   9.188  71.543  1.00  0.00    -0.413 A  
ENDBRANCH  16  18
ENDBRANCH  11  16
ENDBRANCH   6   7
ENDBRANCH   4   6
TORSDOF 4
ENDMDL
MODEL       72
REMARK 921   NORMALIZED FREE ENERGY PREDICTED BY IDOCK:   -5.36 KCAL/MOL
REMARK 922        TOTAL FREE ENERGY PREDICTED BY IDOCK:   -7.32 KCAL/MOL
REMARK 923 INTER-LIGAND FREE ENERGY PREDICTED BY IDOCK:   -6.55 KCAL/MOL
REMARK 924 INTRA-LIGAND FREE ENERGY PREDICTED BY IDOCK:   -0.77 KCAL/MOL
REMARK 927      BINDING AFFINITY PREDICTED BY RF-SCORE:    0.00 PKD
ROOT
HETATM    1  N   UNL     1     -10.503  18.190  67.526  1.00  0.00    -0.397 N  
HETATM    2  H2  UNL     1     -10.240  19.066  67.978  1.00  0.00     0.000 HD 
HETATM    3  H1  UNL     1     -11.260  17.629  67.919  1.00  0.00     0.000 HD 
HETATM    4  C   UNL     1      -9.838  17.786  66.405  1.00  0.00    -0.324 C  
HETATM    5  O   UNL     1      -8.930  18.459  65.933  1.00  0.00    -0.484 OA 
ENDROOT
BRANCH   4   6
HETATM    6  C   UNL     1     -10.299  16.476  65.808  1.00  0.00    -0.359 C  
BRANCH   6   7
HETATM    7  C   UNL     1      -9.976  15.291  66.692  1.00  0.00    -0.264 A  
HETATM    8  C   UNL     1      -8.626  15.066  67.021  1.00  0.00    -0.266 A  
HETATM    9  C   UNL     1      -8.256  13.984  67.807  1.00  0.00    -0.169 A  
HETATM   10  C   UNL     1      -9.223  13.075  68.217  1.00  0.00    -0.191 A  
HETATM   11  C   UNL     1     -10.567  13.240  67.843  1.00  0.00    -0.246 A  
HETATM   12  C   UNL     1     -10.976  14.424  67.188  1.00  0.00    -0.303 A  
HETATM   13  H2  UNL     1     -12.397  14.671  65.818  1.00  0.00     0.000 HD 
HETATM   14  N   UNL     1     -12.327  14.643  66.835  1.00  0.00    -0.432 NA 
HETATM   15  H1  UNL     1     -13.049  14.017  67.193  1.00  0.00     0.000 HD 
BRANCH  11  16
HETATM   16  C   UNL     1     -11.543  12.154  68.185  1.00  0.00    -0.337 C  
HETATM   17  O   UNL     1     -11.825  11.290  67.362  1.00  0.00    -0.590 OA 
BRANCH  16  18
HETATM   18  C   UNL     1     -12.213  12.148  69.530  1.00  0.00    -0.169 A  
HETATM   19  C   UNL     1     -12.530  10.952  70.196  1.00  0.00    -0.356 A  
HETATM   20  C   UNL     1     -12.985  10.979  71.516  1.00  0.00    -0.553 A  
HETATM   21  C   UNL     1     -13.173  12.199  72.162  1.00  0.00    -0.438 A  
HETATM   22  C   UNL     1     -12.937  13.392  71.478  1.00  0.00    -0.429 A  
HETATM   23  C   UNL     1     -12.465  13.368  70.162  1.00  0.00    -0.243 A  
ENDBRANCH  16  18
ENDBRANCH  11  16
ENDBRANCH   6   7
ENDBRANCH   4   6
TORSDOF 4
ENDMDL
MODEL       73
REMARK 921   NORMALIZED FREE ENERGY PREDICTED BY IDOCK:   -5.36 KCAL/MOL
REMARK 922        TOTAL FREE ENERGY PREDICTED BY IDOCK:   -7.32 KCAL/MOL
REMARK 923 INTER-LIGAND FREE ENERGY PREDICTED BY IDOCK:   -6.48 KCAL/MOL
REMARK 924 INTRA-LIGAND FREE ENERGY PREDICTED BY IDOCK:   -0.83 KCAL/MOL
REMARK 927      BINDING AFFINITY PREDICTED BY RF-SCORE:    0.00 PKD
ROOT
HETATM    1  N   UNL     1     -11.481   6.865  73.096  1.00  0.00    -0.509 N  
HETATM    2  H2  UNL     1     -10.785   6.544  73.769  1.00  0.00     0.000 HD 
HETATM    3  H1  UNL     1     -12.380   6.387  73.036  1.00  0.00     0.000 HD 
HETATM    4  C   UNL     1     -11.194   7.926  72.286  1.00  0.00    -0.331 C  
HETATM    5  O   UNL     1     -10.115   8.499  72.357  1.00  0.00    -0.305 OA 
ENDROOT
BRANCH   4   6
HETATM    6  C   UNL     1     -12.286   8.326  71.322  1.00  0.00    -0.285 C  
BRANCH   6   7
HETATM    7  C   UNL     1     -12.392   9.826  71.155  1.00  0.00    -0.451 A  
HETATM    8  C   UNL     1     -13.094  10.548  72.138  1.00  0.00    -0.413 A  
HETATM    9  C   UNL     1     -13.251  11.923  72.036  1.00  0.00    -0.461 A  
HETATM   10  C   UNL     1     -12.766  12.585  70.915  1.00  0.00    -0.270 A  
HETATM   11  C   UNL     1     -12.122  11.876  69.886  1.00  0.00    -0.344 A  
HETATM   12  C   UNL     1     -11.811  10.507  70.061  1.00  0.00    -0.308 A  
HETATM   13  H2  UNL     1     -11.753   9.053  68.705  1.00  0.00     0.000 HD 
HETATM   14  N   UNL     1     -11.127   9.774  69.066  1.00  0.00    -0.403 NA 
HETATM   15  H1  UNL     1     -10.708  10.265  68.276  1.00  0.00     0.000 HD 
BRANCH  11  16
HETATM   16  C   UNL     1     -11.751  12.612  68.634  1.00  0.00    -0.325 C  
HETATM   17  O   UNL     1     -12.057  12.162  67.535  1.00  0.00    -0.534 OA 
BRANCH  16  18
HETATM   18  C   UNL     1     -10.962  13.888  68.723  1.00  0.00    -0.286 A  
HETATM   19  C   UNL     1      -9.557  13.894  68.698  1.00  0.00    -0.142 A  
HETATM   20  C   UNL     1      -8.859  15.099  68.600  1.00  0.00    -0.186 A  
HETATM   21  C   UNL     1      -9.556  16.307  68.575  1.00  0.00    -0.222 A  
HETATM   22  C   UNL     1     -10.947  16.309  68.681  1.00  0.00    -0.340 A  
HETATM   23  C   UNL     1     -11.650  15.103  68.762  1.00  0.00    -0.369 A  
ENDBRANCH  16  18
ENDBRANCH  11  16
ENDBRANCH   6   7
ENDBRANCH   4   6
TORSDOF 4
ENDMDL
MODEL       74
REMARK 921   NORMALIZED FREE ENERGY PREDICTED BY IDOCK:   -5.35 KCAL/MOL
REMARK 922        TOTAL FREE ENERGY PREDICTED BY IDOCK:   -7.31 KCAL/MOL
REMARK 923 INTER-LIGAND FREE ENERGY PREDICTED BY IDOCK:   -6.38 KCAL/MOL
REMARK 924 INTRA-LIGAND FREE ENERGY PREDICTED BY IDOCK:   -0.93 KCAL/MOL
REMARK 927      BINDING AFFINITY PREDICTED BY RF-SCORE:    0.00 PKD
ROOT
HETATM    1  N   UNL     1     -12.325  14.179  63.304  1.00  0.00    -1.133 N  
HETATM    2  H2  UNL     1     -13.184  14.402  62.802  1.00  0.00     0.000 HD 
HETATM    3  H1  UNL     1     -11.675  14.927  63.546  1.00  0.00     0.000 HD 
HETATM    4  C   UNL     1     -12.063  12.882  63.644  1.00  0.00    -0.535 C  
HETATM    5  O   UNL     1     -12.843  11.985  63.355  1.00  0.00    -0.760 OA 
ENDROOT
BRANCH   4   6
HETATM    6  C   UNL     1     -10.768  12.652  64.386  1.00  0.00    -0.384 C  
BRANCH   6   7
HETATM    7  C   UNL     1     -10.985  12.067  65.765  1.00  0.00    -0.351 A  
HETATM    8  C   UNL     1     -11.601  12.881  66.734  1.00  0.00    -0.416 A  
HETATM    9  C   UNL     1     -11.810  12.418  68.025  1.00  0.00    -0.376 A  
HETATM   10  C   UNL     1     -11.344  11.159  68.383  1.00  0.00    -0.357 A  
HETATM   11  C   UNL     1     -10.664  10.354  67.453  1.00  0.00    -0.338 A  
HETATM   12  C   UNL     1     -10.597  10.749  66.096  1.00  0.00    -0.175 A  
HETATM   13  H2  UNL     1      -9.142  10.445  64.775  1.00  0.00     0.000 HD 
HETATM   14  N   UNL     1      -9.959   9.944  65.126  1.00  0.00    -0.362 NA 
HETATM   15  H1  UNL     1      -9.678   8.993  65.364  1.00  0.00     0.000 HD 
BRANCH  11  16
HETATM   16  C   UNL     1     -10.053   9.071  67.929  1.00  0.00    -0.197 C  
HETATM   17  O   UNL     1     -10.502   7.993  67.557  1.00  0.00    -0.244 OA 
BRANCH  16  18
HETATM   18  C   UNL     1      -8.911   9.104  68.906  1.00  0.00    -0.139 A  
HETATM   19  C   UNL     1      -8.003  10.175  68.949  1.00  0.00    -0.110 A  
HETATM   20  C   UNL     1      -7.065  10.263  69.980  1.00  0.00    -0.161 A  
HETATM   21  C   UNL     1      -6.997   9.260  70.946  1.00  0.00    -0.107 A  
HETATM   22  C   UNL     1      -7.844   8.155  70.862  1.00  0.00    -0.091 A  
HETATM   23  C   UNL     1      -8.795   8.072  69.840  1.00  0.00    -0.144 A  
ENDBRANCH  16  18
ENDBRANCH  11  16
ENDBRANCH   6   7
ENDBRANCH   4   6
TORSDOF 4
ENDMDL
MODEL       75
REMARK 921   NORMALIZED FREE ENERGY PREDICTED BY IDOCK:   -5.35 KCAL/MOL
REMARK 922        TOTAL FREE ENERGY PREDICTED BY IDOCK:   -7.31 KCAL/MOL
REMARK 923 INTER-LIGAND FREE ENERGY PREDICTED BY IDOCK:   -6.58 KCAL/MOL
REMARK 924 INTRA-LIGAND FREE ENERGY PREDICTED BY IDOCK:   -0.72 KCAL/MOL
REMARK 927      BINDING AFFINITY PREDICTED BY RF-SCORE:    0.00 PKD
ROOT
HETATM    1  N   UNL     1     -10.474  19.642  65.638  1.00  0.00    -0.437 N  
HETATM    2  H2  UNL     1     -10.999  20.508  65.761  1.00  0.00     0.000 HD 
HETATM    3  H1  UNL     1      -9.985  19.470  64.759  1.00  0.00     0.000 HD 
HETATM    4  C   UNL     1     -10.437  18.728  66.652  1.00  0.00    -0.426 C  
HETATM    5  O   UNL     1     -11.024  18.933  67.707  1.00  0.00    -0.344 OA 
ENDROOT
BRANCH   4   6
HETATM    6  C   UNL     1      -9.635  17.478  66.376  1.00  0.00    -0.283 C  
BRANCH   6   7
HETATM    7  C   UNL     1     -10.454  16.216  66.540  1.00  0.00    -0.298 A  
HETATM    8  C   UNL     1     -10.999  15.632  65.381  1.00  0.00    -0.342 A  
HETATM    9  C   UNL     1     -11.779  14.487  65.461  1.00  0.00    -0.343 A  
HETATM   10  C   UNL     1     -12.081  13.951  66.706  1.00  0.00    -0.476 A  
HETATM   11  C   UNL     1     -11.606  14.557  67.883  1.00  0.00    -0.371 A  
HETATM   12  C   UNL     1     -10.676  15.619  67.802  1.00  0.00    -0.297 A  
HETATM   13  H2  UNL     1     -10.465  17.192  69.001  1.00  0.00     0.000 HD 
HETATM   14  N   UNL     1     -10.145  16.224  68.963  1.00  0.00    -0.245 NA 
HETATM   15  H1  UNL     1     -10.306  15.793  69.874  1.00  0.00     0.000 HD 
BRANCH  11  16
HETATM   16  C   UNL     1     -12.083  14.027  69.201  1.00  0.00    -0.337 C  
HETATM   17  O   UNL     1     -12.710  14.748  69.970  1.00  0.00    -0.268 OA 
BRANCH  16  18
HETATM   18  C   UNL     1     -11.752  12.618  69.606  1.00  0.00    -0.373 A  
HETATM   19  C   UNL     1     -12.386  11.989  70.689  1.00  0.00    -0.394 A  
HETATM   20  C   UNL     1     -12.190  10.627  70.927  1.00  0.00    -0.497 A  
HETATM   21  C   UNL     1     -11.323   9.897  70.115  1.00  0.00    -0.335 A  
HETATM   22  C   UNL     1     -10.629  10.536  69.087  1.00  0.00    -0.258 A  
HETATM   23  C   UNL     1     -10.836  11.895  68.836  1.00  0.00    -0.261 A  
ENDBRANCH  16  18
ENDBRANCH  11  16
ENDBRANCH   6   7
ENDBRANCH   4   6
TORSDOF 4
ENDMDL
MODEL       76
REMARK 921   NORMALIZED FREE ENERGY PREDICTED BY IDOCK:   -5.35 KCAL/MOL
REMARK 922        TOTAL FREE ENERGY PREDICTED BY IDOCK:   -7.30 KCAL/MOL
REMARK 923 INTER-LIGAND FREE ENERGY PREDICTED BY IDOCK:   -6.46 KCAL/MOL
REMARK 924 INTRA-LIGAND FREE ENERGY PREDICTED BY IDOCK:   -0.84 KCAL/MOL
REMARK 927      BINDING AFFINITY PREDICTED BY RF-SCORE:    0.00 PKD
ROOT
HETATM    1  N   UNL     1      -8.658  16.435  68.236  1.00  0.00    -0.193 N  
HETATM    2  H2  UNL     1      -8.734  16.655  69.229  1.00  0.00     0.000 HD 
HETATM    3  H1  UNL     1      -7.793  16.030  67.876  1.00  0.00     0.000 HD 
HETATM    4  C   UNL     1      -9.714  16.688  67.408  1.00  0.00    -0.251 C  
HETATM    5  O   UNL     1     -10.751  17.174  67.840  1.00  0.00    -0.368 OA 
ENDROOT
BRANCH   4   6
HETATM    6  C   UNL     1      -9.505  16.329  65.956  1.00  0.00    -0.369 C  
BRANCH   6   7
HETATM    7  C   UNL     1     -10.341  15.143  65.526  1.00  0.00    -0.399 A  
HETATM    8  C   UNL     1     -11.524  15.399  64.808  1.00  0.00    -0.337 A  
HETATM    9  C   UNL     1     -12.351  14.360  64.404  1.00  0.00    -0.428 A  
HETATM   10  C   UNL     1     -12.039  13.057  64.770  1.00  0.00    -0.465 A  
HETATM   11  C   UNL     1     -10.899  12.782  65.545  1.00  0.00    -0.301 A  
HETATM   12  C   UNL     1      -9.967  13.811  65.817  1.00  0.00    -0.275 A  
HETATM   13  H2  UNL     1      -8.839  14.084  67.431  1.00  0.00     0.000 HD 
HETATM   14  N   UNL     1      -8.790  13.562  66.557  1.00  0.00    -0.453 NA 
HETATM   15  H1  UNL     1      -8.520  12.600  66.767  1.00  0.00     0.000 HD 
BRANCH  11  16
HETATM   16  C   UNL     1     -10.690  11.382  66.038  1.00  0.00    -0.263 C  
HETATM   17  O   UNL     1     -10.250  10.519  65.287  1.00  0.00    -0.298 OA 
BRANCH  16  18
HETATM   18  C   UNL     1     -11.065  11.021  67.447  1.00  0.00    -0.370 A  
HETATM   19  C   UNL     1     -10.658   9.812  68.037  1.00  0.00    -0.291 A  
HETATM   20  C   UNL     1     -10.867   9.587  69.399  1.00  0.00    -0.226 A  
HETATM   21  C   UNL     1     -11.525  10.544  70.170  1.00  0.00    -0.405 A  
HETATM   22  C   UNL     1     -12.001  11.711  69.572  1.00  0.00    -0.383 A  
HETATM   23  C   UNL     1     -11.779  11.948  68.212  1.00  0.00    -0.385 A  
ENDBRANCH  16  18
ENDBRANCH  11  16
ENDBRANCH   6   7
ENDBRANCH   4   6
TORSDOF 4
ENDMDL
MODEL       77
REMARK 921   NORMALIZED FREE ENERGY PREDICTED BY IDOCK:   -5.33 KCAL/MOL
REMARK 922        TOTAL FREE ENERGY PREDICTED BY IDOCK:   -7.29 KCAL/MOL
REMARK 923 INTER-LIGAND FREE ENERGY PREDICTED BY IDOCK:   -6.44 KCAL/MOL
REMARK 924 INTRA-LIGAND FREE ENERGY PREDICTED BY IDOCK:   -0.85 KCAL/MOL
REMARK 927      BINDING AFFINITY PREDICTED BY RF-SCORE:    0.00 PKD
ROOT
HETATM    1  N   UNL     1     -10.535   5.399  70.788  1.00  0.00    -0.255 N  
HETATM    2  H2  UNL     1     -10.756   4.598  70.197  1.00  0.00     0.000 HD 
HETATM    3  H1  UNL     1     -10.511   5.285  71.802  1.00  0.00     0.000 HD 
HETATM    4  C   UNL     1     -10.275   6.609  70.210  1.00  0.00    -0.188 C  
HETATM    5  O   UNL     1     -10.304   6.746  68.994  1.00  0.00    -0.176 OA 
ENDROOT
BRANCH   4   6
HETATM    6  C   UNL     1      -9.958   7.734  71.167  1.00  0.00    -0.194 C  
BRANCH   6   7
HETATM    7  C   UNL     1     -10.960   8.865  71.086  1.00  0.00    -0.356 A  
HETATM    8  C   UNL     1     -12.075   8.816  71.944  1.00  0.00    -0.433 A  
HETATM    9  C   UNL     1     -13.047   9.806  71.907  1.00  0.00    -0.544 A  
HETATM   10  C   UNL     1     -12.950  10.822  70.964  1.00  0.00    -0.425 A  
HETATM   11  C   UNL     1     -11.883  10.854  70.050  1.00  0.00    -0.428 A  
HETATM   12  C   UNL     1     -10.806   9.948  70.192  1.00  0.00    -0.304 A  
HETATM   13  H2  UNL     1      -9.681   9.112  68.782  1.00  0.00     0.000 HD 
HETATM   14  N   UNL     1      -9.697   9.980  69.318  1.00  0.00    -0.203 NA 
HETATM   15  H1  UNL     1      -9.586  10.762  68.672  1.00  0.00     0.000 HD 
BRANCH  11  16
HETATM   16  C   UNL     1     -11.906  11.884  68.961  1.00  0.00    -0.308 C  
HETATM   17  O   UNL     1     -12.144  11.559  67.803  1.00  0.00    -0.626 OA 
BRANCH  16  18
HETATM   18  C   UNL     1     -11.591  13.318  69.281  1.00  0.00    -0.370 A  
HETATM   19  C   UNL     1     -12.401  14.082  70.138  1.00  0.00    -0.409 A  
HETATM   20  C   UNL     1     -11.987  15.348  70.557  1.00  0.00    -0.394 A  
HETATM   21  C   UNL     1     -10.787  15.879  70.086  1.00  0.00    -0.359 A  
HETATM   22  C   UNL     1     -10.019  15.157  69.172  1.00  0.00    -0.238 A  
HETATM   23  C   UNL     1     -10.423  13.882  68.763  1.00  0.00    -0.229 A  
ENDBRANCH  16  18
ENDBRANCH  11  16
ENDBRANCH   6   7
ENDBRANCH   4   6
TORSDOF 4
ENDMDL
MODEL       78
REMARK 921   NORMALIZED FREE ENERGY PREDICTED BY IDOCK:   -5.29 KCAL/MOL
REMARK 922        TOTAL FREE ENERGY PREDICTED BY IDOCK:   -7.23 KCAL/MOL
REMARK 923 INTER-LIGAND FREE ENERGY PREDICTED BY IDOCK:   -6.41 KCAL/MOL
REMARK 924 INTRA-LIGAND FREE ENERGY PREDICTED BY IDOCK:   -0.82 KCAL/MOL
REMARK 927      BINDING AFFINITY PREDICTED BY RF-SCORE:    0.00 PKD
ROOT
HETATM    1  N   UNL     1     -10.924  16.199  70.532  1.00  0.00    -0.314 N  
HETATM    2  H2  UNL     1     -10.052  16.655  70.800  1.00  0.00     0.000 HD 
HETATM    3  H1  UNL     1     -11.069  15.924  69.560  1.00  0.00     0.000 HD 
HETATM    4  C   UNL     1     -11.880  15.968  71.479  1.00  0.00    -0.486 C  
HETATM    5  O   UNL     1     -11.706  16.298  72.645  1.00  0.00    -0.494 OA 
ENDROOT
BRANCH   4   6
HETATM    6  C   UNL     1     -13.136  15.288  70.986  1.00  0.00    -0.544 C  
BRANCH   6   7
HETATM    7  C   UNL     1     -13.010  13.780  70.965  1.00  0.00    -0.324 A  
HETATM    8  C   UNL     1     -13.485  13.067  72.081  1.00  0.00    -0.638 A  
HETATM    9  C   UNL     1     -13.380  11.684  72.141  1.00  0.00    -0.310 A  
HETATM   10  C   UNL     1     -12.736  11.004  71.115  1.00  0.00    -0.521 A  
HETATM   11  C   UNL     1     -12.191  11.701  70.023  1.00  0.00    -0.338 A  
HETATM   12  C   UNL     1     -12.442  13.085  69.874  1.00  0.00     0.004 A  
HETATM   13  H2  UNL     1     -11.269  14.494  69.103  1.00  0.00     0.000 HD 
HETATM   14  N   UNL     1     -11.946  13.809  68.767  1.00  0.00    -0.361 NA 
HETATM   15  H1  UNL     1     -11.536  13.307  67.979  1.00  0.00     0.000 HD 
BRANCH  11  16
HETATM   16  C   UNL     1     -11.379  10.937  69.021  1.00  0.00    -0.281 C  
HETATM   17  O   UNL     1     -11.789  10.783  67.876  1.00  0.00    -0.553 OA 
BRANCH  16  18
HETATM   18  C   UNL     1     -10.074  10.317  69.432  1.00  0.00    -0.255 A  
HETATM   19  C   UNL     1      -8.843  10.785  68.942  1.00  0.00    -0.154 A  
HETATM   20  C   UNL     1      -7.644  10.309  69.479  1.00  0.00    -0.150 A  
HETATM   21  C   UNL     1      -7.666   9.332  70.472  1.00  0.00    -0.160 A  
HETATM   22  C   UNL     1      -8.884   8.806  70.905  1.00  0.00    -0.243 A  
HETATM   23  C   UNL     1     -10.086   9.291  70.382  1.00  0.00    -0.287 A  
ENDBRANCH  16  18
ENDBRANCH  11  16
ENDBRANCH   6   7
ENDBRANCH   4   6
TORSDOF 4
ENDMDL
MODEL       79
REMARK 921   NORMALIZED FREE ENERGY PREDICTED BY IDOCK:   -5.28 KCAL/MOL
REMARK 922        TOTAL FREE ENERGY PREDICTED BY IDOCK:   -7.22 KCAL/MOL
REMARK 923 INTER-LIGAND FREE ENERGY PREDICTED BY IDOCK:   -6.68 KCAL/MOL
REMARK 924 INTRA-LIGAND FREE ENERGY PREDICTED BY IDOCK:   -0.54 KCAL/MOL
REMARK 927      BINDING AFFINITY PREDICTED BY RF-SCORE:    0.00 PKD
ROOT
HETATM    1  N   UNL     1     -12.140  16.545  72.016  1.00  0.00    -0.596 N  
HETATM    2  H2  UNL     1     -13.043  16.724  72.454  1.00  0.00     0.000 HD 
HETATM    3  H1  UNL     1     -11.320  17.070  72.322  1.00  0.00     0.000 HD 
HETATM    4  C   UNL     1     -12.046  15.607  71.029  1.00  0.00    -0.400 C  
HETATM    5  O   UNL     1     -13.029  14.977  70.662  1.00  0.00    -0.364 OA 
ENDROOT
BRANCH   4   6
HETATM    6  C   UNL     1     -10.667  15.413  70.442  1.00  0.00    -0.312 C  
BRANCH   6   7
HETATM    7  C   UNL     1     -10.709  14.988  68.990  1.00  0.00    -0.239 A  
HETATM    8  C   UNL     1     -10.626  15.994  68.009  1.00  0.00    -0.295 A  
HETATM    9  C   UNL     1     -10.683  15.679  66.659  1.00  0.00    -0.296 A  
HETATM   10  C   UNL     1     -10.891  14.361  66.274  1.00  0.00    -0.313 A  
HETATM   11  C   UNL     1     -11.047  13.348  67.236  1.00  0.00    -0.300 A  
HETATM   12  C   UNL     1     -10.823  13.634  68.603  1.00  0.00    -0.263 A  
HETATM   13  H2  UNL     1     -11.711  12.860  70.205  1.00  0.00     0.000 HD 
HETATM   14  N   UNL     1     -10.928  12.631  69.592  1.00  0.00    -0.445 NA 
HETATM   15  H1  UNL     1     -11.010  11.653  69.312  1.00  0.00     0.000 HD 
BRANCH  11  16
HETATM   16  C   UNL     1     -11.417  11.971  66.771  1.00  0.00    -0.345 C  
HETATM   17  O   UNL     1     -12.126  11.251  67.464  1.00  0.00    -0.530 OA 
BRANCH  16  18
HETATM   18  C   UNL     1     -10.880  11.453  65.467  1.00  0.00    -0.282 A  
HETATM   19  C   UNL     1     -11.267  12.003  64.233  1.00  0.00    -0.421 A  
HETATM   20  C   UNL     1     -10.618  11.622  63.057  1.00  0.00    -0.224 A  
HETATM   21  C   UNL     1      -9.613  10.658  63.097  1.00  0.00    -0.382 A  
HETATM   22  C   UNL     1      -9.280  10.051  64.309  1.00  0.00    -0.318 A  
HETATM   23  C   UNL     1      -9.916  10.441  65.491  1.00  0.00    -0.348 A  
ENDBRANCH  16  18
ENDBRANCH  11  16
ENDBRANCH   6   7
ENDBRANCH   4   6
TORSDOF 4
ENDMDL
MODEL       80
REMARK 921   NORMALIZED FREE ENERGY PREDICTED BY IDOCK:   -5.21 KCAL/MOL
REMARK 922        TOTAL FREE ENERGY PREDICTED BY IDOCK:   -7.13 KCAL/MOL
REMARK 923 INTER-LIGAND FREE ENERGY PREDICTED BY IDOCK:   -6.31 KCAL/MOL
REMARK 924 INTRA-LIGAND FREE ENERGY PREDICTED BY IDOCK:   -0.82 KCAL/MOL
REMARK 927      BINDING AFFINITY PREDICTED BY RF-SCORE:    0.00 PKD
ROOT
HETATM    1  N   UNL     1     -12.018  13.300  67.328  1.00  0.00    -0.364 N  
HETATM    2  H2  UNL     1     -12.152  13.180  66.324  1.00  0.00     0.000 HD 
HETATM    3  H1  UNL     1     -12.023  14.240  67.726  1.00  0.00     0.000 HD 
HETATM    4  C   UNL     1     -11.832  12.203  68.118  1.00  0.00    -0.299 C  
HETATM    5  O   UNL     1     -11.826  11.075  67.641  1.00  0.00    -0.599 OA 
ENDROOT
BRANCH   4   6
HETATM    6  C   UNL     1     -11.642  12.483  69.590  1.00  0.00    -0.323 C  
BRANCH   6   7
HETATM    7  C   UNL     1     -11.778  11.239  70.441  1.00  0.00    -0.398 A  
HETATM    8  C   UNL     1     -12.989  11.045  71.131  1.00  0.00    -0.421 A  
HETATM    9  C   UNL     1     -13.174   9.938  71.948  1.00  0.00    -0.558 A  
HETATM   10  C   UNL     1     -12.126   9.046  72.137  1.00  0.00    -0.412 A  
HETATM   11  C   UNL     1     -10.884   9.256  71.513  1.00  0.00    -0.442 A  
HETATM   12  C   UNL     1     -10.742  10.283  70.552  1.00  0.00    -0.144 A  
HETATM   13  H2  UNL     1      -9.153  11.407  70.146  1.00  0.00     0.000 HD 
HETATM   14  N   UNL     1      -9.521  10.495  69.874  1.00  0.00    -0.377 NA 
HETATM   15  H1  UNL     1      -8.774   9.805  69.955  1.00  0.00     0.000 HD 
BRANCH  11  16
HETATM   16  C   UNL     1      -9.745   8.349  71.868  1.00  0.00    -0.261 C  
HETATM   17  O   UNL     1      -8.828   8.751  72.576  1.00  0.00    -0.402 OA 
BRANCH  16  18
HETATM   18  C   UNL     1      -9.702   6.951  71.318  1.00  0.00    -0.175 A  
HETATM   19  C   UNL     1      -9.179   5.878  72.059  1.00  0.00    -0.154 A  
HETATM   20  C   UNL     1      -9.317   4.568  71.595  1.00  0.00    -0.196 A  
HETATM   21  C   UNL     1      -9.935   4.325  70.369  1.00  0.00    -0.213 A  
HETATM   22  C   UNL     1     -10.384   5.394  69.593  1.00  0.00    -0.361 A  
HETATM   23  C   UNL     1     -10.262   6.705  70.062  1.00  0.00    -0.215 A  
ENDBRANCH  16  18
ENDBRANCH  11  16
ENDBRANCH   6   7
ENDBRANCH   4   6
TORSDOF 4
ENDMDL
MODEL       81
REMARK 921   NORMALIZED FREE ENERGY PREDICTED BY IDOCK:   -5.19 KCAL/MOL
REMARK 922        TOTAL FREE ENERGY PREDICTED BY IDOCK:   -7.11 KCAL/MOL
REMARK 923 INTER-LIGAND FREE ENERGY PREDICTED BY IDOCK:   -6.26 KCAL/MOL
REMARK 924 INTRA-LIGAND FREE ENERGY PREDICTED BY IDOCK:   -0.85 KCAL/MOL
REMARK 927      BINDING AFFINITY PREDICTED BY RF-SCORE:    0.00 PKD
ROOT
HETATM    1  N   UNL     1     -12.058  16.353  73.065  1.00  0.00    -0.531 N  
HETATM    2  H2  UNL     1     -11.668  16.392  74.007  1.00  0.00     0.000 HD 
HETATM    3  H1  UNL     1     -11.809  17.074  72.388  1.00  0.00     0.000 HD 
HETATM    4  C   UNL     1     -12.905  15.336  72.730  1.00  0.00    -0.413 C  
HETATM    5  O   UNL     1     -13.204  14.470  73.542  1.00  0.00    -0.526 OA 
ENDROOT
BRANCH   4   6
HETATM    6  C   UNL     1     -13.430  15.364  71.314  1.00  0.00    -0.598 C  
BRANCH   6   7
HETATM    7  C   UNL     1     -12.457  14.765  70.322  1.00  0.00    -0.393 A  
HETATM    8  C   UNL     1     -11.773  15.643  69.461  1.00  0.00    -0.382 A  
HETATM    9  C   UNL     1     -10.883  15.161  68.511  1.00  0.00    -0.247 A  
HETATM   10  C   UNL     1     -10.718  13.789  68.365  1.00  0.00    -0.266 A  
HETATM   11  C   UNL     1     -11.442  12.889  69.166  1.00  0.00    -0.360 A  
HETATM   12  C   UNL     1     -12.219  13.374  70.244  1.00  0.00    -0.335 A  
HETATM   13  H2  UNL     1     -13.925  12.662  70.976  1.00  0.00     0.000 HD 
HETATM   14  N   UNL     1     -12.926  12.496  71.096  1.00  0.00    -0.219 NA 
HETATM   15  H1  UNL     1     -12.755  11.491  71.039  1.00  0.00     0.000 HD 
BRANCH  11  16
HETATM   16  C   UNL     1     -11.339  11.424  68.867  1.00  0.00    -0.270 C  
HETATM   17  O   UNL     1     -12.242  10.846  68.272  1.00  0.00    -0.526 OA 
BRANCH  16  18
HETATM   18  C   UNL     1     -10.142  10.647  69.338  1.00  0.00    -0.199 A  
HETATM   19  C   UNL     1     -10.197   9.812  70.466  1.00  0.00    -0.321 A  
HETATM   20  C   UNL     1      -9.126   8.968  70.771  1.00  0.00    -0.297 A  
HETATM   21  C   UNL     1      -7.978   8.988  69.982  1.00  0.00    -0.113 A  
HETATM   22  C   UNL     1      -7.888   9.874  68.907  1.00  0.00    -0.091 A  
HETATM   23  C   UNL     1      -8.964  10.708  68.589  1.00  0.00    -0.170 A  
ENDBRANCH  16  18
ENDBRANCH  11  16
ENDBRANCH   6   7
ENDBRANCH   4   6
TORSDOF 4
ENDMDL
MODEL       82
REMARK 921   NORMALIZED FREE ENERGY PREDICTED BY IDOCK:   -5.18 KCAL/MOL
REMARK 922        TOTAL FREE ENERGY PREDICTED BY IDOCK:   -7.10 KCAL/MOL
REMARK 923 INTER-LIGAND FREE ENERGY PREDICTED BY IDOCK:   -6.25 KCAL/MOL
REMARK 924 INTRA-LIGAND FREE ENERGY PREDICTED BY IDOCK:   -0.85 KCAL/MOL
REMARK 927      BINDING AFFINITY PREDICTED BY RF-SCORE:    0.00 PKD
ROOT
HETATM    1  N   UNL     1     -12.354  14.020  63.196  1.00  0.00    -1.094 N  
HETATM    2  H2  UNL     1     -11.860  14.390  62.384  1.00  0.00     0.000 HD 
HETATM    3  H1  UNL     1     -13.027  13.263  63.074  1.00  0.00     0.000 HD 
HETATM    4  C   UNL     1     -12.104  14.545  64.432  1.00  0.00    -0.472 C  
HETATM    5  O   UNL     1     -11.296  15.453  64.579  1.00  0.00    -0.385 OA 
ENDROOT
BRANCH   4   6
HETATM    6  C   UNL     1     -12.884  13.932  65.571  1.00  0.00    -0.471 C  
BRANCH   6   7
HETATM    7  C   UNL     1     -11.995  13.208  66.559  1.00  0.00    -0.459 A  
HETATM    8  C   UNL     1     -11.954  13.688  67.881  1.00  0.00    -0.382 A  
HETATM    9  C   UNL     1     -11.142  13.087  68.833  1.00  0.00    -0.307 A  
HETATM   10  C   UNL     1     -10.310  12.040  68.457  1.00  0.00    -0.228 A  
HETATM   11  C   UNL     1     -10.281  11.588  67.127  1.00  0.00    -0.233 A  
HETATM   12  C   UNL     1     -11.223  12.081  66.194  1.00  0.00    -0.343 A  
HETATM   13  H2  UNL     1     -11.007  12.392  64.242  1.00  0.00     0.000 HD 
HETATM   14  N   UNL     1     -11.251  11.617  64.860  1.00  0.00    -0.262 NA 
HETATM   15  H1  UNL     1     -10.694  10.804  64.597  1.00  0.00     0.000 HD 
BRANCH  11  16
HETATM   16  C   UNL     1      -9.260  10.559  66.744  1.00  0.00    -0.155 C  
HETATM   17  O   UNL     1      -8.365  10.836  65.953  1.00  0.00    -0.159 OA 
BRANCH  16  18
HETATM   18  C   UNL     1      -9.358   9.165  67.297  1.00  0.00    -0.166 A  
HETATM   19  C   UNL     1      -8.526   8.720  68.338  1.00  0.00    -0.130 A  
HETATM   20  C   UNL     1      -8.762   7.487  68.950  1.00  0.00    -0.132 A  
HETATM   21  C   UNL     1      -9.797   6.671  68.496  1.00  0.00    -0.139 A  
HETATM   22  C   UNL     1     -10.575   7.074  67.410  1.00  0.00    -0.372 A  
HETATM   23  C   UNL     1     -10.353   8.315  66.806  1.00  0.00    -0.361 A  
ENDBRANCH  16  18
ENDBRANCH  11  16
ENDBRANCH   6   7
ENDBRANCH   4   6
TORSDOF 4
ENDMDL
MODEL       83
REMARK 921   NORMALIZED FREE ENERGY PREDICTED BY IDOCK:   -5.18 KCAL/MOL
REMARK 922        TOTAL FREE ENERGY PREDICTED BY IDOCK:   -7.10 KCAL/MOL
REMARK 923 INTER-LIGAND FREE ENERGY PREDICTED BY IDOCK:   -6.15 KCAL/MOL
REMARK 924 INTRA-LIGAND FREE ENERGY PREDICTED BY IDOCK:   -0.95 KCAL/MOL
REMARK 927      BINDING AFFINITY PREDICTED BY RF-SCORE:    0.00 PKD
ROOT
HETATM    1  N   UNL     1     -13.339  15.468  70.371  1.00  0.00    -0.779 N  
HETATM    2  H2  UNL     1     -13.977  15.229  71.130  1.00  0.00     0.000 HD 
HETATM    3  H1  UNL     1     -13.407  16.384  69.927  1.00  0.00     0.000 HD 
HETATM    4  C   UNL     1     -12.408  14.557  69.962  1.00  0.00    -0.323 C  
HETATM    5  O   UNL     1     -12.327  13.457  70.495  1.00  0.00    -0.342 OA 
ENDROOT
BRANCH   4   6
HETATM    6  C   UNL     1     -11.510  15.002  68.832  1.00  0.00    -0.333 C  
BRANCH   6   7
HETATM    7  C   UNL     1     -11.341  13.937  67.771  1.00  0.00    -0.335 A  
HETATM    8  C   UNL     1     -12.260  13.920  66.705  1.00  0.00    -0.438 A  
HETATM    9  C   UNL     1     -12.179  12.956  65.710  1.00  0.00    -0.498 A  
HETATM   10  C   UNL     1     -11.219  11.956  65.804  1.00  0.00    -0.365 A  
HETATM   11  C   UNL     1     -10.335  11.911  66.896  1.00  0.00    -0.238 A  
HETATM   12  C   UNL     1     -10.302  12.980  67.821  1.00  0.00    -0.226 A  
HETATM   13  H2  UNL     1      -9.929  12.935  69.774  1.00  0.00     0.000 HD 
HETATM   14  N   UNL     1      -9.396  12.988  68.905  1.00  0.00    -0.378 NA 
HETATM   15  H1  UNL     1      -8.646  12.298  68.941  1.00  0.00     0.000 HD 
BRANCH  11  16
HETATM   16  C   UNL     1      -9.420  10.730  67.026  1.00  0.00    -0.164 C  
HETATM   17  O   UNL     1      -8.268  10.788  66.611  1.00  0.00    -0.129 OA 
BRANCH  16  18
HETATM   18  C   UNL     1      -9.931   9.451  67.628  1.00  0.00    -0.238 A  
HETATM   19  C   UNL     1     -10.180   8.311  66.846  1.00  0.00    -0.388 A  
HETATM   20  C   UNL     1     -10.480   7.090  67.455  1.00  0.00    -0.320 A  
HETATM   21  C   UNL     1     -10.579   7.011  68.843  1.00  0.00    -0.233 A  
HETATM   22  C   UNL     1     -10.412   8.159  69.619  1.00  0.00    -0.224 A  
HETATM   23  C   UNL     1     -10.096   9.379  69.014  1.00  0.00    -0.202 A  
ENDBRANCH  16  18
ENDBRANCH  11  16
ENDBRANCH   6   7
ENDBRANCH   4   6
TORSDOF 4
ENDMDL
MODEL       84
REMARK 921   NORMALIZED FREE ENERGY PREDICTED BY IDOCK:   -5.18 KCAL/MOL
REMARK 922        TOTAL FREE ENERGY PREDICTED BY IDOCK:   -7.10 KCAL/MOL
REMARK 923 INTER-LIGAND FREE ENERGY PREDICTED BY IDOCK:   -6.24 KCAL/MOL
REMARK 924 INTRA-LIGAND FREE ENERGY PREDICTED BY IDOCK:   -0.85 KCAL/MOL
REMARK 927      BINDING AFFINITY PREDICTED BY RF-SCORE:    0.00 PKD
ROOT
HETATM    1  N   UNL     1     -10.854  14.824  67.796  1.00  0.00    -0.272 N  
HETATM    2  H2  UNL     1     -10.233  15.632  67.835  1.00  0.00     0.000 HD 
HETATM    3  H1  UNL     1     -11.571  14.704  68.512  1.00  0.00     0.000 HD 
HETATM    4  C   UNL     1     -10.712  13.916  66.785  1.00  0.00    -0.281 C  
HETATM    5  O   UNL     1      -9.851  14.059  65.926  1.00  0.00    -0.304 OA 
ENDROOT
BRANCH   4   6
HETATM    6  C   UNL     1     -11.676  12.754  66.811  1.00  0.00    -0.459 C  
BRANCH   6   7
HETATM    7  C   UNL     1     -11.041  11.485  67.337  1.00  0.00    -0.339 A  
HETATM    8  C   UNL     1     -10.629  10.520  66.399  1.00  0.00    -0.218 A  
HETATM    9  C   UNL     1     -10.061   9.323  66.811  1.00  0.00    -0.331 A  
HETATM   10  C   UNL     1      -9.960   9.046  68.169  1.00  0.00    -0.206 A  
HETATM   11  C   UNL     1     -10.429   9.964  69.125  1.00  0.00    -0.235 A  
HETATM   12  C   UNL     1     -10.852  11.251  68.718  1.00  0.00    -0.208 A  
HETATM   13  H2  UNL     1     -12.277  12.403  69.490  1.00  0.00     0.000 HD 
HETATM   14  N   UNL     1     -11.288  12.214  69.655  1.00  0.00    -0.464 NA 
HETATM   15  H1  UNL     1     -11.151  12.045  70.652  1.00  0.00     0.000 HD 
BRANCH  11  16
HETATM   16  C   UNL     1     -10.433   9.555  70.567  1.00  0.00    -0.296 C  
HETATM   17  O   UNL     1      -9.415   9.653  71.244  1.00  0.00    -0.154 OA 
BRANCH  16  18
HETATM   18  C   UNL     1     -11.679   8.978  71.177  1.00  0.00    -0.366 A  
HETATM   19  C   UNL     1     -12.662   9.791  71.764  1.00  0.00    -0.519 A  
HETATM   20  C   UNL     1     -13.885   9.244  72.159  1.00  0.00    -0.478 A  
HETATM   21  C   UNL     1     -14.116   7.877  72.013  1.00  0.00    -0.403 A  
HETATM   22  C   UNL     1     -13.112   7.053  71.504  1.00  0.00    -0.395 A  
HETATM   23  C   UNL     1     -11.893   7.599  71.093  1.00  0.00    -0.314 A  
ENDBRANCH  16  18
ENDBRANCH  11  16
ENDBRANCH   6   7
ENDBRANCH   4   6
TORSDOF 4
ENDMDL
MODEL       85
REMARK 921   NORMALIZED FREE ENERGY PREDICTED BY IDOCK:   -5.17 KCAL/MOL
REMARK 922        TOTAL FREE ENERGY PREDICTED BY IDOCK:   -7.09 KCAL/MOL
REMARK 923 INTER-LIGAND FREE ENERGY PREDICTED BY IDOCK:   -5.96 KCAL/MOL
REMARK 924 INTRA-LIGAND FREE ENERGY PREDICTED BY IDOCK:   -1.13 KCAL/MOL
REMARK 927      BINDING AFFINITY PREDICTED BY RF-SCORE:    0.00 PKD
ROOT
HETATM    1  N   UNL     1      -9.131   5.330  68.036  1.00  0.00    -0.109 N  
HETATM    2  H2  UNL     1      -8.458   5.602  67.320  1.00  0.00     0.000 HD 
HETATM    3  H1  UNL     1     -10.121   5.267  67.797  1.00  0.00     0.000 HD 
HETATM    4  C   UNL     1      -8.694   5.057  69.300  1.00  0.00    -0.091 C  
HETATM    5  O   UNL     1      -7.506   5.132  69.587  1.00  0.00    -0.059 OA 
ENDROOT
BRANCH   4   6
HETATM    6  C   UNL     1      -9.765   4.663  70.290  1.00  0.00    -0.295 C  
BRANCH   6   7
HETATM    7  C   UNL     1     -10.220   5.825  71.146  1.00  0.00    -0.275 A  
HETATM    8  C   UNL     1      -9.592   6.006  72.393  1.00  0.00    -0.162 A  
HETATM    9  C   UNL     1      -9.975   7.037  73.240  1.00  0.00    -0.264 A  
HETATM   10  C   UNL     1     -11.037   7.858  72.880  1.00  0.00    -0.442 A  
HETATM   11  C   UNL     1     -11.724   7.653  71.672  1.00  0.00    -0.313 A  
HETATM   12  C   UNL     1     -11.234   6.717  70.731  1.00  0.00    -0.315 A  
HETATM   13  H2  UNL     1     -12.248   5.567  69.465  1.00  0.00     0.000 HD 
HETATM   14  N   UNL     1     -11.876   6.516  69.489  1.00  0.00    -0.589 NA 
HETATM   15  H1  UNL     1     -12.608   7.160  69.189  1.00  0.00     0.000 HD 
BRANCH  11  16
HETATM   16  C   UNL     1     -12.953   8.469  71.401  1.00  0.00    -0.243 C  
HETATM   17  O   UNL     1     -14.053   7.933  71.336  1.00  0.00    -0.371 OA 
BRANCH  16  18
HETATM   18  C   UNL     1     -12.831   9.948  71.165  1.00  0.00    -0.461 A  
HETATM   19  C   UNL     1     -13.402  10.889  72.038  1.00  0.00    -0.394 A  
HETATM   20  C   UNL     1     -13.120  12.249  71.892  1.00  0.00    -0.469 A  
HETATM   21  C   UNL     1     -12.307  12.682  70.846  1.00  0.00    -0.352 A  
HETATM   22  C   UNL     1     -11.802  11.759  69.929  1.00  0.00    -0.423 A  
HETATM   23  C   UNL     1     -12.069  10.396  70.082  1.00  0.00    -0.334 A  
ENDBRANCH  16  18
ENDBRANCH  11  16
ENDBRANCH   6   7
ENDBRANCH   4   6
TORSDOF 4
ENDMDL
MODEL       86
REMARK 921   NORMALIZED FREE ENERGY PREDICTED BY IDOCK:   -5.15 KCAL/MOL
REMARK 922        TOTAL FREE ENERGY PREDICTED BY IDOCK:   -7.07 KCAL/MOL
REMARK 923 INTER-LIGAND FREE ENERGY PREDICTED BY IDOCK:   -6.40 KCAL/MOL
REMARK 924 INTRA-LIGAND FREE ENERGY PREDICTED BY IDOCK:   -0.67 KCAL/MOL
REMARK 927      BINDING AFFINITY PREDICTED BY RF-SCORE:    0.00 PKD
ROOT
HETATM    1  N   UNL     1      -8.335  18.227  68.331  1.00  0.00    -0.302 N  
HETATM    2  H2  UNL     1      -7.577  18.668  68.852  1.00  0.00     0.000 HD 
HETATM    3  H1  UNL     1      -8.131  17.436  67.720  1.00  0.00     0.000 HD 
HETATM    4  C   UNL     1      -9.607  18.706  68.460  1.00  0.00    -0.361 C  
HETATM    5  O   UNL     1      -9.852  19.655  69.193  1.00  0.00    -0.424 OA 
ENDROOT
BRANCH   4   6
HETATM    6  C   UNL     1     -10.660  17.988  67.648  1.00  0.00    -0.413 C  
BRANCH   6   7
HETATM    7  C   UNL     1     -10.842  16.548  68.077  1.00  0.00    -0.337 A  
HETATM    8  C   UNL     1     -11.355  16.307  69.365  1.00  0.00    -0.284 A  
HETATM    9  C   UNL     1     -11.525  15.011  69.833  1.00  0.00    -0.320 A  
HETATM   10  C   UNL     1     -11.120  13.942  69.044  1.00  0.00    -0.302 A  
HETATM   11  C   UNL     1     -10.540  14.160  67.782  1.00  0.00    -0.243 A  
HETATM   12  C   UNL     1     -10.519  15.463  67.232  1.00  0.00    -0.282 A  
HETATM   13  H2  UNL     1      -9.156  16.301  66.051  1.00  0.00     0.000 HD 
HETATM   14  N   UNL     1      -9.983  15.712  65.949  1.00  0.00    -0.323 NA 
HETATM   15  H1  UNL     1      -9.750  14.928  65.339  1.00  0.00     0.000 HD 
BRANCH  11  16
HETATM   16  C   UNL     1      -9.986  12.983  67.038  1.00  0.00    -0.242 C  
HETATM   17  O   UNL     1      -8.927  12.471  67.384  1.00  0.00    -0.172 OA 
BRANCH  16  18
HETATM   18  C   UNL     1     -10.708  12.453  65.831  1.00  0.00    -0.299 A  
HETATM   19  C   UNL     1     -12.092  12.623  65.661  1.00  0.00    -0.502 A  
HETATM   20  C   UNL     1     -12.701  12.281  64.452  1.00  0.00    -0.384 A  
HETATM   21  C   UNL     1     -11.942  11.724  63.424  1.00  0.00    -0.443 A  
HETATM   22  C   UNL     1     -10.582  11.480  63.617  1.00  0.00    -0.491 A  
HETATM   23  C   UNL     1      -9.966  11.836  64.820  1.00  0.00    -0.275 A  
ENDBRANCH  16  18
ENDBRANCH  11  16
ENDBRANCH   6   7
ENDBRANCH   4   6
TORSDOF 4
ENDMDL
MODEL       87
REMARK 921   NORMALIZED FREE ENERGY PREDICTED BY IDOCK:   -5.15 KCAL/MOL
REMARK 922        TOTAL FREE ENERGY PREDICTED BY IDOCK:   -7.06 KCAL/MOL
REMARK 923 INTER-LIGAND FREE ENERGY PREDICTED BY IDOCK:   -6.28 KCAL/MOL
REMARK 924 INTRA-LIGAND FREE ENERGY PREDICTED BY IDOCK:   -0.78 KCAL/MOL
REMARK 927      BINDING AFFINITY PREDICTED BY RF-SCORE:    0.00 PKD
ROOT
HETATM    1  N   UNL     1     -12.306  15.073  68.537  1.00  0.00    -0.579 N  
HETATM    2  H2  UNL     1     -12.669  14.825  69.458  1.00  0.00     0.000 HD 
HETATM    3  H1  UNL     1     -12.239  16.055  68.271  1.00  0.00     0.000 HD 
HETATM    4  C   UNL     1     -11.919  14.084  67.679  1.00  0.00    -0.368 C  
HETATM    5  O   UNL     1     -12.000  12.905  67.998  1.00  0.00    -0.346 OA 
ENDROOT
BRANCH   4   6
HETATM    6  C   UNL     1     -11.396  14.549  66.340  1.00  0.00    -0.349 C  
BRANCH   6   7
HETATM    7  C   UNL     1     -11.196  13.407  65.367  1.00  0.00    -0.303 A  
HETATM    8  C   UNL     1     -12.211  13.165  64.423  1.00  0.00    -0.462 A  
HETATM    9  C   UNL     1     -12.106  12.120  63.516  1.00  0.00    -0.649 A  
HETATM   10  C   UNL     1     -11.015  11.262  63.586  1.00  0.00    -0.369 A  
HETATM   11  C   UNL     1     -10.023  11.442  64.565  1.00  0.00    -0.318 A  
HETATM   12  C   UNL     1     -10.038  12.598  65.380  1.00  0.00    -0.261 A  
HETATM   13  H2  UNL     1      -9.459  12.804  67.271  1.00  0.00     0.000 HD 
HETATM   14  N   UNL     1      -9.033  12.833  66.345  1.00  0.00    -0.429 NA 
HETATM   15  H1  UNL     1      -8.196  12.249  66.355  1.00  0.00     0.000 HD 
BRANCH  11  16
HETATM   16  C   UNL     1      -8.948  10.405  64.693  1.00  0.00    -0.209 C  
HETATM   17  O   UNL     1      -7.910  10.503  64.048  1.00  0.00    -0.096 OA 
BRANCH  16  18
HETATM   18  C   UNL     1      -9.161   9.212  65.582  1.00  0.00    -0.296 A  
HETATM   19  C   UNL     1     -10.144   9.202  66.586  1.00  0.00    -0.343 A  
HETATM   20  C   UNL     1     -10.438   8.022  67.272  1.00  0.00    -0.384 A  
HETATM   21  C   UNL     1      -9.722   6.858  66.995  1.00  0.00    -0.210 A  
HETATM   22  C   UNL     1      -8.690   6.884  66.055  1.00  0.00    -0.151 A  
HETATM   23  C   UNL     1      -8.404   8.060  65.355  1.00  0.00    -0.161 A  
ENDBRANCH  16  18
ENDBRANCH  11  16
ENDBRANCH   6   7
ENDBRANCH   4   6
TORSDOF 4
ENDMDL
MODEL       88
REMARK 921   NORMALIZED FREE ENERGY PREDICTED BY IDOCK:   -5.15 KCAL/MOL
REMARK 922        TOTAL FREE ENERGY PREDICTED BY IDOCK:   -7.06 KCAL/MOL
REMARK 923 INTER-LIGAND FREE ENERGY PREDICTED BY IDOCK:   -6.13 KCAL/MOL
REMARK 924 INTRA-LIGAND FREE ENERGY PREDICTED BY IDOCK:   -0.93 KCAL/MOL
REMARK 927      BINDING AFFINITY PREDICTED BY RF-SCORE:    0.00 PKD
ROOT
HETATM    1  N   UNL     1     -11.640  14.211  64.059  1.00  0.00    -0.640 N  
HETATM    2  H2  UNL     1     -11.663  14.290  63.042  1.00  0.00     0.000 HD 
HETATM    3  H1  UNL     1     -11.879  13.322  64.500  1.00  0.00     0.000 HD 
HETATM    4  C   UNL     1     -11.290  15.296  64.810  1.00  0.00    -0.391 C  
HETATM    5  O   UNL     1     -11.003  16.362  64.282  1.00  0.00    -0.788 OA 
ENDROOT
BRANCH   4   6
HETATM    6  C   UNL     1     -11.285  15.081  66.306  1.00  0.00    -0.309 C  
BRANCH   6   7
HETATM    7  C   UNL     1     -10.321  13.996  66.732  1.00  0.00    -0.271 A  
HETATM    8  C   UNL     1      -8.966  14.346  66.888  1.00  0.00    -0.263 A  
HETATM    9  C   UNL     1      -8.023  13.396  67.254  1.00  0.00    -0.130 A  
HETATM   10  C   UNL     1      -8.410  12.070  67.402  1.00  0.00    -0.171 A  
HETATM   11  C   UNL     1      -9.744  11.683  67.184  1.00  0.00    -0.195 A  
HETATM   12  C   UNL     1     -10.738  12.668  66.977  1.00  0.00    -0.245 A  
HETATM   13  H2  UNL     1     -12.375  12.578  65.850  1.00  0.00     0.000 HD 
HETATM   14  N   UNL     1     -12.095  12.318  66.797  1.00  0.00    -0.565 NA 
HETATM   15  H1  UNL     1     -12.397  11.360  66.973  1.00  0.00     0.000 HD 
BRANCH  11  16
HETATM   16  C   UNL     1     -10.078  10.222  67.211  1.00  0.00    -0.203 C  
HETATM   17  O   UNL     1     -10.196   9.593  66.165  1.00  0.00    -0.266 OA 
BRANCH  16  18
HETATM   18  C   UNL     1     -10.314   9.533  68.525  1.00  0.00    -0.234 A  
HETATM   19  C   UNL     1     -10.688  10.243  69.678  1.00  0.00    -0.299 A  
HETATM   20  C   UNL     1     -11.074   9.559  70.833  1.00  0.00    -0.406 A  
HETATM   21  C   UNL     1     -11.043   8.165  70.859  1.00  0.00    -0.280 A  
HETATM   22  C   UNL     1     -10.595   7.458  69.742  1.00  0.00    -0.245 A  
HETATM   23  C   UNL     1     -10.224   8.140  68.579  1.00  0.00    -0.233 A  
ENDBRANCH  16  18
ENDBRANCH  11  16
ENDBRANCH   6   7
ENDBRANCH   4   6
TORSDOF 4
ENDMDL
MODEL       89
REMARK 921   NORMALIZED FREE ENERGY PREDICTED BY IDOCK:   -5.14 KCAL/MOL
REMARK 922        TOTAL FREE ENERGY PREDICTED BY IDOCK:   -7.06 KCAL/MOL
REMARK 923 INTER-LIGAND FREE ENERGY PREDICTED BY IDOCK:   -6.09 KCAL/MOL
REMARK 924 INTRA-LIGAND FREE ENERGY PREDICTED BY IDOCK:   -0.97 KCAL/MOL
REMARK 927      BINDING AFFINITY PREDICTED BY RF-SCORE:    0.00 PKD
ROOT
HETATM    1  N   UNL     1      -7.477  20.191  68.104  1.00  0.00    -0.267 N  
HETATM    2  H2  UNL     1      -7.825  20.822  68.826  1.00  0.00     0.000 HD 
HETATM    3  H1  UNL     1      -6.499  19.900  68.121  1.00  0.00     0.000 HD 
HETATM    4  C   UNL     1      -8.325  19.750  67.130  1.00  0.00    -0.315 C  
HETATM    5  O   UNL     1      -9.498  20.099  67.110  1.00  0.00    -0.357 OA 
ENDROOT
BRANCH   4   6
HETATM    6  C   UNL     1      -7.717  18.820  66.107  1.00  0.00    -0.274 C  
BRANCH   6   7
HETATM    7  C   UNL     1      -7.890  17.362  66.473  1.00  0.00    -0.320 A  
HETATM    8  C   UNL     1      -6.827  16.721  67.136  1.00  0.00    -0.231 A  
HETATM    9  C   UNL     1      -6.907  15.379  67.480  1.00  0.00    -0.223 A  
HETATM   10  C   UNL     1      -8.025  14.643  67.105  1.00  0.00    -0.184 A  
HETATM   11  C   UNL     1      -9.069  15.244  66.381  1.00  0.00    -0.347 A  
HETATM   12  C   UNL     1      -9.070  16.644  66.175  1.00  0.00    -0.283 A  
HETATM   13  H2  UNL     1      -9.757  17.680  64.623  1.00  0.00     0.000 HD 
HETATM   14  N   UNL     1     -10.125  17.287  65.490  1.00  0.00    -0.588 NA 
HETATM   15  H1  UNL     1     -10.977  16.769  65.275  1.00  0.00     0.000 HD 
BRANCH  11  16
HETATM   16  C   UNL     1     -10.180  14.374  65.873  1.00  0.00    -0.325 C  
HETATM   17  O   UNL     1     -10.664  14.569  64.764  1.00  0.00    -0.413 OA 
BRANCH  16  18
HETATM   18  C   UNL     1     -10.734  13.284  66.746  1.00  0.00    -0.279 A  
HETATM   19  C   UNL     1     -10.698  11.934  66.359  1.00  0.00    -0.303 A  
HETATM   20  C   UNL     1     -11.055  10.931  67.264  1.00  0.00    -0.350 A  
HETATM   21  C   UNL     1     -11.494  11.272  68.542  1.00  0.00    -0.372 A  
HETATM   22  C   UNL     1     -11.608  12.615  68.903  1.00  0.00    -0.363 A  
HETATM   23  C   UNL     1     -11.236  13.620  68.006  1.00  0.00    -0.295 A  
ENDBRANCH  16  18
ENDBRANCH  11  16
ENDBRANCH   6   7
ENDBRANCH   4   6
TORSDOF 4
ENDMDL
MODEL       90
REMARK 921   NORMALIZED FREE ENERGY PREDICTED BY IDOCK:   -5.08 KCAL/MOL
REMARK 922        TOTAL FREE ENERGY PREDICTED BY IDOCK:   -6.98 KCAL/MOL
REMARK 923 INTER-LIGAND FREE ENERGY PREDICTED BY IDOCK:   -5.91 KCAL/MOL
REMARK 924 INTRA-LIGAND FREE ENERGY PREDICTED BY IDOCK:   -1.07 KCAL/MOL
REMARK 927      BINDING AFFINITY PREDICTED BY RF-SCORE:    0.00 PKD
ROOT
HETATM    1  N   UNL     1      -6.787  13.990  68.474  1.00  0.00    -0.095 N  
HETATM    2  H2  UNL     1      -6.372  13.072  68.629  1.00  0.00     0.000 HD 
HETATM    3  H1  UNL     1      -7.140  14.233  67.548  1.00  0.00     0.000 HD 
HETATM    4  C   UNL     1      -6.862  14.878  69.509  1.00  0.00    -0.172 C  
HETATM    5  O   UNL     1      -6.438  14.587  70.620  1.00  0.00    -0.158 OA 
ENDROOT
BRANCH   4   6
HETATM    6  C   UNL     1      -7.493  16.211  69.182  1.00  0.00    -0.221 C  
BRANCH   6   7
HETATM    7  C   UNL     1      -8.892  16.068  68.621  1.00  0.00    -0.210 A  
HETATM    8  C   UNL     1      -9.948  15.878  69.532  1.00  0.00    -0.274 A  
HETATM    9  C   UNL     1     -11.252  15.716  69.087  1.00  0.00    -0.315 A  
HETATM   10  C   UNL     1     -11.507  15.674  67.722  1.00  0.00    -0.209 A  
HETATM   11  C   UNL     1     -10.460  15.792  66.792  1.00  0.00    -0.305 A  
HETATM   12  C   UNL     1      -9.158  16.125  67.235  1.00  0.00    -0.203 A  
HETATM   13  H2  UNL     1      -7.402  15.561  66.493  1.00  0.00     0.000 HD 
HETATM   14  N   UNL     1      -8.091  16.293  66.324  1.00  0.00    -0.298 NA 
HETATM   15  H1  UNL     1      -8.284  16.334  65.323  1.00  0.00     0.000 HD 
BRANCH  11  16
HETATM   16  C   UNL     1     -10.769  15.592  65.339  1.00  0.00    -0.405 C  
HETATM   17  O   UNL     1     -10.866  16.554  64.585  1.00  0.00    -0.741 OA 
BRANCH  16  18
HETATM   18  C   UNL     1     -11.005  14.205  64.809  1.00  0.00    -0.409 A  
HETATM   19  C   UNL     1     -10.275  13.099  65.274  1.00  0.00    -0.299 A  
HETATM   20  C   UNL     1     -10.639  11.805  64.896  1.00  0.00    -0.344 A  
HETATM   21  C   UNL     1     -11.702  11.610  64.015  1.00  0.00    -0.339 A  
HETATM   22  C   UNL     1     -12.379  12.711  63.488  1.00  0.00    -0.591 A  
HETATM   23  C   UNL     1     -12.027  14.007  63.877  1.00  0.00    -0.322 A  
ENDBRANCH  16  18
ENDBRANCH  11  16
ENDBRANCH   6   7
ENDBRANCH   4   6
TORSDOF 4
ENDMDL
MODEL       91
REMARK 921   NORMALIZED FREE ENERGY PREDICTED BY IDOCK:   -5.07 KCAL/MOL
REMARK 922        TOTAL FREE ENERGY PREDICTED BY IDOCK:   -6.96 KCAL/MOL
REMARK 923 INTER-LIGAND FREE ENERGY PREDICTED BY IDOCK:   -5.99 KCAL/MOL
REMARK 924 INTRA-LIGAND FREE ENERGY PREDICTED BY IDOCK:   -0.98 KCAL/MOL
REMARK 927      BINDING AFFINITY PREDICTED BY RF-SCORE:    0.00 PKD
ROOT
HETATM    1  N   UNL     1     -13.458  15.386  70.478  1.00  0.00    -0.793 N  
HETATM    2  H2  UNL     1     -14.165  15.154  71.176  1.00  0.00     0.000 HD 
HETATM    3  H1  UNL     1     -13.514  16.276  69.982  1.00  0.00     0.000 HD 
HETATM    4  C   UNL     1     -12.451  14.500  70.221  1.00  0.00    -0.348 C  
HETATM    5  O   UNL     1     -12.383  13.433  70.816  1.00  0.00    -0.353 OA 
ENDROOT
BRANCH   4   6
HETATM    6  C   UNL     1     -11.453  14.933  69.173  1.00  0.00    -0.324 C  
BRANCH   6   7
HETATM    7  C   UNL     1     -11.473  14.041  67.950  1.00  0.00    -0.347 A  
HETATM    8  C   UNL     1     -12.273  14.436  66.862  1.00  0.00    -0.300 A  
HETATM    9  C   UNL     1     -12.357  13.654  65.719  1.00  0.00    -0.524 A  
HETATM   10  C   UNL     1     -11.696  12.433  65.676  1.00  0.00    -0.468 A  
HETATM   11  C   UNL     1     -10.947  11.984  66.777  1.00  0.00    -0.329 A  
HETATM   12  C   UNL     1     -10.720  12.847  67.875  1.00  0.00    -0.220 A  
HETATM   13  H2  UNL     1     -10.537  12.398  69.803  1.00  0.00     0.000 HD 
HETATM   14  N   UNL     1      -9.937  12.444  68.980  1.00  0.00    -0.413 NA 
HETATM   15  H1  UNL     1      -9.394  11.582  68.925  1.00  0.00     0.000 HD 
BRANCH  11  16
HETATM   16  C   UNL     1     -10.379  10.597  66.737  1.00  0.00    -0.245 C  
HETATM   17  O   UNL     1     -10.814   9.725  67.481  1.00  0.00    -0.283 OA 
BRANCH  16  18
HETATM   18  C   UNL     1      -9.238  10.283  65.811  1.00  0.00    -0.215 A  
HETATM   19  C   UNL     1      -7.899  10.460  66.197  1.00  0.00    -0.135 A  
HETATM   20  C   UNL     1      -6.863   9.992  65.385  1.00  0.00    -0.122 A  
HETATM   21  C   UNL     1      -7.156   9.389  64.163  1.00  0.00    -0.102 A  
HETATM   22  C   UNL     1      -8.481   9.284  63.739  1.00  0.00    -0.197 A  
HETATM   23  C   UNL     1      -9.521   9.736  64.557  1.00  0.00    -0.269 A  
ENDBRANCH  16  18
ENDBRANCH  11  16
ENDBRANCH   6   7
ENDBRANCH   4   6
TORSDOF 4
ENDMDL
MODEL       92
REMARK 921   NORMALIZED FREE ENERGY PREDICTED BY IDOCK:   -5.03 KCAL/MOL
REMARK 922        TOTAL FREE ENERGY PREDICTED BY IDOCK:   -6.91 KCAL/MOL
REMARK 923 INTER-LIGAND FREE ENERGY PREDICTED BY IDOCK:   -6.02 KCAL/MOL
REMARK 924 INTRA-LIGAND FREE ENERGY PREDICTED BY IDOCK:   -0.90 KCAL/MOL
REMARK 927      BINDING AFFINITY PREDICTED BY RF-SCORE:    0.00 PKD
ROOT
HETATM    1  N   UNL     1     -11.607   5.252  73.195  1.00  0.00    -0.522 N  
HETATM    2  H2  UNL     1     -11.361   4.377  73.658  1.00  0.00     0.000 HD 
HETATM    3  H1  UNL     1     -12.395   5.274  72.548  1.00  0.00     0.000 HD 
HETATM    4  C   UNL     1     -10.876   6.376  73.450  1.00  0.00    -0.217 C  
HETATM    5  O   UNL     1      -9.929   6.350  74.226  1.00  0.00    -0.260 OA 
ENDROOT
BRANCH   4   6
HETATM    6  C   UNL     1     -11.317   7.622  72.718  1.00  0.00    -0.419 C  
BRANCH   6   7
HETATM    7  C   UNL     1     -10.400   7.973  71.566  1.00  0.00    -0.258 A  
HETATM    8  C   UNL     1      -9.175   8.597  71.868  1.00  0.00    -0.345 A  
HETATM    9  C   UNL     1      -8.297   8.968  70.860  1.00  0.00    -0.238 A  
HETATM   10  C   UNL     1      -8.662   8.781  69.533  1.00  0.00    -0.138 A  
HETATM   11  C   UNL     1      -9.910   8.223  69.204  1.00  0.00    -0.179 A  
HETATM   12  C   UNL     1     -10.734   7.690  70.222  1.00  0.00    -0.239 A  
HETATM   13  H2  UNL     1     -12.719   7.650  70.332  1.00  0.00     0.000 HD 
HETATM   14  N   UNL     1     -11.975   7.084  69.923  1.00  0.00    -0.596 NA 
HETATM   15  H1  UNL     1     -12.216   6.881  68.953  1.00  0.00     0.000 HD 
BRANCH  11  16
HETATM   16  C   UNL     1     -10.315   8.181  67.761  1.00  0.00    -0.233 C  
HETATM   17  O   UNL     1     -10.538   7.109  67.209  1.00  0.00    -0.261 OA 
BRANCH  16  18
HETATM   18  C   UNL     1     -10.407   9.457  66.972  1.00  0.00    -0.322 A  
HETATM   19  C   UNL     1      -9.819   9.588  65.703  1.00  0.00    -0.343 A  
HETATM   20  C   UNL     1     -10.073  10.717  64.922  1.00  0.00    -0.387 A  
HETATM   21  C   UNL     1     -10.875  11.742  65.421  1.00  0.00    -0.347 A  
HETATM   22  C   UNL     1     -11.395  11.652  66.712  1.00  0.00    -0.354 A  
HETATM   23  C   UNL     1     -11.156  10.516  67.491  1.00  0.00    -0.358 A  
ENDBRANCH  16  18
ENDBRANCH  11  16
ENDBRANCH   6   7
ENDBRANCH   4   6
TORSDOF 4
ENDMDL
MODEL       93
REMARK 921   NORMALIZED FREE ENERGY PREDICTED BY IDOCK:   -5.03 KCAL/MOL
REMARK 922        TOTAL FREE ENERGY PREDICTED BY IDOCK:   -6.91 KCAL/MOL
REMARK 923 INTER-LIGAND FREE ENERGY PREDICTED BY IDOCK:   -6.71 KCAL/MOL
REMARK 924 INTRA-LIGAND FREE ENERGY PREDICTED BY IDOCK:   -0.20 KCAL/MOL
REMARK 927      BINDING AFFINITY PREDICTED BY RF-SCORE:    0.00 PKD
ROOT
HETATM    1  N   UNL     1      -9.358  13.622  65.971  1.00  0.00    -0.498 N  
HETATM    2  H2  UNL     1      -8.352  13.586  65.805  1.00  0.00     0.000 HD 
HETATM    3  H1  UNL     1      -9.931  14.281  65.443  1.00  0.00     0.000 HD 
HETATM    4  C   UNL     1      -9.917  12.788  66.896  1.00  0.00    -0.232 C  
HETATM    5  O   UNL     1      -9.229  11.997  67.529  1.00  0.00    -0.171 OA 
ENDROOT
BRANCH   4   6
HETATM    6  C   UNL     1     -11.412  12.914  67.070  1.00  0.00    -0.390 C  
BRANCH   6   7
HETATM    7  C   UNL     1     -11.841  12.791  68.516  1.00  0.00    -0.345 A  
HETATM    8  C   UNL     1     -11.937  13.973  69.274  1.00  0.00    -0.396 A  
HETATM    9  C   UNL     1     -12.300  13.932  70.613  1.00  0.00    -0.451 A  
HETATM   10  C   UNL     1     -12.506  12.703  71.228  1.00  0.00    -0.276 A  
HETATM   11  C   UNL     1     -12.348  11.506  70.509  1.00  0.00    -0.432 A  
HETATM   12  C   UNL     1     -12.144  11.545  69.110  1.00  0.00    -0.263 A  
HETATM   13  H2  UNL     1     -11.080  10.316  67.965  1.00  0.00     0.000 HD 
HETATM   14  N   UNL     1     -12.024  10.361  68.349  1.00  0.00    -0.749 NA 
HETATM   15  H1  UNL     1     -12.243   9.462  68.778  1.00  0.00     0.000 HD 
BRANCH  11  16
HETATM   16  C   UNL     1     -12.436  10.208  71.254  1.00  0.00    -0.406 C  
HETATM   17  O   UNL     1     -13.303  10.037  72.104  1.00  0.00    -0.444 OA 
BRANCH  16  18
HETATM   18  C   UNL     1     -11.428   9.125  70.991  1.00  0.00    -0.372 A  
HETATM   19  C   UNL     1     -10.052   9.395  70.916  1.00  0.00    -0.366 A  
HETATM   20  C   UNL     1      -9.131   8.347  70.850  1.00  0.00    -0.190 A  
HETATM   21  C   UNL     1      -9.579   7.028  70.811  1.00  0.00    -0.164 A  
HETATM   22  C   UNL     1     -10.948   6.759  70.805  1.00  0.00    -0.306 A  
HETATM   23  C   UNL     1     -11.872   7.804  70.887  1.00  0.00    -0.257 A  
ENDBRANCH  16  18
ENDBRANCH  11  16
ENDBRANCH   6   7
ENDBRANCH   4   6
TORSDOF 4
ENDMDL
MODEL       94
REMARK 921   NORMALIZED FREE ENERGY PREDICTED BY IDOCK:   -5.01 KCAL/MOL
REMARK 922        TOTAL FREE ENERGY PREDICTED BY IDOCK:   -6.90 KCAL/MOL
REMARK 923 INTER-LIGAND FREE ENERGY PREDICTED BY IDOCK:   -6.00 KCAL/MOL
REMARK 924 INTRA-LIGAND FREE ENERGY PREDICTED BY IDOCK:   -0.90 KCAL/MOL
REMARK 927      BINDING AFFINITY PREDICTED BY RF-SCORE:    0.00 PKD
ROOT
HETATM    1  N   UNL     1     -10.917  12.296  63.415  1.00  0.00    -0.602 N  
HETATM    2  H2  UNL     1     -11.180  12.632  62.489  1.00  0.00     0.000 HD 
HETATM    3  H1  UNL     1      -9.964  11.968  63.578  1.00  0.00     0.000 HD 
HETATM    4  C   UNL     1     -11.843  12.292  64.418  1.00  0.00    -0.388 C  
HETATM    5  O   UNL     1     -12.986  12.685  64.222  1.00  0.00    -0.730 OA 
ENDROOT
BRANCH   4   6
HETATM    6  C   UNL     1     -11.358  11.776  65.753  1.00  0.00    -0.309 C  
BRANCH   6   7
HETATM    7  C   UNL     1     -11.008  12.892  66.713  1.00  0.00    -0.300 A  
HETATM    8  C   UNL     1     -12.064  13.526  67.395  1.00  0.00    -0.360 A  
HETATM    9  C   UNL     1     -11.818  14.573  68.272  1.00  0.00    -0.347 A  
HETATM   10  C   UNL     1     -10.520  15.044  68.427  1.00  0.00    -0.238 A  
HETATM   11  C   UNL     1      -9.459  14.474  67.703  1.00  0.00    -0.209 A  
HETATM   12  C   UNL     1      -9.675  13.303  66.940  1.00  0.00    -0.248 A  
HETATM   13  H2  UNL     1      -8.817  12.744  65.235  1.00  0.00     0.000 HD 
HETATM   14  N   UNL     1      -8.622  12.678  66.234  1.00  0.00    -0.394 NA 
HETATM   15  H1  UNL     1      -7.660  12.975  66.398  1.00  0.00     0.000 HD 
BRANCH  11  16
HETATM   16  C   UNL     1      -8.107  15.115  67.793  1.00  0.00    -0.146 C  
HETATM   17  O   UNL     1      -7.128  14.457  68.128  1.00  0.00    -0.099 OA 
BRANCH  16  18
HETATM   18  C   UNL     1      -7.956  16.584  67.515  1.00  0.00    -0.176 A  
HETATM   19  C   UNL     1      -7.869  17.086  66.206  1.00  0.00    -0.346 A  
HETATM   20  C   UNL     1      -7.910  18.462  65.974  1.00  0.00    -0.175 A  
HETATM   21  C   UNL     1      -7.991  19.347  67.049  1.00  0.00    -0.287 A  
HETATM   22  C   UNL     1      -7.997  18.855  68.355  1.00  0.00    -0.373 A  
HETATM   23  C   UNL     1      -7.972  17.477  68.589  1.00  0.00    -0.268 A  
ENDBRANCH  16  18
ENDBRANCH  11  16
ENDBRANCH   6   7
ENDBRANCH   4   6
TORSDOF 4
ENDMDL
MODEL       95
REMARK 921   NORMALIZED FREE ENERGY PREDICTED BY IDOCK:   -4.99 KCAL/MOL
REMARK 922        TOTAL FREE ENERGY PREDICTED BY IDOCK:   -6.86 KCAL/MOL
REMARK 923 INTER-LIGAND FREE ENERGY PREDICTED BY IDOCK:   -6.11 KCAL/MOL
REMARK 924 INTRA-LIGAND FREE ENERGY PREDICTED BY IDOCK:   -0.75 KCAL/MOL
REMARK 927      BINDING AFFINITY PREDICTED BY RF-SCORE:    0.00 PKD
ROOT
HETATM    1  N   UNL     1     -11.062  13.975  64.381  1.00  0.00    -0.572 N  
HETATM    2  H2  UNL     1     -11.308  14.159  63.408  1.00  0.00     0.000 HD 
HETATM    3  H1  UNL     1     -10.081  13.852  64.636  1.00  0.00     0.000 HD 
HETATM    4  C   UNL     1     -12.048  13.897  65.321  1.00  0.00    -0.410 C  
HETATM    5  O   UNL     1     -13.224  14.045  65.015  1.00  0.00    -0.720 OA 
ENDROOT
BRANCH   4   6
HETATM    6  C   UNL     1     -11.584  13.622  66.733  1.00  0.00    -0.393 C  
BRANCH   6   7
HETATM    7  C   UNL     1     -10.843  14.793  67.339  1.00  0.00    -0.300 A  
HETATM    8  C   UNL     1     -11.583  15.713  68.105  1.00  0.00    -0.290 A  
HETATM    9  C   UNL     1     -10.972  16.824  68.670  1.00  0.00    -0.298 A  
HETATM   10  C   UNL     1      -9.627  17.065  68.419  1.00  0.00    -0.277 A  
HETATM   11  C   UNL     1      -8.883  16.199  67.600  1.00  0.00    -0.191 A  
HETATM   12  C   UNL     1      -9.453  14.981  67.161  1.00  0.00    -0.216 A  
HETATM   13  H2  UNL     1      -9.160  14.005  65.453  1.00  0.00     0.000 HD 
HETATM   14  N   UNL     1      -8.720  14.067  66.372  1.00  0.00    -0.435 NA 
HETATM   15  H1  UNL     1      -7.717  14.202  66.244  1.00  0.00     0.000 HD 
BRANCH  11  16
HETATM   16  C   UNL     1      -7.480  16.584  67.241  1.00  0.00    -0.164 C  
HETATM   17  O   UNL     1      -6.623  15.724  67.073  1.00  0.00    -0.284 OA 
BRANCH  16  18
HETATM   18  C   UNL     1      -7.108  18.036  67.130  1.00  0.00    -0.212 A  
HETATM   19  C   UNL     1      -6.731  18.793  68.252  1.00  0.00    -0.248 A  
HETATM   20  C   UNL     1      -6.220  20.083  68.092  1.00  0.00    -0.287 A  
HETATM   21  C   UNL     1      -6.127  20.642  66.819  1.00  0.00    -0.258 A  
HETATM   22  C   UNL     1      -6.575  19.924  65.709  1.00  0.00    -0.267 A  
HETATM   23  C   UNL     1      -7.071  18.626  65.864  1.00  0.00    -0.290 A  
ENDBRANCH  16  18
ENDBRANCH  11  16
ENDBRANCH   6   7
ENDBRANCH   4   6
TORSDOF 4
ENDMDL
MODEL       96
REMARK 921   NORMALIZED FREE ENERGY PREDICTED BY IDOCK:   -4.98 KCAL/MOL
REMARK 922        TOTAL FREE ENERGY PREDICTED BY IDOCK:   -6.85 KCAL/MOL
REMARK 923 INTER-LIGAND FREE ENERGY PREDICTED BY IDOCK:   -5.90 KCAL/MOL
REMARK 924 INTRA-LIGAND FREE ENERGY PREDICTED BY IDOCK:   -0.95 KCAL/MOL
REMARK 927      BINDING AFFINITY PREDICTED BY RF-SCORE:    0.00 PKD
ROOT
HETATM    1  N   UNL     1     -13.958   9.048  72.953  1.00  0.00    -0.896 N  
HETATM    2  H2  UNL     1     -14.642   9.805  72.922  1.00  0.00     0.000 HD 
HETATM    3  H1  UNL     1     -13.967   8.393  73.735  1.00  0.00     0.000 HD 
HETATM    4  C   UNL     1     -13.044   8.928  71.946  1.00  0.00    -0.386 C  
HETATM    5  O   UNL     1     -13.033   9.714  71.007  1.00  0.00    -0.317 OA 
ENDROOT
BRANCH   4   6
HETATM    6  C   UNL     1     -12.073   7.778  72.079  1.00  0.00    -0.351 C  
BRANCH   6   7
HETATM    7  C   UNL     1     -10.828   7.970  71.242  1.00  0.00    -0.267 A  
HETATM    8  C   UNL     1      -9.776   8.726  71.793  1.00  0.00    -0.380 A  
HETATM    9  C   UNL     1      -8.615   8.962  71.071  1.00  0.00    -0.255 A  
HETATM   10  C   UNL     1      -8.517   8.503  69.764  1.00  0.00    -0.129 A  
HETATM   11  C   UNL     1      -9.582   7.806  69.167  1.00  0.00    -0.155 A  
HETATM   12  C   UNL     1     -10.696   7.417  69.948  1.00  0.00    -0.243 A  
HETATM   13  H2  UNL     1     -12.604   7.256  69.413  1.00  0.00     0.000 HD 
HETATM   14  N   UNL     1     -11.764   6.679  69.391  1.00  0.00    -0.648 NA 
HETATM   15  H1  UNL     1     -11.668   6.279  68.457  1.00  0.00     0.000 HD 
BRANCH  11  16
HETATM   16  C   UNL     1      -9.485   7.464  67.711  1.00  0.00    -0.140 C  
HETATM   17  O   UNL     1      -9.273   6.310  67.356  1.00  0.00    -0.117 OA 
BRANCH  16  18
HETATM   18  C   UNL     1      -9.604   8.549  66.678  1.00  0.00    -0.292 A  
HETATM   19  C   UNL     1     -10.415   9.679  66.879  1.00  0.00    -0.282 A  
HETATM   20  C   UNL     1     -10.364  10.751  65.985  1.00  0.00    -0.300 A  
HETATM   21  C   UNL     1      -9.542  10.682  64.862  1.00  0.00    -0.323 A  
HETATM   22  C   UNL     1      -8.795   9.529  64.616  1.00  0.00    -0.250 A  
HETATM   23  C   UNL     1      -8.831   8.461  65.517  1.00  0.00    -0.172 A  
ENDBRANCH  16  18
ENDBRANCH  11  16
ENDBRANCH   6   7
ENDBRANCH   4   6
TORSDOF 4
ENDMDL
MODEL       97
REMARK 921   NORMALIZED FREE ENERGY PREDICTED BY IDOCK:   -4.97 KCAL/MOL
REMARK 922        TOTAL FREE ENERGY PREDICTED BY IDOCK:   -6.84 KCAL/MOL
REMARK 923 INTER-LIGAND FREE ENERGY PREDICTED BY IDOCK:   -6.04 KCAL/MOL
REMARK 924 INTRA-LIGAND FREE ENERGY PREDICTED BY IDOCK:   -0.80 KCAL/MOL
REMARK 927      BINDING AFFINITY PREDICTED BY RF-SCORE:    0.00 PKD
ROOT
HETATM    1  N   UNL     1      -9.647   9.403  68.870  1.00  0.00    -0.153 N  
HETATM    2  H2  UNL     1      -8.689   9.082  69.006  1.00  0.00     0.000 HD 
HETATM    3  H1  UNL     1     -10.413   8.907  69.325  1.00  0.00     0.000 HD 
HETATM    4  C   UNL     1      -9.885  10.490  68.079  1.00  0.00    -0.147 C  
HETATM    5  O   UNL     1      -8.966  11.085  67.532  1.00  0.00    -0.137 OA 
ENDROOT
BRANCH   4   6
HETATM    6  C   UNL     1     -11.336  10.889  67.937  1.00  0.00    -0.380 C  
BRANCH   6   7
HETATM    7  C   UNL     1     -11.501  12.327  67.495  1.00  0.00    -0.414 A  
HETATM    8  C   UNL     1     -11.710  12.572  66.125  1.00  0.00    -0.466 A  
HETATM    9  C   UNL     1     -11.846  13.867  65.646  1.00  0.00    -0.383 A  
HETATM   10  C   UNL     1     -11.707  14.937  66.522  1.00  0.00    -0.204 A  
HETATM   11  C   UNL     1     -11.429  14.720  67.882  1.00  0.00    -0.361 A  
HETATM   12  C   UNL     1     -11.457  13.406  68.406  1.00  0.00    -0.316 A  
HETATM   13  H2  UNL     1     -10.361  12.618  69.866  1.00  0.00     0.000 HD 
HETATM   14  N   UNL     1     -11.224  13.155  69.776  1.00  0.00    -0.488 NA 
HETATM   15  H1  UNL     1     -11.192  13.934  70.434  1.00  0.00     0.000 HD 
BRANCH  11  16
HETATM   16  C   UNL     1     -11.142  15.907  68.751  1.00  0.00    -0.328 C  
HETATM   17  O   UNL     1     -11.696  16.031  69.837  1.00  0.00    -0.325 OA 
BRANCH  16  18
HETATM   18  C   UNL     1     -10.201  16.976  68.270  1.00  0.00    -0.326 A  
HETATM   19  C   UNL     1     -10.666  18.152  67.658  1.00  0.00    -0.364 A  
HETATM   20  C   UNL     1      -9.785  19.201  67.386  1.00  0.00    -0.389 A  
HETATM   21  C   UNL     1      -8.429  19.064  67.680  1.00  0.00    -0.316 A  
HETATM   22  C   UNL     1      -7.950  17.867  68.214  1.00  0.00    -0.292 A  
HETATM   23  C   UNL     1      -8.832  16.822  68.502  1.00  0.00    -0.248 A  
ENDBRANCH  16  18
ENDBRANCH  11  16
ENDBRANCH   6   7
ENDBRANCH   4   6
TORSDOF 4
ENDMDL
MODEL       98
REMARK 921   NORMALIZED FREE ENERGY PREDICTED BY IDOCK:   -4.95 KCAL/MOL
REMARK 922        TOTAL FREE ENERGY PREDICTED BY IDOCK:   -6.82 KCAL/MOL
REMARK 923 INTER-LIGAND FREE ENERGY PREDICTED BY IDOCK:   -6.05 KCAL/MOL
REMARK 924 INTRA-LIGAND FREE ENERGY PREDICTED BY IDOCK:   -0.78 KCAL/MOL
REMARK 927      BINDING AFFINITY PREDICTED BY RF-SCORE:    0.00 PKD
ROOT
HETATM    1  N   UNL     1     -12.419  13.831  67.594  1.00  0.00    -0.332 N  
HETATM    2  H2  UNL     1     -12.882  13.943  66.692  1.00  0.00     0.000 HD 
HETATM    3  H1  UNL     1     -12.382  14.619  68.241  1.00  0.00     0.000 HD 
HETATM    4  C   UNL     1     -11.857  12.629  67.917  1.00  0.00    -0.332 C  
HETATM    5  O   UNL     1     -11.901  11.684  67.140  1.00  0.00    -0.608 OA 
ENDROOT
BRANCH   4   6
HETATM    6  C   UNL     1     -11.196  12.561  69.273  1.00  0.00    -0.256 C  
BRANCH   6   7
HETATM    7  C   UNL     1     -11.875  11.577  70.201  1.00  0.00    -0.440 A  
HETATM    8  C   UNL     1     -12.746  12.090  71.180  1.00  0.00    -0.365 A  
HETATM    9  C   UNL     1     -13.383  11.247  72.079  1.00  0.00    -0.386 A  
HETATM   10  C   UNL     1     -13.105   9.886  72.054  1.00  0.00    -0.545 A  
HETATM   11  C   UNL     1     -12.186   9.358  71.131  1.00  0.00    -0.402 A  
HETATM   12  C   UNL     1     -11.663  10.182  70.107  1.00  0.00    -0.256 A  
HETATM   13  H2  UNL     1      -9.867  10.134  69.256  1.00  0.00     0.000 HD 
HETATM   14  N   UNL     1     -10.770   9.675  69.137  1.00  0.00    -0.221 NA 
HETATM   15  H1  UNL     1     -10.618   8.669  69.069  1.00  0.00     0.000 HD 
BRANCH  11  16
HETATM   16  C   UNL     1     -11.811   7.911  71.244  1.00  0.00    -0.296 C  
HETATM   17  O   UNL     1     -12.569   7.039  70.836  1.00  0.00    -0.353 OA 
BRANCH  16  18
HETATM   18  C   UNL     1     -10.516   7.524  71.902  1.00  0.00    -0.235 A  
HETATM   19  C   UNL     1      -9.867   6.314  71.605  1.00  0.00    -0.184 A  
HETATM   20  C   UNL     1      -8.583   6.065  72.094  1.00  0.00    -0.128 A  
HETATM   21  C   UNL     1      -7.959   6.999  72.920  1.00  0.00    -0.115 A  
HETATM   22  C   UNL     1      -8.633   8.166  73.282  1.00  0.00    -0.308 A  
HETATM   23  C   UNL     1      -9.912   8.426  72.781  1.00  0.00    -0.285 A  
ENDBRANCH  16  18
ENDBRANCH  11  16
ENDBRANCH   6   7
ENDBRANCH   4   6
TORSDOF 4
ENDMDL
MODEL       99
REMARK 921   NORMALIZED FREE ENERGY PREDICTED BY IDOCK:   -4.95 KCAL/MOL
REMARK 922        TOTAL FREE ENERGY PREDICTED BY IDOCK:   -6.82 KCAL/MOL
REMARK 923 INTER-LIGAND FREE ENERGY PREDICTED BY IDOCK:   -5.96 KCAL/MOL
REMARK 924 INTRA-LIGAND FREE ENERGY PREDICTED BY IDOCK:   -0.86 KCAL/MOL
REMARK 927      BINDING AFFINITY PREDICTED BY RF-SCORE:    0.00 PKD
ROOT
HETATM    1  N   UNL     1      -9.463  19.050  68.718  1.00  0.00    -0.381 N  
HETATM    2  H2  UNL     1      -8.578  19.400  69.085  1.00  0.00     0.000 HD 
HETATM    3  H1  UNL     1     -10.304  19.622  68.804  1.00  0.00     0.000 HD 
HETATM    4  C   UNL     1      -9.505  17.823  68.121  1.00  0.00    -0.282 C  
HETATM    5  O   UNL     1      -8.497  17.137  68.018  1.00  0.00    -0.208 OA 
ENDROOT
BRANCH   4   6
HETATM    6  C   UNL     1     -10.860  17.392  67.610  1.00  0.00    -0.233 C  
BRANCH   6   7
HETATM    7  C   UNL     1     -11.348  16.118  68.266  1.00  0.00    -0.316 A  
HETATM    8  C   UNL     1     -11.740  16.183  69.616  1.00  0.00    -0.193 A  
HETATM    9  C   UNL     1     -12.175  15.049  70.286  1.00  0.00    -0.390 A  
HETATM   10  C   UNL     1     -12.160  13.822  69.635  1.00  0.00    -0.392 A  
HETATM   11  C   UNL     1     -11.707  13.720  68.308  1.00  0.00    -0.394 A  
HETATM   12  C   UNL     1     -11.423  14.891  67.568  1.00  0.00    -0.348 A  
HETATM   13  H2  UNL     1     -10.052  15.179  66.157  1.00  0.00     0.000 HD 
HETATM   14  N   UNL     1     -11.008  14.828  66.219  1.00  0.00    -0.325 NA 
HETATM   15  H1  UNL     1     -11.062  13.943  65.716  1.00  0.00     0.000 HD 
BRANCH  11  16
HETATM   16  C   UNL     1     -11.571  12.355  67.703  1.00  0.00    -0.357 C  
HETATM   17  O   UNL     1     -12.095  12.098  66.625  1.00  0.00    -0.622 OA 
BRANCH  16  18
HETATM   18  C   UNL     1     -10.824  11.281  68.441  1.00  0.00    -0.248 A  
HETATM   19  C   UNL     1      -9.441  11.093  68.279  1.00  0.00    -0.182 A  
HETATM   20  C   UNL     1      -8.747  10.210  69.109  1.00  0.00    -0.173 A  
HETATM   21  C   UNL     1      -9.435   9.475  70.073  1.00  0.00    -0.265 A  
HETATM   22  C   UNL     1     -10.821   9.599  70.184  1.00  0.00    -0.325 A  
HETATM   23  C   UNL     1     -11.516  10.494  69.365  1.00  0.00    -0.329 A  
ENDBRANCH  16  18
ENDBRANCH  11  16
ENDBRANCH   6   7
ENDBRANCH   4   6
TORSDOF 4
ENDMDL
MODEL      100
REMARK 921   NORMALIZED FREE ENERGY PREDICTED BY IDOCK:   -4.93 KCAL/MOL
REMARK 922        TOTAL FREE ENERGY PREDICTED BY IDOCK:   -6.79 KCAL/MOL
REMARK 923 INTER-LIGAND FREE ENERGY PREDICTED BY IDOCK:   -5.94 KCAL/MOL
REMARK 924 INTRA-LIGAND FREE ENERGY PREDICTED BY IDOCK:   -0.85 KCAL/MOL
REMARK 927      BINDING AFFINITY PREDICTED BY RF-SCORE:    0.00 PKD
ROOT
HETATM    1  N   UNL     1      -9.530   7.231  72.057  1.00  0.00    -0.134 N  
HETATM    2  H2  UNL     1      -8.675   7.105  72.599  1.00  0.00     0.000 HD 
HETATM    3  H1  UNL     1      -9.480   7.256  71.039  1.00  0.00     0.000 HD 
HETATM    4  C   UNL     1     -10.724   7.366  72.706  1.00  0.00    -0.314 C  
HETATM    5  O   UNL     1     -10.784   7.337  73.928  1.00  0.00    -0.318 OA 
ENDROOT
BRANCH   4   6
HETATM    6  C   UNL     1     -11.933   7.549  71.818  1.00  0.00    -0.334 C  
BRANCH   6   7
HETATM    7  C   UNL     1     -11.992   8.927  71.195  1.00  0.00    -0.344 A  
HETATM    8  C   UNL     1     -12.678   9.935  71.896  1.00  0.00    -0.501 A  
HETATM    9  C   UNL     1     -12.793  11.215  71.372  1.00  0.00    -0.544 A  
HETATM   10  C   UNL     1     -12.280  11.485  70.110  1.00  0.00    -0.387 A  
HETATM   11  C   UNL     1     -11.651  10.476  69.360  1.00  0.00    -0.318 A  
HETATM   12  C   UNL     1     -11.383   9.220  69.953  1.00  0.00    -0.061 A  
HETATM   13  H2  UNL     1     -11.360   7.418  69.113  1.00  0.00     0.000 HD 
HETATM   14  N   UNL     1     -10.715   8.198  69.244  1.00  0.00    -0.369 NA 
HETATM   15  H1  UNL     1     -10.276   8.410  68.348  1.00  0.00     0.000 HD 
BRANCH  11  16
HETATM   16  C   UNL     1     -11.250  10.780  67.948  1.00  0.00    -0.318 C  
HETATM   17  O   UNL     1     -11.146   9.878  67.124  1.00  0.00    -0.163 OA 
BRANCH  16  18
HETATM   18  C   UNL     1     -10.931  12.193  67.549  1.00  0.00    -0.304 A  
HETATM   19  C   UNL     1     -11.747  12.916  66.663  1.00  0.00    -0.452 A  
HETATM   20  C   UNL     1     -11.525  14.279  66.454  1.00  0.00    -0.361 A  
HETATM   21  C   UNL     1     -10.460  14.916  67.088  1.00  0.00    -0.271 A  
HETATM   22  C   UNL     1      -9.598  14.183  67.905  1.00  0.00    -0.223 A  
HETATM   23  C   UNL     1      -9.827  12.823  68.130  1.00  0.00    -0.226 A  
ENDBRANCH  16  18
ENDBRANCH  11  16
ENDBRANCH   6   7
ENDBRANCH   4   6
TORSDOF 4
ENDMDL
MODEL      101
REMARK 921   NORMALIZED FREE ENERGY PREDICTED BY IDOCK:   -4.93 KCAL/MOL
REMARK 922        TOTAL FREE ENERGY PREDICTED BY IDOCK:   -6.79 KCAL/MOL
REMARK 923 INTER-LIGAND FREE ENERGY PREDICTED BY IDOCK:   -6.44 KCAL/MOL
REMARK 924 INTRA-LIGAND FREE ENERGY PREDICTED BY IDOCK:   -0.35 KCAL/MOL
REMARK 927      BINDING AFFINITY PREDICTED BY RF-SCORE:    0.00 PKD
ROOT
HETATM    1  N   UNL     1      -7.510  16.079  69.441  1.00  0.00    -0.228 N  
HETATM    2  H2  UNL     1      -7.374  15.117  69.752  1.00  0.00     0.000 HD 
HETATM    3  H1  UNL     1      -8.344  16.589  69.735  1.00  0.00     0.000 HD 
HETATM    4  C   UNL     1      -6.574  16.666  68.639  1.00  0.00    -0.159 C  
HETATM    5  O   UNL     1      -5.573  16.055  68.287  1.00  0.00    -0.098 OA 
ENDROOT
BRANCH   4   6
HETATM    6  C   UNL     1      -6.863  18.092  68.233  1.00  0.00    -0.217 C  
BRANCH   6   7
HETATM    7  C   UNL     1      -8.280  18.276  67.734  1.00  0.00    -0.253 A  
HETATM    8  C   UNL     1      -9.069  19.266  68.350  1.00  0.00    -0.408 A  
HETATM    9  C   UNL     1     -10.385  19.473  67.959  1.00  0.00    -0.564 A  
HETATM   10  C   UNL     1     -10.948  18.647  66.994  1.00  0.00    -0.149 A  
HETATM   11  C   UNL     1     -10.202  17.607  66.414  1.00  0.00    -0.364 A  
HETATM   12  C   UNL     1      -8.817  17.498  66.683  1.00  0.00    -0.262 A  
HETATM   13  H2  UNL     1      -7.693  15.864  66.816  1.00  0.00     0.000 HD 
HETATM   14  N   UNL     1      -8.027  16.492  66.085  1.00  0.00    -0.266 NA 
HETATM   15  H1  UNL     1      -8.415  15.930  65.327  1.00  0.00     0.000 HD 
BRANCH  11  16
HETATM   16  C   UNL     1     -10.900  16.655  65.490  1.00  0.00    -0.163 C  
HETATM   17  O   UNL     1     -11.183  16.994  64.346  1.00  0.00    -1.167 OA 
BRANCH  16  18
HETATM   18  C   UNL     1     -11.297  15.292  65.982  1.00  0.00    -0.162 A  
HETATM   19  C   UNL     1     -11.971  14.374  65.159  1.00  0.00    -0.391 A  
HETATM   20  C   UNL     1     -12.165  13.058  65.583  1.00  0.00    -0.521 A  
HETATM   21  C   UNL     1     -11.731  12.663  66.848  1.00  0.00    -0.453 A  
HETATM   22  C   UNL     1     -11.133  13.592  67.699  1.00  0.00    -0.293 A  
HETATM   23  C   UNL     1     -10.922  14.906  67.272  1.00  0.00    -0.323 A  
ENDBRANCH  16  18
ENDBRANCH  11  16
ENDBRANCH   6   7
ENDBRANCH   4   6
TORSDOF 4
ENDMDL
MODEL      102
REMARK 921   NORMALIZED FREE ENERGY PREDICTED BY IDOCK:   -4.92 KCAL/MOL
REMARK 922        TOTAL FREE ENERGY PREDICTED BY IDOCK:   -6.77 KCAL/MOL
REMARK 923 INTER-LIGAND FREE ENERGY PREDICTED BY IDOCK:   -5.82 KCAL/MOL
REMARK 924 INTRA-LIGAND FREE ENERGY PREDICTED BY IDOCK:   -0.95 KCAL/MOL
REMARK 927      BINDING AFFINITY PREDICTED BY RF-SCORE:    0.00 PKD
ROOT
HETATM    1  N   UNL     1     -10.850   5.692  66.203  1.00  0.00    -0.686 N  
HETATM    2  H2  UNL     1     -11.683   5.104  66.184  1.00  0.00     0.000 HD 
HETATM    3  H1  UNL     1     -10.225   5.705  65.397  1.00  0.00     0.000 HD 
HETATM    4  C   UNL     1     -10.588   6.451  67.308  1.00  0.00    -0.314 C  
HETATM    5  O   UNL     1     -11.337   6.435  68.276  1.00  0.00    -0.268 OA 
ENDROOT
BRANCH   4   6
HETATM    6  C   UNL     1      -9.332   7.288  67.241  1.00  0.00    -0.156 C  
BRANCH   6   7
HETATM    7  C   UNL     1      -9.498   8.514  66.370  1.00  0.00    -0.297 A  
HETATM    8  C   UNL     1      -8.803   8.548  65.147  1.00  0.00    -0.116 A  
HETATM    9  C   UNL     1      -8.889   9.651  64.309  1.00  0.00    -0.260 A  
HETATM   10  C   UNL     1      -9.619  10.762  64.715  1.00  0.00    -0.314 A  
HETATM   11  C   UNL     1     -10.265  10.779  65.963  1.00  0.00    -0.310 A  
HETATM   12  C   UNL     1     -10.320   9.601  66.744  1.00  0.00    -0.222 A  
HETATM   13  H2  UNL     1     -10.313   9.410  68.724  1.00  0.00     0.000 HD 
HETATM   14  N   UNL     1     -10.997   9.570  67.984  1.00  0.00    -0.486 NA 
HETATM   15  H1  UNL     1     -11.591  10.354  68.254  1.00  0.00     0.000 HD 
BRANCH  11  16
HETATM   16  C   UNL     1     -10.911  12.053  66.416  1.00  0.00    -0.296 C  
HETATM   17  O   UNL     1     -12.131  12.172  66.398  1.00  0.00    -0.630 OA 
BRANCH  16  18
HETATM   18  C   UNL     1     -10.058  13.210  66.853  1.00  0.00    -0.245 A  
HETATM   19  C   UNL     1      -9.175  13.112  67.942  1.00  0.00    -0.207 A  
HETATM   20  C   UNL     1      -8.269  14.140  68.210  1.00  0.00    -0.148 A  
HETATM   21  C   UNL     1      -8.271  15.291  67.424  1.00  0.00    -0.207 A  
HETATM   22  C   UNL     1      -9.200  15.428  66.392  1.00  0.00    -0.339 A  
HETATM   23  C   UNL     1     -10.097  14.393  66.111  1.00  0.00    -0.323 A  
ENDBRANCH  16  18
ENDBRANCH  11  16
ENDBRANCH   6   7
ENDBRANCH   4   6
TORSDOF 4
ENDMDL
MODEL      103
REMARK 921   NORMALIZED FREE ENERGY PREDICTED BY IDOCK:   -4.91 KCAL/MOL
REMARK 922        TOTAL FREE ENERGY PREDICTED BY IDOCK:   -6.77 KCAL/MOL
REMARK 923 INTER-LIGAND FREE ENERGY PREDICTED BY IDOCK:   -6.09 KCAL/MOL
REMARK 924 INTRA-LIGAND FREE ENERGY PREDICTED BY IDOCK:   -0.68 KCAL/MOL
REMARK 927      BINDING AFFINITY PREDICTED BY RF-SCORE:    0.00 PKD
ROOT
HETATM    1  N   UNL     1      -7.522  15.285  67.668  1.00  0.00    -0.158 N  
HETATM    2  H2  UNL     1      -6.644  14.973  68.083  1.00  0.00     0.000 HD 
HETATM    3  H1  UNL     1      -8.262  14.606  67.485  1.00  0.00     0.000 HD 
HETATM    4  C   UNL     1      -7.691  16.605  67.364  1.00  0.00    -0.163 C  
HETATM    5  O   UNL     1      -6.804  17.421  67.583  1.00  0.00    -0.150 OA 
ENDROOT
BRANCH   4   6
HETATM    6  C   UNL     1      -9.023  16.970  66.754  1.00  0.00    -0.267 C  
BRANCH   6   7
HETATM    7  C   UNL     1     -10.134  16.039  67.187  1.00  0.00    -0.270 A  
HETATM    8  C   UNL     1     -10.754  16.288  68.426  1.00  0.00    -0.311 A  
HETATM    9  C   UNL     1     -11.763  15.460  68.897  1.00  0.00    -0.377 A  
HETATM   10  C   UNL     1     -12.119  14.333  68.167  1.00  0.00    -0.275 A  
HETATM   11  C   UNL     1     -11.467  14.025  66.960  1.00  0.00    -0.370 A  
HETATM   12  C   UNL     1     -10.560  14.950  66.393  1.00  0.00    -0.307 A  
HETATM   13  H2  UNL     1      -8.917  14.600  65.329  1.00  0.00     0.000 HD 
HETATM   14  N   UNL     1      -9.919  14.692  65.161  1.00  0.00    -0.485 NA 
HETATM   15  H1  UNL     1     -10.226  13.906  64.587  1.00  0.00     0.000 HD 
BRANCH  11  16
HETATM   16  C   UNL     1     -11.785  12.723  66.289  1.00  0.00    -0.402 C  
HETATM   17  O   UNL     1     -12.651  12.665  65.423  1.00  0.00    -0.641 OA 
BRANCH  16  18
HETATM   18  C   UNL     1     -11.070  11.470  66.710  1.00  0.00    -0.361 A  
HETATM   19  C   UNL     1     -11.225  10.923  67.995  1.00  0.00    -0.378 A  
HETATM   20  C   UNL     1     -10.693   9.668  68.296  1.00  0.00    -0.262 A  
HETATM   21  C   UNL     1      -9.963   8.973  67.333  1.00  0.00    -0.266 A  
HETATM   22  C   UNL     1      -9.737   9.547  66.082  1.00  0.00    -0.324 A  
HETATM   23  C   UNL     1     -10.283  10.797  65.772  1.00  0.00    -0.319 A  
ENDBRANCH  16  18
ENDBRANCH  11  16
ENDBRANCH   6   7
ENDBRANCH   4   6
TORSDOF 4
ENDMDL
MODEL      104
REMARK 921   NORMALIZED FREE ENERGY PREDICTED BY IDOCK:   -4.91 KCAL/MOL
REMARK 922        TOTAL FREE ENERGY PREDICTED BY IDOCK:   -6.77 KCAL/MOL
REMARK 923 INTER-LIGAND FREE ENERGY PREDICTED BY IDOCK:   -5.92 KCAL/MOL
REMARK 924 INTRA-LIGAND FREE ENERGY PREDICTED BY IDOCK:   -0.85 KCAL/MOL
REMARK 927      BINDING AFFINITY PREDICTED BY RF-SCORE:    0.00 PKD
ROOT
HETATM    1  N   UNL     1     -11.770  11.887  67.534  1.00  0.00    -0.301 N  
HETATM    2  H2  UNL     1     -12.628  11.399  67.791  1.00  0.00     0.000 HD 
HETATM    3  H1  UNL     1     -11.009  11.957  68.211  1.00  0.00     0.000 HD 
HETATM    4  C   UNL     1     -11.656  12.437  66.290  1.00  0.00    -0.393 C  
HETATM    5  O   UNL     1     -12.568  12.353  65.478  1.00  0.00    -0.616 OA 
ENDROOT
BRANCH   4   6
HETATM    6  C   UNL     1     -10.349  13.138  66.003  1.00  0.00    -0.292 C  
BRANCH   6   7
HETATM    7  C   UNL     1     -10.482  14.645  66.025  1.00  0.00    -0.313 A  
HETATM    8  C   UNL     1     -10.836  15.291  64.826  1.00  0.00    -0.379 A  
HETATM    9  C   UNL     1     -10.952  16.673  64.768  1.00  0.00    -0.123 A  
HETATM   10  C   UNL     1     -10.650  17.431  65.892  1.00  0.00    -0.201 A  
HETATM   11  C   UNL     1     -10.227  16.814  67.082  1.00  0.00    -0.295 A  
HETATM   12  C   UNL     1     -10.268  15.405  67.198  1.00  0.00    -0.251 A  
HETATM   13  H2  UNL     1      -9.056  14.196  68.210  1.00  0.00     0.000 HD 
HETATM   14  N   UNL     1      -9.891  14.753  68.393  1.00  0.00    -0.214 NA 
HETATM   15  H1  UNL     1      -9.737  15.301  69.240  1.00  0.00     0.000 HD 
BRANCH  11  16
HETATM   16  C   UNL     1      -9.771  17.683  68.215  1.00  0.00    -0.315 C  
HETATM   17  O   UNL     1     -10.395  17.707  69.270  1.00  0.00    -0.319 OA 
BRANCH  16  18
HETATM   18  C   UNL     1      -8.567  18.565  68.043  1.00  0.00    -0.310 A  
HETATM   19  C   UNL     1      -8.650  19.821  67.420  1.00  0.00    -0.374 A  
HETATM   20  C   UNL     1      -7.557  20.690  67.436  1.00  0.00    -0.375 A  
HETATM   21  C   UNL     1      -6.361  20.293  68.032  1.00  0.00    -0.307 A  
HETATM   22  C   UNL     1      -6.248  19.015  68.581  1.00  0.00    -0.246 A  
HETATM   23  C   UNL     1      -7.346  18.149  68.581  1.00  0.00    -0.295 A  
ENDBRANCH  16  18
ENDBRANCH  11  16
ENDBRANCH   6   7
ENDBRANCH   4   6
TORSDOF 4
ENDMDL
MODEL      105
REMARK 921   NORMALIZED FREE ENERGY PREDICTED BY IDOCK:   -4.90 KCAL/MOL
REMARK 922        TOTAL FREE ENERGY PREDICTED BY IDOCK:   -6.75 KCAL/MOL
REMARK 923 INTER-LIGAND FREE ENERGY PREDICTED BY IDOCK:   -5.69 KCAL/MOL
REMARK 924 INTRA-LIGAND FREE ENERGY PREDICTED BY IDOCK:   -1.06 KCAL/MOL
REMARK 927      BINDING AFFINITY PREDICTED BY RF-SCORE:    0.00 PKD
ROOT
HETATM    1  N   UNL     1      -9.370  10.564  67.722  1.00  0.00    -0.148 N  
HETATM    2  H2  UNL     1      -8.859   9.863  68.259  1.00  0.00     0.000 HD 
HETATM    3  H1  UNL     1      -8.891  11.079  66.984  1.00  0.00     0.000 HD 
HETATM    4  C   UNL     1     -10.686  10.798  68.002  1.00  0.00    -0.228 C  
HETATM    5  O   UNL     1     -11.262  10.180  68.888  1.00  0.00    -0.225 OA 
ENDROOT
BRANCH   4   6
HETATM    6  C   UNL     1     -11.356  11.854  67.154  1.00  0.00    -0.393 C  
BRANCH   6   7
HETATM    7  C   UNL     1     -11.149  13.251  67.696  1.00  0.00    -0.292 A  
HETATM    8  C   UNL     1     -12.033  13.707  68.692  1.00  0.00    -0.395 A  
HETATM    9  C   UNL     1     -11.917  14.986  69.216  1.00  0.00    -0.322 A  
HETATM   10  C   UNL     1     -10.957  15.850  68.704  1.00  0.00    -0.320 A  
HETATM   11  C   UNL     1     -10.107  15.441  67.661  1.00  0.00    -0.236 A  
HETATM   12  C   UNL     1     -10.108  14.091  67.239  1.00  0.00    -0.249 A  
HETATM   13  H2  UNL     1      -9.798  13.347  65.421  1.00  0.00     0.000 HD 
HETATM   14  N   UNL     1      -9.238  13.636  66.224  1.00  0.00    -0.478 NA 
HETATM   15  H1  UNL     1      -8.487  14.243  65.894  1.00  0.00     0.000 HD 
BRANCH  11  16
HETATM   16  C   UNL     1      -9.193  16.457  67.044  1.00  0.00    -0.221 C  
HETATM   17  O   UNL     1      -9.085  16.538  65.826  1.00  0.00    -0.487 OA 
BRANCH  16  18
HETATM   18  C   UNL     1      -8.369  17.353  67.925  1.00  0.00    -0.230 A  
HETATM   19  C   UNL     1      -7.276  16.867  68.663  1.00  0.00    -0.215 A  
HETATM   20  C   UNL     1      -6.424  17.753  69.326  1.00  0.00    -0.244 A  
HETATM   21  C   UNL     1      -6.684  19.122  69.297  1.00  0.00    -0.340 A  
HETATM   22  C   UNL     1      -7.813  19.602  68.633  1.00  0.00    -0.349 A  
HETATM   23  C   UNL     1      -8.659  18.720  67.954  1.00  0.00    -0.321 A  
ENDBRANCH  16  18
ENDBRANCH  11  16
ENDBRANCH   6   7
ENDBRANCH   4   6
TORSDOF 4
ENDMDL
MODEL      106
REMARK 921   NORMALIZED FREE ENERGY PREDICTED BY IDOCK:   -4.89 KCAL/MOL
REMARK 922        TOTAL FREE ENERGY PREDICTED BY IDOCK:   -6.74 KCAL/MOL
REMARK 923 INTER-LIGAND FREE ENERGY PREDICTED BY IDOCK:   -6.09 KCAL/MOL
REMARK 924 INTRA-LIGAND FREE ENERGY PREDICTED BY IDOCK:   -0.65 KCAL/MOL
REMARK 927      BINDING AFFINITY PREDICTED BY RF-SCORE:    0.00 PKD
ROOT
HETATM    1  N   UNL     1     -13.473  15.342  70.407  1.00  0.00    -0.754 N  
HETATM    2  H2  UNL     1     -14.257  14.731  70.639  1.00  0.00     0.000 HD 
HETATM    3  H1  UNL     1     -13.631  16.158  69.815  1.00  0.00     0.000 HD 
HETATM    4  C   UNL     1     -12.230  15.055  70.891  1.00  0.00    -0.329 C  
HETATM    5  O   UNL     1     -12.040  14.075  71.601  1.00  0.00    -0.239 OA 
ENDROOT
BRANCH   4   6
HETATM    6  C   UNL     1     -11.136  16.017  70.493  1.00  0.00    -0.370 C  
BRANCH   6   7
HETATM    7  C   UNL     1     -10.329  15.522  69.312  1.00  0.00    -0.252 A  
HETATM    8  C   UNL     1      -8.970  15.226  69.523  1.00  0.00    -0.183 A  
HETATM    9  C   UNL     1      -8.165  14.791  68.480  1.00  0.00    -0.153 A  
HETATM   10  C   UNL     1      -8.693  14.711  67.197  1.00  0.00    -0.242 A  
HETATM   11  C   UNL     1     -10.030  15.069  66.948  1.00  0.00    -0.247 A  
HETATM   12  C   UNL     1     -10.897  15.350  68.029  1.00  0.00    -0.292 A  
HETATM   13  H2  UNL     1     -12.413  16.634  68.116  1.00  0.00     0.000 HD 
HETATM   14  N   UNL     1     -12.257  15.671  67.819  1.00  0.00     0.000 NA 
HETATM   15  H1  UNL     1     -12.667  15.546  66.893  1.00  0.00     0.000 HD 
BRANCH  11  16
HETATM   16  C   UNL     1     -10.506  15.108  65.527  1.00  0.00    -0.379 C  
HETATM   17  O   UNL     1     -10.626  16.178  64.942  1.00  0.00    -0.622 OA 
BRANCH  16  18
HETATM   18  C   UNL     1     -10.881  13.831  64.829  1.00  0.00    -0.410 A  
HETATM   19  C   UNL     1     -12.217  13.408  64.725  1.00  0.00    -0.454 A  
HETATM   20  C   UNL     1     -12.550  12.317  63.918  1.00  0.00    -0.544 A  
HETATM   21  C   UNL     1     -11.548  11.614  63.251  1.00  0.00    -0.246 A  
HETATM   22  C   UNL     1     -10.212  11.982  63.416  1.00  0.00    -0.457 A  
HETATM   23  C   UNL     1      -9.877  13.083  64.209  1.00  0.00     0.082 A  
ENDBRANCH  16  18
ENDBRANCH  11  16
ENDBRANCH   6   7
ENDBRANCH   4   6
TORSDOF 4
ENDMDL
MODEL      107
REMARK 921   NORMALIZED FREE ENERGY PREDICTED BY IDOCK:   -4.88 KCAL/MOL
REMARK 922        TOTAL FREE ENERGY PREDICTED BY IDOCK:   -6.73 KCAL/MOL
REMARK 923 INTER-LIGAND FREE ENERGY PREDICTED BY IDOCK:   -5.89 KCAL/MOL
REMARK 924 INTRA-LIGAND FREE ENERGY PREDICTED BY IDOCK:   -0.84 KCAL/MOL
REMARK 927      BINDING AFFINITY PREDICTED BY RF-SCORE:    0.00 PKD
ROOT
HETATM    1  N   UNL     1     -12.287  13.897  63.209  1.00  0.00    -1.148 N  
HETATM    2  H2  UNL     1     -12.361  13.442  62.299  1.00  0.00     0.000 HD 
HETATM    3  H1  UNL     1     -11.846  14.815  63.278  1.00  0.00     0.000 HD 
HETATM    4  C   UNL     1     -12.777  13.269  64.318  1.00  0.00    -0.072 C  
HETATM    5  O   UNL     1     -13.306  12.168  64.236  1.00  0.00    -0.761 OA 
ENDROOT
BRANCH   4   6
HETATM    6  C   UNL     1     -12.620  14.022  65.618  1.00  0.00    -0.542 C  
BRANCH   6   7
HETATM    7  C   UNL     1     -11.277  13.777  66.271  1.00  0.00    -0.310 A  
HETATM    8  C   UNL     1     -10.290  14.771  66.135  1.00  0.00    -0.314 A  
HETATM    9  C   UNL     1      -9.029  14.603  66.688  1.00  0.00    -0.267 A  
HETATM   10  C   UNL     1      -8.716  13.409  67.326  1.00  0.00    -0.219 A  
HETATM   11  C   UNL     1      -9.662  12.373  67.413  1.00  0.00    -0.193 A  
HETATM   12  C   UNL     1     -10.997  12.601  67.003  1.00  0.00    -0.265 A  
HETATM   13  H2  UNL     1     -12.287  11.332  66.179  1.00  0.00     0.000 HD 
HETATM   14  N   UNL     1     -11.984  11.597  67.117  1.00  0.00    -0.574 NA 
HETATM   15  H1  UNL     1     -11.782  10.748  67.645  1.00  0.00     0.000 HD 
BRANCH  11  16
HETATM   16  C   UNL     1      -9.228  11.054  67.978  1.00  0.00    -0.159 C  
HETATM   17  O   UNL     1      -9.183  10.881  69.191  1.00  0.00    -0.157 OA 
BRANCH  16  18
HETATM   18  C   UNL     1      -8.801   9.949  67.053  1.00  0.00    -0.144 A  
HETATM   19  C   UNL     1      -9.237   8.625  67.228  1.00  0.00    -0.167 A  
HETATM   20  C   UNL     1      -8.971   7.661  66.254  1.00  0.00    -0.203 A  
HETATM   21  C   UNL     1      -8.228   8.000  65.124  1.00  0.00    -0.147 A  
HETATM   22  C   UNL     1      -7.725   9.293  64.985  1.00  0.00    -0.109 A  
HETATM   23  C   UNL     1      -8.003  10.265  65.950  1.00  0.00    -0.137 A  
ENDBRANCH  16  18
ENDBRANCH  11  16
ENDBRANCH   6   7
ENDBRANCH   4   6
TORSDOF 4
ENDMDL
MODEL      108
REMARK 921   NORMALIZED FREE ENERGY PREDICTED BY IDOCK:   -4.85 KCAL/MOL
REMARK 922        TOTAL FREE ENERGY PREDICTED BY IDOCK:   -6.70 KCAL/MOL
REMARK 923 INTER-LIGAND FREE ENERGY PREDICTED BY IDOCK:   -6.11 KCAL/MOL
REMARK 924 INTRA-LIGAND FREE ENERGY PREDICTED BY IDOCK:   -0.59 KCAL/MOL
REMARK 927      BINDING AFFINITY PREDICTED BY RF-SCORE:    0.00 PKD
ROOT
HETATM    1  N   UNL     1     -11.392   4.699  65.300  1.00  0.00    -0.982 N  
HETATM    2  H2  UNL     1     -11.730   4.012  64.626  1.00  0.00     0.000 HD 
HETATM    3  H1  UNL     1     -11.959   5.522  65.507  1.00  0.00     0.000 HD 
HETATM    4  C   UNL     1     -10.187   4.504  65.912  1.00  0.00    -0.263 C  
HETATM    5  O   UNL     1      -9.507   3.517  65.665  1.00  0.00    -0.161 OA 
ENDROOT
BRANCH   4   6
HETATM    6  C   UNL     1      -9.773   5.575  66.894  1.00  0.00    -0.163 C  
BRANCH   6   7
HETATM    7  C   UNL     1      -9.365   6.862  66.211  1.00  0.00    -0.144 A  
HETATM    8  C   UNL     1      -8.312   6.805  65.279  1.00  0.00    -0.108 A  
HETATM    9  C   UNL     1      -7.870   7.951  64.633  1.00  0.00    -0.133 A  
HETATM   10  C   UNL     1      -8.431   9.179  64.961  1.00  0.00    -0.187 A  
HETATM   11  C   UNL     1      -9.436   9.271  65.939  1.00  0.00    -0.325 A  
HETATM   12  C   UNL     1     -10.006   8.093  66.477  1.00  0.00    -0.232 A  
HETATM   13  H2  UNL     1     -10.703   7.764  68.310  1.00  0.00     0.000 HD 
HETATM   14  N   UNL     1     -11.047   8.147  67.429  1.00  0.00    -0.389 NA 
HETATM   15  H1  UNL     1     -11.510   9.036  67.621  1.00  0.00     0.000 HD 
BRANCH  11  16
HETATM   16  C   UNL     1      -9.901  10.632  66.360  1.00  0.00    -0.211 C  
HETATM   17  O   UNL     1      -9.571  11.092  67.448  1.00  0.00    -0.167 OA 
BRANCH  16  18
HETATM   18  C   UNL     1     -10.814  11.422  65.465  1.00  0.00    -0.282 A  
HETATM   19  C   UNL     1     -11.783  12.299  65.981  1.00  0.00    -0.451 A  
HETATM   20  C   UNL     1     -12.489  13.149  65.128  1.00  0.00    -0.539 A  
HETATM   21  C   UNL     1     -12.268  13.095  63.752  1.00  0.00    -0.528 A  
HETATM   22  C   UNL     1     -11.365  12.170  63.228  1.00  0.00    -0.410 A  
HETATM   23  C   UNL     1     -10.644  11.329  64.081  1.00  0.00    -0.437 A  
ENDBRANCH  16  18
ENDBRANCH  11  16
ENDBRANCH   6   7
ENDBRANCH   4   6
TORSDOF 4
ENDMDL
MODEL      109
REMARK 921   NORMALIZED FREE ENERGY PREDICTED BY IDOCK:   -4.81 KCAL/MOL
REMARK 922        TOTAL FREE ENERGY PREDICTED BY IDOCK:   -6.64 KCAL/MOL
REMARK 923 INTER-LIGAND FREE ENERGY PREDICTED BY IDOCK:   -5.85 KCAL/MOL
REMARK 924 INTRA-LIGAND FREE ENERGY PREDICTED BY IDOCK:   -0.79 KCAL/MOL
REMARK 927      BINDING AFFINITY PREDICTED BY RF-SCORE:    0.00 PKD
ROOT
HETATM    1  N   UNL     1      -7.181   8.521  66.270  1.00  0.00    -0.077 N  
HETATM    2  H2  UNL     1      -6.214   8.592  66.584  1.00  0.00     0.000 HD 
HETATM    3  H1  UNL     1      -7.453   7.761  65.646  1.00  0.00     0.000 HD 
HETATM    4  C   UNL     1      -8.094   9.445  66.690  1.00  0.00    -0.108 C  
HETATM    5  O   UNL     1      -7.769  10.358  67.439  1.00  0.00    -0.094 OA 
ENDROOT
BRANCH   4   6
HETATM    6  C   UNL     1      -9.501   9.256  66.171  1.00  0.00    -0.298 C  
BRANCH   6   7
HETATM    7  C   UNL     1      -9.922  10.357  65.222  1.00  0.00    -0.376 A  
HETATM    8  C   UNL     1      -9.301  10.409  63.961  1.00  0.00    -0.321 A  
HETATM    9  C   UNL     1      -9.621  11.406  63.050  1.00  0.00    -0.397 A  
HETATM   10  C   UNL     1     -10.517  12.403  63.415  1.00  0.00    -0.353 A  
HETATM   11  C   UNL     1     -11.098  12.411  64.695  1.00  0.00    -0.348 A  
HETATM   12  C   UNL     1     -10.907  11.311  65.563  1.00  0.00    -0.179 A  
HETATM   13  H2  UNL     1     -10.776  11.291  67.547  1.00  0.00     0.000 HD 
HETATM   14  N   UNL     1     -11.511  11.267  66.840  1.00  0.00    -0.433 NA 
HETATM   15  H1  UNL     1     -12.222  11.956  67.086  1.00  0.00     0.000 HD 
BRANCH  11  16
HETATM   16  C   UNL     1     -11.940  13.587  65.089  1.00  0.00    -0.368 C  
HETATM   17  O   UNL     1     -13.108  13.666  64.723  1.00  0.00    -0.658 OA 
BRANCH  16  18
HETATM   18  C   UNL     1     -11.339  14.700  65.900  1.00  0.00    -0.338 A  
HETATM   19  C   UNL     1     -11.810  15.020  67.185  1.00  0.00    -0.141 A  
HETATM   20  C   UNL     1     -11.117  15.933  67.982  1.00  0.00    -0.334 A  
HETATM   21  C   UNL     1      -9.979  16.568  67.485  1.00  0.00    -0.255 A  
HETATM   22  C   UNL     1      -9.554  16.313  66.181  1.00  0.00    -0.362 A  
HETATM   23  C   UNL     1     -10.235  15.386  65.386  1.00  0.00    -0.408 A  
ENDBRANCH  16  18
ENDBRANCH  11  16
ENDBRANCH   6   7
ENDBRANCH   4   6
TORSDOF 4
ENDMDL
MODEL      110
REMARK 921   NORMALIZED FREE ENERGY PREDICTED BY IDOCK:   -4.79 KCAL/MOL
REMARK 922        TOTAL FREE ENERGY PREDICTED BY IDOCK:   -6.62 KCAL/MOL
REMARK 923 INTER-LIGAND FREE ENERGY PREDICTED BY IDOCK:   -5.79 KCAL/MOL
REMARK 924 INTRA-LIGAND FREE ENERGY PREDICTED BY IDOCK:   -0.83 KCAL/MOL
REMARK 927      BINDING AFFINITY PREDICTED BY RF-SCORE:    0.00 PKD
ROOT
HETATM    1  N   UNL     1     -11.509   6.321  69.303  1.00  0.00    -0.558 N  
HETATM    2  H2  UNL     1     -11.980   5.605  68.750  1.00  0.00     0.000 HD 
HETATM    3  H1  UNL     1     -11.598   6.311  70.320  1.00  0.00     0.000 HD 
HETATM    4  C   UNL     1     -10.769   7.279  68.672  1.00  0.00    -0.138 C  
HETATM    5  O   UNL     1     -10.662   7.291  67.452  1.00  0.00    -0.274 OA 
ENDROOT
BRANCH   4   6
HETATM    6  C   UNL     1     -10.109   8.295  69.575  1.00  0.00    -0.197 C  
BRANCH   6   7
HETATM    7  C   UNL     1     -10.759   9.659  69.485  1.00  0.00    -0.252 A  
HETATM    8  C   UNL     1     -11.538  10.087  70.576  1.00  0.00    -0.403 A  
HETATM    9  C   UNL     1     -12.182  11.316  70.552  1.00  0.00    -0.474 A  
HETATM   10  C   UNL     1     -12.111  12.102  69.409  1.00  0.00    -0.247 A  
HETATM   11  C   UNL     1     -11.397  11.664  68.280  1.00  0.00    -0.348 A  
HETATM   12  C   UNL     1     -10.603  10.497  68.358  1.00  0.00    -0.199 A  
HETATM   13  H2  UNL     1     -10.210   9.154  66.945  1.00  0.00     0.000 HD 
HETATM   14  N   UNL     1      -9.838  10.051  67.257  1.00  0.00    -0.174 NA 
HETATM   15  H1  UNL     1      -9.725  10.656  66.443  1.00  0.00     0.000 HD 
BRANCH  11  16
HETATM   16  C   UNL     1     -11.476  12.479  67.025  1.00  0.00    -0.356 C  
HETATM   17  O   UNL     1     -12.148  12.094  66.075  1.00  0.00    -0.612 OA 
BRANCH  16  18
HETATM   18  C   UNL     1     -10.690  13.756  66.911  1.00  0.00    -0.280 A  
HETATM   19  C   UNL     1     -11.211  14.892  66.270  1.00  0.00    -0.331 A  
HETATM   20  C   UNL     1     -10.534  16.112  66.338  1.00  0.00    -0.304 A  
HETATM   21  C   UNL     1      -9.312  16.193  67.004  1.00  0.00    -0.232 A  
HETATM   22  C   UNL     1      -8.752  15.048  67.572  1.00  0.00    -0.194 A  
HETATM   23  C   UNL     1      -9.435  13.830  67.520  1.00  0.00    -0.220 A  
ENDBRANCH  16  18
ENDBRANCH  11  16
ENDBRANCH   6   7
ENDBRANCH   4   6
TORSDOF 4
ENDMDL
MODEL      111
REMARK 921   NORMALIZED FREE ENERGY PREDICTED BY IDOCK:   -4.79 KCAL/MOL
REMARK 922        TOTAL FREE ENERGY PREDICTED BY IDOCK:   -6.62 KCAL/MOL
REMARK 923 INTER-LIGAND FREE ENERGY PREDICTED BY IDOCK:   -5.65 KCAL/MOL
REMARK 924 INTRA-LIGAND FREE ENERGY PREDICTED BY IDOCK:   -0.97 KCAL/MOL
REMARK 927      BINDING AFFINITY PREDICTED BY RF-SCORE:    0.00 PKD
ROOT
HETATM    1  N   UNL     1     -11.239  15.352  64.114  1.00  0.00    -0.608 N  
HETATM    2  H2  UNL     1     -11.074  15.812  63.218  1.00  0.00     0.000 HD 
HETATM    3  H1  UNL     1     -11.714  14.450  64.136  1.00  0.00     0.000 HD 
HETATM    4  C   UNL     1     -10.820  15.955  65.265  1.00  0.00    -0.387 C  
HETATM    5  O   UNL     1     -10.249  17.037  65.239  1.00  0.00    -0.601 OA 
ENDROOT
BRANCH   4   6
HETATM    6  C   UNL     1     -11.108  15.197  66.540  1.00  0.00    -0.305 C  
BRANCH   6   7
HETATM    7  C   UNL     1     -10.256  13.955  66.683  1.00  0.00    -0.276 A  
HETATM    8  C   UNL     1      -9.069  14.056  67.433  1.00  0.00    -0.209 A  
HETATM    9  C   UNL     1      -8.228  12.962  67.584  1.00  0.00    -0.177 A  
HETATM   10  C   UNL     1      -8.528  11.773  66.932  1.00  0.00    -0.174 A  
HETATM   11  C   UNL     1      -9.672  11.669  66.121  1.00  0.00    -0.253 A  
HETATM   12  C   UNL     1     -10.618  12.721  66.097  1.00  0.00    -0.266 A  
HETATM   13  H2  UNL     1     -11.762  13.341  64.594  1.00  0.00     0.000 HD 
HETATM   14  N   UNL     1     -11.798  12.632  65.327  1.00  0.00    -0.386 NA 
HETATM   15  H1  UNL     1     -12.059  11.741  64.904  1.00  0.00     0.000 HD 
BRANCH  11  16
HETATM   16  C   UNL     1      -9.869  10.416  65.322  1.00  0.00    -0.297 C  
HETATM   17  O   UNL     1     -10.218  10.476  64.148  1.00  0.00    -0.342 OA 
BRANCH  16  18
HETATM   18  C   UNL     1      -9.683   9.076  65.976  1.00  0.00    -0.339 A  
HETATM   19  C   UNL     1      -8.654   8.200  65.591  1.00  0.00    -0.181 A  
HETATM   20  C   UNL     1      -8.397   7.046  66.335  1.00  0.00    -0.125 A  
HETATM   21  C   UNL     1      -9.193   6.735  67.436  1.00  0.00    -0.130 A  
HETATM   22  C   UNL     1     -10.267   7.560  67.773  1.00  0.00    -0.257 A  
HETATM   23  C   UNL     1     -10.517   8.725  67.041  1.00  0.00    -0.338 A  
ENDBRANCH  16  18
ENDBRANCH  11  16
ENDBRANCH   6   7
ENDBRANCH   4   6
TORSDOF 4
ENDMDL
MODEL      112
REMARK 921   NORMALIZED FREE ENERGY PREDICTED BY IDOCK:   -4.78 KCAL/MOL
REMARK 922        TOTAL FREE ENERGY PREDICTED BY IDOCK:   -6.61 KCAL/MOL
REMARK 923 INTER-LIGAND FREE ENERGY PREDICTED BY IDOCK:   -5.92 KCAL/MOL
REMARK 924 INTRA-LIGAND FREE ENERGY PREDICTED BY IDOCK:   -0.69 KCAL/MOL
REMARK 927      BINDING AFFINITY PREDICTED BY RF-SCORE:    0.00 PKD
ROOT
HETATM    1  N   UNL     1      -7.364  16.475  66.571  1.00  0.00    -0.235 N  
HETATM    2  H2  UNL     1      -6.871  17.079  65.913  1.00  0.00     0.000 HD 
HETATM    3  H1  UNL     1      -6.845  16.024  67.325  1.00  0.00     0.000 HD 
HETATM    4  C   UNL     1      -8.707  16.279  66.427  1.00  0.00    -0.319 C  
HETATM    5  O   UNL     1      -9.330  16.819  65.522  1.00  0.00    -0.470 OA 
ENDROOT
BRANCH   4   6
HETATM    6  C   UNL     1      -9.347  15.368  67.449  1.00  0.00    -0.205 C  
BRANCH   6   7
HETATM    7  C   UNL     1     -10.240  14.323  66.815  1.00  0.00    -0.272 A  
HETATM    8  C   UNL     1     -11.600  14.640  66.641  1.00  0.00    -0.359 A  
HETATM    9  C   UNL     1     -12.480  13.720  66.089  1.00  0.00    -0.466 A  
HETATM   10  C   UNL     1     -12.025  12.447  65.767  1.00  0.00    -0.437 A  
HETATM   11  C   UNL     1     -10.687  12.084  65.997  1.00  0.00    -0.317 A  
HETATM   12  C   UNL     1      -9.750  13.064  66.399  1.00  0.00    -0.268 A  
HETATM   13  H2  UNL     1      -8.166  12.869  67.586  1.00  0.00     0.000 HD 
HETATM   14  N   UNL     1      -8.389  12.744  66.598  1.00  0.00    -0.413 NA 
HETATM   15  H1  UNL     1      -8.035  11.835  66.298  1.00  0.00     0.000 HD 
BRANCH  11  16
HETATM   16  C   UNL     1     -10.285  10.658  65.772  1.00  0.00    -0.252 C  
HETATM   17  O   UNL     1     -10.015  10.258  64.644  1.00  0.00    -0.336 OA 
BRANCH  16  18
HETATM   18  C   UNL     1     -10.256   9.698  66.927  1.00  0.00    -0.304 A  
HETATM   19  C   UNL     1     -10.579  10.100  68.234  1.00  0.00    -0.262 A  
HETATM   20  C   UNL     1     -10.717   9.151  69.250  1.00  0.00    -0.199 A  
HETATM   21  C   UNL     1     -10.487   7.803  68.979  1.00  0.00    -0.215 A  
HETATM   22  C   UNL     1     -10.086   7.409  67.701  1.00  0.00    -0.240 A  
HETATM   23  C   UNL     1      -9.964   8.354  66.679  1.00  0.00    -0.354 A  
ENDBRANCH  16  18
ENDBRANCH  11  16
ENDBRANCH   6   7
ENDBRANCH   4   6
TORSDOF 4
ENDMDL
MODEL      113
REMARK 921   NORMALIZED FREE ENERGY PREDICTED BY IDOCK:   -4.78 KCAL/MOL
REMARK 922        TOTAL FREE ENERGY PREDICTED BY IDOCK:   -6.61 KCAL/MOL
REMARK 923 INTER-LIGAND FREE ENERGY PREDICTED BY IDOCK:   -6.03 KCAL/MOL
REMARK 924 INTRA-LIGAND FREE ENERGY PREDICTED BY IDOCK:   -0.58 KCAL/MOL
REMARK 927      BINDING AFFINITY PREDICTED BY RF-SCORE:    0.00 PKD
ROOT
HETATM    1  N   UNL     1      -8.720   8.217  65.021  1.00  0.00    -0.382 N  
HETATM    2  H2  UNL     1      -7.794   8.220  64.593  1.00  0.00     0.000 HD 
HETATM    3  H1  UNL     1      -9.433   7.578  64.670  1.00  0.00     0.000 HD 
HETATM    4  C   UNL     1      -8.987   9.069  66.054  1.00  0.00    -0.185 C  
HETATM    5  O   UNL     1      -8.131   9.836  66.475  1.00  0.00    -0.115 OA 
ENDROOT
BRANCH   4   6
HETATM    6  C   UNL     1     -10.385   8.991  66.620  1.00  0.00    -0.289 C  
BRANCH   6   7
HETATM    7  C   UNL     1     -10.794  10.261  67.335  1.00  0.00    -0.336 A  
HETATM    8  C   UNL     1     -11.034  10.187  68.719  1.00  0.00    -0.264 A  
HETATM    9  C   UNL     1     -11.435  11.307  69.433  1.00  0.00    -0.370 A  
HETATM   10  C   UNL     1     -11.667  12.500  68.760  1.00  0.00    -0.371 A  
HETATM   11  C   UNL     1     -11.501  12.581  67.366  1.00  0.00    -0.404 A  
HETATM   12  C   UNL     1     -10.933  11.495  66.660  1.00  0.00    -0.296 A  
HETATM   13  H2  UNL     1     -11.312  10.869  64.811  1.00  0.00     0.000 HD 
HETATM   14  N   UNL     1     -10.712  11.557  65.266  1.00  0.00    -0.286 NA 
HETATM   15  H1  UNL     1     -10.813  12.448  64.779  1.00  0.00     0.000 HD 
BRANCH  11  16
HETATM   16  C   UNL     1     -11.906  13.845  66.671  1.00  0.00    -0.420 C  
HETATM   17  O   UNL     1     -12.899  13.868  65.952  1.00  0.00    -0.472 OA 
BRANCH  16  18
HETATM   18  C   UNL     1     -11.067  15.083  66.819  1.00  0.00    -0.326 A  
HETATM   19  C   UNL     1     -10.148  15.478  65.833  1.00  0.00    -0.374 A  
HETATM   20  C   UNL     1      -9.517  16.722  65.916  1.00  0.00    -0.185 A  
HETATM   21  C   UNL     1      -9.763  17.556  67.005  1.00  0.00    -0.284 A  
HETATM   22  C   UNL     1     -10.614  17.132  68.027  1.00  0.00    -0.374 A  
HETATM   23  C   UNL     1     -11.259  15.895  67.940  1.00  0.00    -0.297 A  
ENDBRANCH  16  18
ENDBRANCH  11  16
ENDBRANCH   6   7
ENDBRANCH   4   6
TORSDOF 4
ENDMDL
MODEL      114
REMARK 921   NORMALIZED FREE ENERGY PREDICTED BY IDOCK:   -4.78 KCAL/MOL
REMARK 922        TOTAL FREE ENERGY PREDICTED BY IDOCK:   -6.60 KCAL/MOL
REMARK 923 INTER-LIGAND FREE ENERGY PREDICTED BY IDOCK:   -5.73 KCAL/MOL
REMARK 924 INTRA-LIGAND FREE ENERGY PREDICTED BY IDOCK:   -0.87 KCAL/MOL
REMARK 927      BINDING AFFINITY PREDICTED BY RF-SCORE:    0.00 PKD
ROOT
HETATM    1  N   UNL     1     -12.825  12.378  64.253  1.00  0.00    -0.717 N  
HETATM    2  H2  UNL     1     -12.977  12.461  63.248  1.00  0.00     0.000 HD 
HETATM    3  H1  UNL     1     -12.951  11.474  64.708  1.00  0.00     0.000 HD 
HETATM    4  C   UNL     1     -12.454  13.480  64.970  1.00  0.00    -0.417 C  
HETATM    5  O   UNL     1     -12.302  14.565  64.424  1.00  0.00    -0.568 OA 
ENDROOT
BRANCH   4   6
HETATM    6  C   UNL     1     -12.252  13.258  66.450  1.00  0.00    -0.419 C  
BRANCH   6   7
HETATM    7  C   UNL     1     -11.080  12.346  66.745  1.00  0.00    -0.333 A  
HETATM    8  C   UNL     1      -9.891  12.551  66.021  1.00  0.00    -0.266 A  
HETATM    9  C   UNL     1      -8.786  11.737  66.223  1.00  0.00    -0.106 A  
HETATM   10  C   UNL     1      -8.878  10.665  67.103  1.00  0.00    -0.139 A  
HETATM   11  C   UNL     1     -10.077  10.399  67.786  1.00  0.00    -0.212 A  
HETATM   12  C   UNL     1     -11.149  11.319  67.713  1.00  0.00    -0.271 A  
HETATM   13  H2  UNL     1     -13.105  10.966  67.746  1.00  0.00     0.000 HD 
HETATM   14  N   UNL     1     -12.353  11.105  68.421  1.00  0.00    -0.607 NA 
HETATM   15  H1  UNL     1     -12.402  10.363  69.119  1.00  0.00     0.000 HD 
BRANCH  11  16
HETATM   16  C   UNL     1     -10.169   9.148  68.607  1.00  0.00    -0.204 C  
HETATM   17  O   UNL     1     -10.485   9.203  69.790  1.00  0.00    -0.208 OA 
BRANCH  16  18
HETATM   18  C   UNL     1      -9.829   7.821  67.988  1.00  0.00    -0.192 A  
HETATM   19  C   UNL     1      -8.668   7.114  68.341  1.00  0.00    -0.125 A  
HETATM   20  C   UNL     1      -8.472   5.808  67.887  1.00  0.00    -0.103 A  
HETATM   21  C   UNL     1      -9.409   5.219  67.040  1.00  0.00    -0.123 A  
HETATM   22  C   UNL     1     -10.524   5.946  66.622  1.00  0.00    -0.310 A  
HETATM   23  C   UNL     1     -10.731   7.248  67.089  1.00  0.00    -0.413 A  
ENDBRANCH  16  18
ENDBRANCH  11  16
ENDBRANCH   6   7
ENDBRANCH   4   6
TORSDOF 4
ENDMDL
MODEL      115
REMARK 921   NORMALIZED FREE ENERGY PREDICTED BY IDOCK:   -4.75 KCAL/MOL
REMARK 922        TOTAL FREE ENERGY PREDICTED BY IDOCK:   -6.58 KCAL/MOL
REMARK 923 INTER-LIGAND FREE ENERGY PREDICTED BY IDOCK:   -5.95 KCAL/MOL
REMARK 924 INTRA-LIGAND FREE ENERGY PREDICTED BY IDOCK:   -0.63 KCAL/MOL
REMARK 927      BINDING AFFINITY PREDICTED BY RF-SCORE:    0.00 PKD
ROOT
HETATM    1  N   UNL     1      -8.578  17.442  68.744  1.00  0.00    -0.257 N  
HETATM    2  H2  UNL     1      -8.769  17.600  69.733  1.00  0.00     0.000 HD 
HETATM    3  H1  UNL     1      -7.624  17.537  68.394  1.00  0.00     0.000 HD 
HETATM    4  C   UNL     1      -9.603  17.108  67.906  1.00  0.00    -0.266 C  
HETATM    5  O   UNL     1     -10.748  16.995  68.325  1.00  0.00    -0.358 OA 
ENDROOT
BRANCH   4   6
HETATM    6  C   UNL     1      -9.222  16.895  66.460  1.00  0.00    -0.295 C  
BRANCH   6   7
HETATM    7  C   UNL     1     -10.098  15.870  65.774  1.00  0.00    -0.389 A  
HETATM    8  C   UNL     1     -11.169  16.340  64.991  1.00  0.00    -0.181 A  
HETATM    9  C   UNL     1     -12.027  15.455  64.353  1.00  0.00    -0.235 A  
HETATM   10  C   UNL     1     -11.865  14.089  64.545  1.00  0.00    -0.452 A  
HETATM   11  C   UNL     1     -10.845  13.597  65.378  1.00  0.00    -0.302 A  
HETATM   12  C   UNL     1      -9.869  14.480  65.894  1.00  0.00    -0.321 A  
HETATM   13  H2  UNL     1      -8.910  14.409  67.634  1.00  0.00     0.000 HD 
HETATM   14  N   UNL     1      -8.806  14.015  66.699  1.00  0.00    -0.435 NA 
HETATM   15  H1  UNL     1      -8.640  13.012  66.785  1.00  0.00     0.000 HD 
BRANCH  11  16
HETATM   16  C   UNL     1     -10.807  12.127  65.669  1.00  0.00    -0.284 C  
HETATM   17  O   UNL     1     -11.308  11.683  66.697  1.00  0.00    -0.324 OA 
BRANCH  16  18
HETATM   18  C   UNL     1     -10.113  11.194  64.718  1.00  0.00    -0.351 A  
HETATM   19  C   UNL     1      -9.811  11.569  63.398  1.00  0.00    -0.422 A  
HETATM   20  C   UNL     1      -9.009  10.751  62.598  1.00  0.00    -0.326 A  
HETATM   21  C   UNL     1      -8.543   9.535  63.094  1.00  0.00    -0.218 A  
HETATM   22  C   UNL     1      -8.907   9.121  64.376  1.00  0.00    -0.156 A  
HETATM   23  C   UNL     1      -9.696   9.944  65.185  1.00  0.00    -0.376 A  
ENDBRANCH  16  18
ENDBRANCH  11  16
ENDBRANCH   6   7
ENDBRANCH   4   6
TORSDOF 4
ENDMDL
MODEL      116
REMARK 921   NORMALIZED FREE ENERGY PREDICTED BY IDOCK:   -4.73 KCAL/MOL
REMARK 922        TOTAL FREE ENERGY PREDICTED BY IDOCK:   -6.54 KCAL/MOL
REMARK 923 INTER-LIGAND FREE ENERGY PREDICTED BY IDOCK:   -5.65 KCAL/MOL
REMARK 924 INTRA-LIGAND FREE ENERGY PREDICTED BY IDOCK:   -0.89 KCAL/MOL
REMARK 927      BINDING AFFINITY PREDICTED BY RF-SCORE:    0.00 PKD
ROOT
HETATM    1  N   UNL     1      -8.956  16.762  67.587  1.00  0.00    -0.209 N  
HETATM    2  H2  UNL     1      -8.550  17.295  68.356  1.00  0.00     0.000 HD 
HETATM    3  H1  UNL     1      -8.415  16.014  67.152  1.00  0.00     0.000 HD 
HETATM    4  C   UNL     1     -10.217  17.059  67.155  1.00  0.00    -0.306 C  
HETATM    5  O   UNL     1     -10.867  17.956  67.676  1.00  0.00    -0.375 OA 
ENDROOT
BRANCH   4   6
HETATM    6  C   UNL     1     -10.731  16.215  66.012  1.00  0.00    -0.245 C  
BRANCH   6   7
HETATM    7  C   UNL     1     -11.075  14.805  66.442  1.00  0.00    -0.340 A  
HETATM    8  C   UNL     1     -11.684  14.632  67.699  1.00  0.00    -0.389 A  
HETATM    9  C   UNL     1     -12.004  13.366  68.167  1.00  0.00    -0.356 A  
HETATM   10  C   UNL     1     -11.659  12.251  67.413  1.00  0.00    -0.425 A  
HETATM   11  C   UNL     1     -10.988  12.395  66.186  1.00  0.00    -0.321 A  
HETATM   12  C   UNL     1     -10.810  13.682  65.627  1.00  0.00    -0.279 A  
HETATM   13  H2  UNL     1      -9.306  14.369  64.522  1.00  0.00     0.000 HD 
HETATM   14  N   UNL     1     -10.178  13.860  64.376  1.00  0.00    -0.732 NA 
HETATM   15  H1  UNL     1      -9.987  13.049  63.787  1.00  0.00     0.000 HD 
BRANCH  11  16
HETATM   16  C   UNL     1     -10.507  11.160  65.486  1.00  0.00    -0.256 C  
HETATM   17  O   UNL     1     -10.867  10.915  64.340  1.00  0.00    -0.299 OA 
BRANCH  16  18
HETATM   18  C   UNL     1      -9.613  10.191  66.208  1.00  0.00    -0.245 A  
HETATM   19  C   UNL     1      -8.312  10.539  66.609  1.00  0.00    -0.131 A  
HETATM   20  C   UNL     1      -7.576   9.684  67.432  1.00  0.00    -0.095 A  
HETATM   21  C   UNL     1      -8.114   8.458  67.820  1.00  0.00    -0.122 A  
HETATM   22  C   UNL     1      -9.373   8.073  67.358  1.00  0.00    -0.173 A  
HETATM   23  C   UNL     1     -10.119   8.934  66.548  1.00  0.00    -0.356 A  
ENDBRANCH  16  18
ENDBRANCH  11  16
ENDBRANCH   6   7
ENDBRANCH   4   6
TORSDOF 4
ENDMDL
MODEL      117
REMARK 921   NORMALIZED FREE ENERGY PREDICTED BY IDOCK:   -4.72 KCAL/MOL
REMARK 922        TOTAL FREE ENERGY PREDICTED BY IDOCK:   -6.53 KCAL/MOL
REMARK 923 INTER-LIGAND FREE ENERGY PREDICTED BY IDOCK:   -5.85 KCAL/MOL
REMARK 924 INTRA-LIGAND FREE ENERGY PREDICTED BY IDOCK:   -0.68 KCAL/MOL
REMARK 927      BINDING AFFINITY PREDICTED BY RF-SCORE:    0.00 PKD
ROOT
HETATM    1  N   UNL     1      -8.224  11.114  65.002  1.00  0.00    -0.360 N  
HETATM    2  H2  UNL     1      -7.583  11.744  64.518  1.00  0.00     0.000 HD 
HETATM    3  H1  UNL     1      -7.858  10.454  65.688  1.00  0.00     0.000 HD 
HETATM    4  C   UNL     1      -9.559  11.168  64.720  1.00  0.00    -0.240 C  
HETATM    5  O   UNL     1      -9.998  11.960  63.896  1.00  0.00    -0.320 OA 
ENDROOT
BRANCH   4   6
HETATM    6  C   UNL     1     -10.427  10.197  65.486  1.00  0.00    -0.076 C  
BRANCH   6   7
HETATM    7  C   UNL     1     -10.837  10.731  66.842  1.00  0.00    -0.288 A  
HETATM    8  C   UNL     1     -11.218  12.084  66.926  1.00  0.00    -0.375 A  
HETATM    9  C   UNL     1     -11.582  12.646  68.142  1.00  0.00    -0.386 A  
HETATM   10  C   UNL     1     -11.506  11.881  69.299  1.00  0.00    -0.366 A  
HETATM   11  C   UNL     1     -11.062  10.548  69.250  1.00  0.00    -0.298 A  
HETATM   12  C   UNL     1     -10.851   9.921  67.999  1.00  0.00    -0.243 A  
HETATM   13  H2  UNL     1      -9.512   8.537  67.503  1.00  0.00     0.000 HD 
HETATM   14  N   UNL     1     -10.446   8.570  67.912  1.00  0.00    -0.331 NA 
HETATM   15  H1  UNL     1     -10.456   7.985  68.747  1.00  0.00     0.000 HD 
BRANCH  11  16
HETATM   16  C   UNL     1     -10.856   9.816  70.541  1.00  0.00    -0.323 C  
HETATM   17  O   UNL     1      -9.727   9.653  70.990  1.00  0.00    -0.200 OA 
BRANCH  16  18
HETATM   18  C   UNL     1     -12.036   9.237  71.269  1.00  0.00    -0.412 A  
HETATM   19  C   UNL     1     -12.934  10.045  71.988  1.00  0.00    -0.514 A  
HETATM   20  C   UNL     1     -14.114   9.504  72.500  1.00  0.00    -0.122 A  
HETATM   21  C   UNL     1     -14.384   8.145  72.341  1.00  0.00    -0.302 A  
HETATM   22  C   UNL     1     -13.457   7.323  71.698  1.00  0.00    -0.428 A  
HETATM   23  C   UNL     1     -12.282   7.865  71.169  1.00  0.00    -0.273 A  
ENDBRANCH  16  18
ENDBRANCH  11  16
ENDBRANCH   6   7
ENDBRANCH   4   6
TORSDOF 4
ENDMDL
MODEL      118
REMARK 921   NORMALIZED FREE ENERGY PREDICTED BY IDOCK:   -4.72 KCAL/MOL
REMARK 922        TOTAL FREE ENERGY PREDICTED BY IDOCK:   -6.53 KCAL/MOL
REMARK 923 INTER-LIGAND FREE ENERGY PREDICTED BY IDOCK:   -5.88 KCAL/MOL
REMARK 924 INTRA-LIGAND FREE ENERGY PREDICTED BY IDOCK:   -0.65 KCAL/MOL
REMARK 927      BINDING AFFINITY PREDICTED BY RF-SCORE:    0.00 PKD
ROOT
HETATM    1  N   UNL     1      -9.895  16.631  65.750  1.00  0.00    -0.258 N  
HETATM    2  H2  UNL     1      -9.300  17.369  65.375  1.00  0.00     0.000 HD 
HETATM    3  H1  UNL     1      -9.704  16.253  66.678  1.00  0.00     0.000 HD 
HETATM    4  C   UNL     1     -10.937  16.162  65.001  1.00  0.00    -0.344 C  
HETATM    5  O   UNL     1     -11.167  16.615  63.888  1.00  0.00    -0.955 OA 
ENDROOT
BRANCH   4   6
HETATM    6  C   UNL     1     -11.760  15.069  65.641  1.00  0.00    -0.123 C  
BRANCH   6   7
HETATM    7  C   UNL     1     -11.214  13.687  65.355  1.00  0.00    -0.306 A  
HETATM    8  C   UNL     1     -11.625  13.051  64.169  1.00  0.00    -0.462 A  
HETATM    9  C   UNL     1     -11.182  11.774  63.855  1.00  0.00    -0.493 A  
HETATM   10  C   UNL     1     -10.376  11.090  64.756  1.00  0.00    -0.389 A  
HETATM   11  C   UNL     1     -10.008  11.677  65.979  1.00  0.00    -0.260 A  
HETATM   12  C   UNL     1     -10.315  13.035  66.230  1.00  0.00    -0.285 A  
HETATM   13  H2  UNL     1     -10.763  13.920  67.953  1.00  0.00     0.000 HD 
HETATM   14  N   UNL     1      -9.924  13.670  67.430  1.00  0.00    -0.231 NA 
HETATM   15  H1  UNL     1      -9.276  13.199  68.061  1.00  0.00     0.000 HD 
BRANCH  11  16
HETATM   16  C   UNL     1      -9.264  10.843  66.977  1.00  0.00    -0.152 C  
HETATM   17  O   UNL     1      -8.053  10.683  66.874  1.00  0.00    -0.118 OA 
BRANCH  16  18
HETATM   18  C   UNL     1     -10.012  10.159  68.087  1.00  0.00    -0.170 A  
HETATM   19  C   UNL     1     -10.051   8.759  68.203  1.00  0.00    -0.228 A  
HETATM   20  C   UNL     1     -10.600   8.161  69.339  1.00  0.00    -0.206 A  
HETATM   21  C   UNL     1     -11.154   8.953  70.343  1.00  0.00    -0.270 A  
HETATM   22  C   UNL     1     -11.190  10.341  70.195  1.00  0.00    -0.387 A  
HETATM   23  C   UNL     1     -10.627  10.943  69.066  1.00  0.00    -0.248 A  
ENDBRANCH  16  18
ENDBRANCH  11  16
ENDBRANCH   6   7
ENDBRANCH   4   6
TORSDOF 4
ENDMDL
MODEL      119
REMARK 921   NORMALIZED FREE ENERGY PREDICTED BY IDOCK:   -4.70 KCAL/MOL
REMARK 922        TOTAL FREE ENERGY PREDICTED BY IDOCK:   -6.51 KCAL/MOL
REMARK 923 INTER-LIGAND FREE ENERGY PREDICTED BY IDOCK:   -5.73 KCAL/MOL
REMARK 924 INTRA-LIGAND FREE ENERGY PREDICTED BY IDOCK:   -0.78 KCAL/MOL
REMARK 927      BINDING AFFINITY PREDICTED BY RF-SCORE:    0.00 PKD
ROOT
HETATM    1  N   UNL     1      -9.485  12.054  64.087  1.00  0.00    -0.492 N  
HETATM    2  H2  UNL     1      -9.020  11.735  63.236  1.00  0.00     0.000 HD 
HETATM    3  H1  UNL     1      -9.561  13.054  64.273  1.00  0.00     0.000 HD 
HETATM    4  C   UNL     1      -9.996  11.135  64.958  1.00  0.00    -0.273 C  
HETATM    5  O   UNL     1      -9.905   9.935  64.734  1.00  0.00    -0.307 OA 
ENDROOT
BRANCH   4   6
HETATM    6  C   UNL     1     -10.665  11.703  66.187  1.00  0.00    -0.325 C  
BRANCH   6   7
HETATM    7  C   UNL     1     -10.127  11.106  67.470  1.00  0.00    -0.210 A  
HETATM    8  C   UNL     1      -8.742  10.871  67.553  1.00  0.00    -0.130 A  
HETATM    9  C   UNL     1      -8.184  10.303  68.689  1.00  0.00    -0.116 A  
HETATM   10  C   UNL     1      -9.012   9.902  69.730  1.00  0.00    -0.242 A  
HETATM   11  C   UNL     1     -10.405  10.063  69.642  1.00  0.00    -0.274 A  
HETATM   12  C   UNL     1     -10.963  10.791  68.564  1.00  0.00    -0.243 A  
HETATM   13  H2  UNL     1     -12.703  10.521  67.640  1.00  0.00     0.000 HD 
HETATM   14  N   UNL     1     -12.356  11.009  68.466  1.00  0.00    -0.724 NA 
HETATM   15  H1  UNL     1     -12.959  10.781  69.256  1.00  0.00     0.000 HD 
BRANCH  11  16
HETATM   16  C   UNL     1     -11.262   9.480  70.724  1.00  0.00    -0.317 C  
HETATM   17  O   UNL     1     -12.155  10.146  71.237  1.00  0.00    -0.348 OA 
BRANCH  16  18
HETATM   18  C   UNL     1     -10.999   8.084  71.216  1.00  0.00    -0.269 A  
HETATM   19  C   UNL     1     -11.209   6.959  70.401  1.00  0.00    -0.359 A  
HETATM   20  C   UNL     1     -10.786   5.696  70.822  1.00  0.00    -0.294 A  
HETATM   21  C   UNL     1     -10.197   5.541  72.076  1.00  0.00    -0.249 A  
HETATM   22  C   UNL     1     -10.060   6.643  72.921  1.00  0.00    -0.200 A  
HETATM   23  C   UNL     1     -10.467   7.912  72.496  1.00  0.00    -0.363 A  
ENDBRANCH  16  18
ENDBRANCH  11  16
ENDBRANCH   6   7
ENDBRANCH   4   6
TORSDOF 4
ENDMDL
MODEL      120
REMARK 921   NORMALIZED FREE ENERGY PREDICTED BY IDOCK:   -4.70 KCAL/MOL
REMARK 922        TOTAL FREE ENERGY PREDICTED BY IDOCK:   -6.51 KCAL/MOL
REMARK 923 INTER-LIGAND FREE ENERGY PREDICTED BY IDOCK:   -5.56 KCAL/MOL
REMARK 924 INTRA-LIGAND FREE ENERGY PREDICTED BY IDOCK:   -0.94 KCAL/MOL
REMARK 927      BINDING AFFINITY PREDICTED BY RF-SCORE:    0.00 PKD
ROOT
HETATM    1  N   UNL     1      -9.707   6.121  71.594  1.00  0.00    -0.158 N  
HETATM    2  H2  UNL     1      -9.254   5.221  71.754  1.00  0.00     0.000 HD 
HETATM    3  H1  UNL     1      -9.569   6.879  72.263  1.00  0.00     0.000 HD 
HETATM    4  C   UNL     1     -10.490   6.293  70.489  1.00  0.00    -0.221 C  
HETATM    5  O   UNL     1     -10.656   5.383  69.687  1.00  0.00    -0.298 OA 
ENDROOT
BRANCH   4   6
HETATM    6  C   UNL     1     -11.118   7.659  70.340  1.00  0.00    -0.270 C  
BRANCH   6   7
HETATM    7  C   UNL     1     -10.274   8.596  69.504  1.00  0.00    -0.209 A  
HETATM    8  C   UNL     1      -9.440   9.507  70.179  1.00  0.00    -0.287 A  
HETATM    9  C   UNL     1      -8.657  10.412  69.476  1.00  0.00    -0.109 A  
HETATM   10  C   UNL     1      -8.750  10.464  68.091  1.00  0.00    -0.125 A  
HETATM   11  C   UNL     1      -9.628   9.612  67.398  1.00  0.00    -0.183 A  
HETATM   12  C   UNL     1     -10.300   8.578  68.091  1.00  0.00    -0.206 A  
HETATM   13  H2  UNL     1     -12.108   7.819  67.760  1.00  0.00     0.000 HD 
HETATM   14  N   UNL     1     -11.157   7.677  67.420  1.00  0.00    -0.511 NA 
HETATM   15  H1  UNL     1     -11.175   7.664  66.400  1.00  0.00     0.000 HD 
BRANCH  11  16
HETATM   16  C   UNL     1      -9.800   9.811  65.922  1.00  0.00    -0.282 C  
HETATM   17  O   UNL     1      -9.253   9.056  65.126  1.00  0.00    -0.192 OA 
BRANCH  16  18
HETATM   18  C   UNL     1     -10.612  10.968  65.413  1.00  0.00    -0.270 A  
HETATM   19  C   UNL     1     -11.404  11.752  66.268  1.00  0.00    -0.350 A  
HETATM   20  C   UNL     1     -12.001  12.924  65.798  1.00  0.00    -0.496 A  
HETATM   21  C   UNL     1     -11.851  13.294  64.463  1.00  0.00    -0.433 A  
HETATM   22  C   UNL     1     -11.132  12.476  63.591  1.00  0.00    -0.523 A  
HETATM   23  C   UNL     1     -10.519  11.311  64.061  1.00  0.00    -0.440 A  
ENDBRANCH  16  18
ENDBRANCH  11  16
ENDBRANCH   6   7
ENDBRANCH   4   6
TORSDOF 4
ENDMDL
MODEL      121
REMARK 921   NORMALIZED FREE ENERGY PREDICTED BY IDOCK:   -4.70 KCAL/MOL
REMARK 922        TOTAL FREE ENERGY PREDICTED BY IDOCK:   -6.50 KCAL/MOL
REMARK 923 INTER-LIGAND FREE ENERGY PREDICTED BY IDOCK:   -6.16 KCAL/MOL
REMARK 924 INTRA-LIGAND FREE ENERGY PREDICTED BY IDOCK:   -0.34 KCAL/MOL
REMARK 927      BINDING AFFINITY PREDICTED BY RF-SCORE:    0.00 PKD
ROOT
HETATM    1  N   UNL     1     -10.588   9.836  67.233  1.00  0.00    -0.264 N  
HETATM    2  H2  UNL     1     -11.111   8.963  67.165  1.00  0.00     0.000 HD 
HETATM    3  H1  UNL     1     -10.615  10.372  68.100  1.00  0.00     0.000 HD 
HETATM    4  C   UNL     1      -9.862  10.269  66.161  1.00  0.00    -0.225 C  
HETATM    5  O   UNL     1      -9.829   9.626  65.120  1.00  0.00    -0.295 OA 
ENDROOT
BRANCH   4   6
HETATM    6  C   UNL     1      -9.121  11.571  66.357  1.00  0.00    -0.206 C  
BRANCH   6   7
HETATM    7  C   UNL     1     -10.049  12.767  66.390  1.00  0.00    -0.266 A  
HETATM    8  C   UNL     1     -10.722  13.108  65.202  1.00  0.00    -0.329 A  
HETATM    9  C   UNL     1     -11.569  14.206  65.154  1.00  0.00    -0.344 A  
HETATM   10  C   UNL     1     -11.701  15.017  66.274  1.00  0.00    -0.096 A  
HETATM   11  C   UNL     1     -10.985  14.737  67.451  1.00  0.00    -0.313 A  
HETATM   12  C   UNL     1     -10.254  13.531  67.561  1.00  0.00    -0.234 A  
HETATM   13  H2  UNL     1      -8.559  13.179  68.539  1.00  0.00     0.000 HD 
HETATM   14  N   UNL     1      -9.558  13.197  68.744  1.00  0.00    -0.411 NA 
HETATM   15  H1  UNL     1      -9.707  13.748  69.590  1.00  0.00     0.000 HD 
BRANCH  11  16
HETATM   16  C   UNL     1     -11.048  15.724  68.577  1.00  0.00    -0.335 C  
HETATM   17  O   UNL     1     -10.521  16.825  68.468  1.00  0.00    -0.293 OA 
BRANCH  16  18
HETATM   18  C   UNL     1     -11.722  15.346  69.866  1.00  0.00    -0.357 A  
HETATM   19  C   UNL     1     -12.487  14.174  69.987  1.00  0.00    -0.352 A  
HETATM   20  C   UNL     1     -12.948  13.760  71.239  1.00  0.00    -0.409 A  
HETATM   21  C   UNL     1     -12.691  14.537  72.367  1.00  0.00    -0.414 A  
HETATM   22  C   UNL     1     -12.000  15.743  72.239  1.00  0.00    -0.592 A  
HETATM   23  C   UNL     1     -11.523  16.152  70.990  1.00  0.00    -0.424 A  
ENDBRANCH  16  18
ENDBRANCH  11  16
ENDBRANCH   6   7
ENDBRANCH   4   6
TORSDOF 4
ENDMDL
MODEL      122
REMARK 921   NORMALIZED FREE ENERGY PREDICTED BY IDOCK:   -4.69 KCAL/MOL
REMARK 922        TOTAL FREE ENERGY PREDICTED BY IDOCK:   -6.50 KCAL/MOL
REMARK 923 INTER-LIGAND FREE ENERGY PREDICTED BY IDOCK:   -5.61 KCAL/MOL
REMARK 924 INTRA-LIGAND FREE ENERGY PREDICTED BY IDOCK:   -0.89 KCAL/MOL
REMARK 927      BINDING AFFINITY PREDICTED BY RF-SCORE:    0.00 PKD
ROOT
HETATM    1  N   UNL     1     -11.120   4.348  65.049  1.00  0.00    -0.898 N  
HETATM    2  H2  UNL     1     -11.170   4.301  64.031  1.00  0.00     0.000 HD 
HETATM    3  H1  UNL     1     -11.979   4.434  65.592  1.00  0.00     0.000 HD 
HETATM    4  C   UNL     1      -9.902   4.295  65.665  1.00  0.00    -0.218 C  
HETATM    5  O   UNL     1      -8.870   4.192  65.014  1.00  0.00    -0.122 OA 
ENDROOT
BRANCH   4   6
HETATM    6  C   UNL     1      -9.930   4.372  67.174  1.00  0.00    -0.182 C  
BRANCH   6   7
HETATM    7  C   UNL     1      -9.412   5.694  67.697  1.00  0.00    -0.119 A  
HETATM    8  C   UNL     1      -8.102   5.729  68.210  1.00  0.00    -0.108 A  
HETATM    9  C   UNL     1      -7.572   6.902  68.729  1.00  0.00    -0.105 A  
HETATM   10  C   UNL     1      -8.368   8.038  68.803  1.00  0.00    -0.127 A  
HETATM   11  C   UNL     1      -9.702   8.009  68.361  1.00  0.00    -0.168 A  
HETATM   12  C   UNL     1     -10.195   6.871  67.680  1.00  0.00    -0.185 A  
HETATM   13  H2  UNL     1     -12.028   6.101  67.692  1.00  0.00     0.000 HD 
HETATM   14  N   UNL     1     -11.517   6.823  67.185  1.00  0.00    -0.709 NA 
HETATM   15  H1  UNL     1     -12.082   7.673  67.172  1.00  0.00     0.000 HD 
BRANCH  11  16
HETATM   16  C   UNL     1     -10.561   9.214  68.600  1.00  0.00    -0.174 C  
HETATM   17  O   UNL     1     -10.655  10.089  67.746  1.00  0.00    -0.224 OA 
BRANCH  16  18
HETATM   18  C   UNL     1     -11.276   9.375  69.912  1.00  0.00    -0.180 A  
HETATM   19  C   UNL     1     -11.987  10.543  70.231  1.00  0.00    -0.411 A  
HETATM   20  C   UNL     1     -12.787  10.592  71.375  1.00  0.00    -0.551 A  
HETATM   21  C   UNL     1     -12.844   9.493  72.231  1.00  0.00    -0.426 A  
HETATM   22  C   UNL     1     -12.076   8.360  71.960  1.00  0.00    -0.417 A  
HETATM   23  C   UNL     1     -11.287   8.302  70.808  1.00  0.00    -0.285 A  
ENDBRANCH  16  18
ENDBRANCH  11  16
ENDBRANCH   6   7
ENDBRANCH   4   6
TORSDOF 4
ENDMDL
MODEL      123
REMARK 921   NORMALIZED FREE ENERGY PREDICTED BY IDOCK:   -4.68 KCAL/MOL
REMARK 922        TOTAL FREE ENERGY PREDICTED BY IDOCK:   -6.49 KCAL/MOL
REMARK 923 INTER-LIGAND FREE ENERGY PREDICTED BY IDOCK:   -5.90 KCAL/MOL
REMARK 924 INTRA-LIGAND FREE ENERGY PREDICTED BY IDOCK:   -0.58 KCAL/MOL
REMARK 927      BINDING AFFINITY PREDICTED BY RF-SCORE:    0.00 PKD
ROOT
HETATM    1  N   UNL     1      -9.728  17.369  68.217  1.00  0.00    -0.286 N  
HETATM    2  H2  UNL     1      -9.787  18.135  68.888  1.00  0.00     0.000 HD 
HETATM    3  H1  UNL     1     -10.391  16.596  68.276  1.00  0.00     0.000 HD 
HETATM    4  C   UNL     1      -8.761  17.394  67.253  1.00  0.00    -0.224 C  
HETATM    5  O   UNL     1      -7.965  18.321  67.181  1.00  0.00    -0.215 OA 
ENDROOT
BRANCH   4   6
HETATM    6  C   UNL     1      -8.754  16.217  66.305  1.00  0.00    -0.373 C  
BRANCH   6   7
HETATM    7  C   UNL     1      -8.810  14.889  67.030  1.00  0.00    -0.255 A  
HETATM    8  C   UNL     1      -7.591  14.258  67.339  1.00  0.00    -0.185 A  
HETATM    9  C   UNL     1      -7.568  13.028  67.980  1.00  0.00    -0.139 A  
HETATM   10  C   UNL     1      -8.766  12.381  68.260  1.00  0.00    -0.175 A  
HETATM   11  C   UNL     1      -9.995  12.959  67.898  1.00  0.00    -0.233 A  
HETATM   12  C   UNL     1     -10.032  14.282  67.399  1.00  0.00    -0.242 A  
HETATM   13  H2  UNL     1     -11.266  15.081  66.060  1.00  0.00     0.000 HD 
HETATM   14  N   UNL     1     -11.253  14.910  67.066  1.00  0.00    -0.339 NA 
HETATM   15  H1  UNL     1     -12.134  14.472  67.333  1.00  0.00     0.000 HD 
BRANCH  11  16
HETATM   16  C   UNL     1     -11.246  12.155  68.087  1.00  0.00    -0.267 C  
HETATM   17  O   UNL     1     -12.112  12.141  67.220  1.00  0.00    -0.565 OA 
BRANCH  16  18
HETATM   18  C   UNL     1     -11.460  11.396  69.366  1.00  0.00    -0.378 A  
HETATM   19  C   UNL     1     -12.367  11.834  70.346  1.00  0.00    -0.362 A  
HETATM   20  C   UNL     1     -12.676  11.017  71.436  1.00  0.00    -0.534 A  
HETATM   21  C   UNL     1     -12.048   9.781  71.579  1.00  0.00    -0.493 A  
HETATM   22  C   UNL     1     -11.088   9.377  70.651  1.00  0.00    -0.351 A  
HETATM   23  C   UNL     1     -10.788  10.185  69.550  1.00  0.00    -0.289 A  
ENDBRANCH  16  18
ENDBRANCH  11  16
ENDBRANCH   6   7
ENDBRANCH   4   6
TORSDOF 4
ENDMDL
MODEL      124
REMARK 921   NORMALIZED FREE ENERGY PREDICTED BY IDOCK:   -4.68 KCAL/MOL
REMARK 922        TOTAL FREE ENERGY PREDICTED BY IDOCK:   -6.48 KCAL/MOL
REMARK 923 INTER-LIGAND FREE ENERGY PREDICTED BY IDOCK:   -5.55 KCAL/MOL
REMARK 924 INTRA-LIGAND FREE ENERGY PREDICTED BY IDOCK:   -0.93 KCAL/MOL
REMARK 927      BINDING AFFINITY PREDICTED BY RF-SCORE:    0.00 PKD
ROOT
HETATM    1  N   UNL     1     -10.141   5.470  69.677  1.00  0.00    -0.215 N  
HETATM    2  H2  UNL     1      -9.671   5.205  70.543  1.00  0.00     0.000 HD 
HETATM    3  H1  UNL     1     -10.375   4.751  68.992  1.00  0.00     0.000 HD 
HETATM    4  C   UNL     1     -10.446   6.782  69.451  1.00  0.00    -0.217 C  
HETATM    5  O   UNL     1     -10.165   7.645  70.273  1.00  0.00    -0.200 OA 
ENDROOT
BRANCH   4   6
HETATM    6  C   UNL     1     -11.140   7.074  68.142  1.00  0.00    -0.097 C  
BRANCH   6   7
HETATM    7  C   UNL     1     -10.443   8.155  67.344  1.00  0.00    -0.356 A  
HETATM    8  C   UNL     1      -9.553   7.753  66.332  1.00  0.00    -0.235 A  
HETATM    9  C   UNL     1      -8.861   8.690  65.578  1.00  0.00    -0.220 A  
HETATM   10  C   UNL     1      -9.000  10.041  65.872  1.00  0.00    -0.182 A  
HETATM   11  C   UNL     1      -9.830  10.464  66.925  1.00  0.00    -0.236 A  
HETATM   12  C   UNL     1     -10.664   9.531  67.584  1.00  0.00    -0.250 A  
HETATM   13  H2  UNL     1     -11.237   9.491  69.488  1.00  0.00     0.000 HD 
HETATM   14  N   UNL     1     -11.541   9.928  68.617  1.00  0.00    -0.474 NA 
HETATM   15  H1  UNL     1     -11.700  10.921  68.790  1.00  0.00     0.000 HD 
BRANCH  11  16
HETATM   16  C   UNL     1      -9.829  11.916  67.296  1.00  0.00    -0.187 C  
HETATM   17  O   UNL     1      -9.232  12.302  68.295  1.00  0.00    -0.196 OA 
BRANCH  16  18
HETATM   18  C   UNL     1     -10.600  12.902  66.464  1.00  0.00    -0.272 A  
HETATM   19  C   UNL     1      -9.982  14.014  65.868  1.00  0.00    -0.325 A  
HETATM   20  C   UNL     1     -10.684  14.807  64.958  1.00  0.00    -0.452 A  
HETATM   21  C   UNL     1     -12.019  14.524  64.674  1.00  0.00    -0.478 A  
HETATM   22  C   UNL     1     -12.660  13.469  65.324  1.00  0.00    -0.517 A  
HETATM   23  C   UNL     1     -11.956  12.663  66.223  1.00  0.00    -0.439 A  
ENDBRANCH  16  18
ENDBRANCH  11  16
ENDBRANCH   6   7
ENDBRANCH   4   6
TORSDOF 4
ENDMDL
MODEL      125
REMARK 921   NORMALIZED FREE ENERGY PREDICTED BY IDOCK:   -4.68 KCAL/MOL
REMARK 922        TOTAL FREE ENERGY PREDICTED BY IDOCK:   -6.48 KCAL/MOL
REMARK 923 INTER-LIGAND FREE ENERGY PREDICTED BY IDOCK:   -6.14 KCAL/MOL
REMARK 924 INTRA-LIGAND FREE ENERGY PREDICTED BY IDOCK:   -0.34 KCAL/MOL
REMARK 927      BINDING AFFINITY PREDICTED BY RF-SCORE:    0.00 PKD
ROOT
HETATM    1  N   UNL     1      -9.167   5.857  69.867  1.00  0.00    -0.145 N  
HETATM    2  H2  UNL     1      -8.886   5.517  68.947  1.00  0.00     0.000 HD 
HETATM    3  H1  UNL     1      -8.478   5.903  70.618  1.00  0.00     0.000 HD 
HETATM    4  C   UNL     1     -10.460   6.242  70.074  1.00  0.00    -0.218 C  
HETATM    5  O   UNL     1     -11.287   6.186  69.173  1.00  0.00    -0.399 OA 
ENDROOT
BRANCH   4   6
HETATM    6  C   UNL     1     -10.780   6.731  71.468  1.00  0.00    -0.254 C  
BRANCH   6   7
HETATM    7  C   UNL     1     -11.913   7.735  71.485  1.00  0.00    -0.329 A  
HETATM    8  C   UNL     1     -13.226   7.241  71.591  1.00  0.00    -0.421 A  
HETATM    9  C   UNL     1     -14.313   8.103  71.588  1.00  0.00    -0.570 A  
HETATM   10  C   UNL     1     -14.105   9.465  71.411  1.00  0.00    -0.096 A  
HETATM   11  C   UNL     1     -12.807   9.975  71.233  1.00  0.00    -0.500 A  
HETATM   12  C   UNL     1     -11.687   9.128  71.402  1.00  0.00    -0.343 A  
HETATM   13  H2  UNL     1      -9.934   9.168  70.465  1.00  0.00     0.000 HD 
HETATM   14  N   UNL     1     -10.368   9.615  71.273  1.00  0.00    -0.248 NA 
HETATM   15  H1  UNL     1     -10.206  10.621  71.213  1.00  0.00     0.000 HD 
BRANCH  11  16
HETATM   16  C   UNL     1     -12.650  11.427  70.897  1.00  0.00    -0.356 C  
HETATM   17  O   UNL     1     -12.989  12.291  71.699  1.00  0.00    -0.390 OA 
BRANCH  16  18
HETATM   18  C   UNL     1     -12.116  11.831  69.552  1.00  0.00    -0.314 A  
HETATM   19  C   UNL     1     -11.904  10.894  68.527  1.00  0.00    -0.236 A  
HETATM   20  C   UNL     1     -11.579  11.321  67.237  1.00  0.00    -0.171 A  
HETATM   21  C   UNL     1     -11.419  12.681  66.975  1.00  0.00    -0.406 A  
HETATM   22  C   UNL     1     -11.550  13.609  68.009  1.00  0.00    -0.368 A  
HETATM   23  C   UNL     1     -11.890  13.186  69.297  1.00  0.00    -0.377 A  
ENDBRANCH  16  18
ENDBRANCH  11  16
ENDBRANCH   6   7
ENDBRANCH   4   6
TORSDOF 4
ENDMDL
MODEL      126
REMARK 921   NORMALIZED FREE ENERGY PREDICTED BY IDOCK:   -4.64 KCAL/MOL
REMARK 922        TOTAL FREE ENERGY PREDICTED BY IDOCK:   -6.43 KCAL/MOL
REMARK 923 INTER-LIGAND FREE ENERGY PREDICTED BY IDOCK:   -5.97 KCAL/MOL
REMARK 924 INTRA-LIGAND FREE ENERGY PREDICTED BY IDOCK:   -0.47 KCAL/MOL
REMARK 927      BINDING AFFINITY PREDICTED BY RF-SCORE:    0.00 PKD
ROOT
HETATM    1  N   UNL     1      -8.163   6.667  72.009  1.00  0.00    -0.106 N  
HETATM    2  H2  UNL     1      -7.633   6.054  71.389  1.00  0.00     0.000 HD 
HETATM    3  H1  UNL     1      -7.666   7.254  72.680  1.00  0.00     0.000 HD 
HETATM    4  C   UNL     1      -9.525   6.690  71.929  1.00  0.00    -0.150 C  
HETATM    5  O   UNL     1     -10.121   5.986  71.124  1.00  0.00    -0.185 OA 
ENDROOT
BRANCH   4   6
HETATM    6  C   UNL     1     -10.220   7.628  72.887  1.00  0.00    -0.356 C  
BRANCH   6   7
HETATM    7  C   UNL     1     -11.199   8.549  72.191  1.00  0.00    -0.432 A  
HETATM    8  C   UNL     1     -12.571   8.354  72.435  1.00  0.00    -0.372 A  
HETATM    9  C   UNL     1     -13.524   9.146  71.812  1.00  0.00    -0.478 A  
HETATM   10  C   UNL     1     -13.121  10.099  70.884  1.00  0.00    -0.412 A  
HETATM   11  C   UNL     1     -11.761  10.264  70.571  1.00  0.00    -0.418 A  
HETATM   12  C   UNL     1     -10.776   9.581  71.323  1.00  0.00    -0.316 A  
HETATM   13  H2  UNL     1      -9.016   8.872  70.728  1.00  0.00     0.000 HD 
HETATM   14  N   UNL     1      -9.399   9.756  71.064  1.00  0.00    -0.311 NA 
HETATM   15  H1  UNL     1      -9.094  10.501  70.437  1.00  0.00     0.000 HD 
BRANCH  11  16
HETATM   16  C   UNL     1     -11.393  11.198  69.458  1.00  0.00    -0.290 C  
HETATM   17  O   UNL     1     -11.438  12.412  69.625  1.00  0.00    -0.254 OA 
BRANCH  16  18
HETATM   18  C   UNL     1     -11.007  10.646  68.115  1.00  0.00    -0.321 A  
HETATM   19  C   UNL     1     -10.805  11.478  67.001  1.00  0.00    -0.320 A  
HETATM   20  C   UNL     1     -10.275  10.956  65.819  1.00  0.00    -0.318 A  
HETATM   21  C   UNL     1      -9.988   9.595  65.726  1.00  0.00    -0.342 A  
HETATM   22  C   UNL     1     -10.262   8.751  66.803  1.00  0.00    -0.354 A  
HETATM   23  C   UNL     1     -10.778   9.273  67.993  1.00  0.00    -0.231 A  
ENDBRANCH  16  18
ENDBRANCH  11  16
ENDBRANCH   6   7
ENDBRANCH   4   6
TORSDOF 4
ENDMDL
MODEL      127
REMARK 921   NORMALIZED FREE ENERGY PREDICTED BY IDOCK:   -4.62 KCAL/MOL
REMARK 922        TOTAL FREE ENERGY PREDICTED BY IDOCK:   -6.41 KCAL/MOL
REMARK 923 INTER-LIGAND FREE ENERGY PREDICTED BY IDOCK:   -5.43 KCAL/MOL
REMARK 924 INTRA-LIGAND FREE ENERGY PREDICTED BY IDOCK:   -0.98 KCAL/MOL
REMARK 927      BINDING AFFINITY PREDICTED BY RF-SCORE:    0.00 PKD
ROOT
HETATM    1  N   UNL     1      -9.189  10.794  69.387  1.00  0.00    -0.410 N  
HETATM    2  H2  UNL     1      -8.367  10.936  69.975  1.00  0.00     0.000 HD 
HETATM    3  H1  UNL     1      -9.903  11.521  69.337  1.00  0.00     0.000 HD 
HETATM    4  C   UNL     1      -9.317   9.634  68.680  1.00  0.00    -0.143 C  
HETATM    5  O   UNL     1      -8.460   8.761  68.739  1.00  0.00    -0.126 OA 
ENDROOT
BRANCH   4   6
HETATM    6  C   UNL     1     -10.567   9.516  67.839  1.00  0.00    -0.299 C  
BRANCH   6   7
HETATM    7  C   UNL     1     -10.555  10.449  66.648  1.00  0.00    -0.245 A  
HETATM    8  C   UNL     1     -10.013   9.966  65.442  1.00  0.00    -0.349 A  
HETATM    9  C   UNL     1      -9.948  10.775  64.316  1.00  0.00    -0.403 A  
HETATM   10  C   UNL     1     -10.361  12.098  64.401  1.00  0.00    -0.348 A  
HETATM   11  C   UNL     1     -10.841  12.624  65.613  1.00  0.00    -0.305 A  
HETATM   12  C   UNL     1     -11.067  11.764  66.714  1.00  0.00    -0.306 A  
HETATM   13  H2  UNL     1     -10.877  12.142  68.657  1.00  0.00     0.000 HD 
HETATM   14  N   UNL     1     -11.588  12.250  67.933  1.00  0.00    -0.335 NA 
HETATM   15  H1  UNL     1     -11.958  13.200  67.981  1.00  0.00     0.000 HD 
BRANCH  11  16
HETATM   16  C   UNL     1     -11.132  14.092  65.690  1.00  0.00    -0.307 C  
HETATM   17  O   UNL     1     -12.265  14.512  65.484  1.00  0.00    -0.353 OA 
BRANCH  16  18
HETATM   18  C   UNL     1     -10.020  15.061  65.977  1.00  0.00    -0.334 A  
HETATM   19  C   UNL     1     -10.083  16.404  65.569  1.00  0.00    -0.238 A  
HETATM   20  C   UNL     1      -9.122  17.319  66.005  1.00  0.00    -0.114 A  
HETATM   21  C   UNL     1      -8.068  16.890  66.811  1.00  0.00    -0.276 A  
HETATM   22  C   UNL     1      -7.958  15.542  67.152  1.00  0.00    -0.255 A  
HETATM   23  C   UNL     1      -8.927  14.627  66.731  1.00  0.00    -0.283 A  
ENDBRANCH  16  18
ENDBRANCH  11  16
ENDBRANCH   6   7
ENDBRANCH   4   6
TORSDOF 4
ENDMDL
MODEL      128
REMARK 921   NORMALIZED FREE ENERGY PREDICTED BY IDOCK:   -4.62 KCAL/MOL
REMARK 922        TOTAL FREE ENERGY PREDICTED BY IDOCK:   -6.41 KCAL/MOL
REMARK 923 INTER-LIGAND FREE ENERGY PREDICTED BY IDOCK:   -5.48 KCAL/MOL
REMARK 924 INTRA-LIGAND FREE ENERGY PREDICTED BY IDOCK:   -0.93 KCAL/MOL
REMARK 927      BINDING AFFINITY PREDICTED BY RF-SCORE:    0.00 PKD
ROOT
HETATM    1  N   UNL     1     -11.256   5.499  66.060  1.00  0.00    -0.742 N  
HETATM    2  H2  UNL     1     -11.478   5.861  65.133  1.00  0.00     0.000 HD 
HETATM    3  H1  UNL     1     -12.014   5.257  66.700  1.00  0.00     0.000 HD 
HETATM    4  C   UNL     1      -9.951   5.346  66.429  1.00  0.00    -0.191 C  
HETATM    5  O   UNL     1      -9.041   5.636  65.662  1.00  0.00    -0.157 OA 
ENDROOT
BRANCH   4   6
HETATM    6  C   UNL     1      -9.724   4.804  67.821  1.00  0.00    -0.202 C  
BRANCH   6   7
HETATM    7  C   UNL     1      -9.377   5.889  68.817  1.00  0.00    -0.133 A  
HETATM    8  C   UNL     1      -8.018   6.089  69.123  1.00  0.00    -0.103 A  
HETATM    9  C   UNL     1      -7.629   7.050  70.045  1.00  0.00    -0.099 A  
HETATM   10  C   UNL     1      -8.599   7.778  70.723  1.00  0.00    -0.133 A  
HETATM   11  C   UNL     1      -9.965   7.548  70.486  1.00  0.00    -0.184 A  
HETATM   12  C   UNL     1     -10.363   6.693  69.431  1.00  0.00    -0.199 A  
HETATM   13  H2  UNL     1     -11.945   5.493  69.321  1.00  0.00     0.000 HD 
HETATM   14  N   UNL     1     -11.727   6.473  69.137  1.00  0.00    -0.565 NA 
HETATM   15  H1  UNL     1     -12.439   7.053  69.580  1.00  0.00     0.000 HD 
BRANCH  11  16
HETATM   16  C   UNL     1     -10.969   8.251  71.349  1.00  0.00    -0.249 C  
HETATM   17  O   UNL     1     -11.494   7.670  72.291  1.00  0.00    -0.281 OA 
BRANCH  16  18
HETATM   18  C   UNL     1     -11.368   9.665  71.032  1.00  0.00    -0.444 A  
HETATM   19  C   UNL     1     -10.840  10.355  69.927  1.00  0.00    -0.353 A  
HETATM   20  C   UNL     1     -11.362  11.596  69.556  1.00  0.00    -0.328 A  
HETATM   21  C   UNL     1     -12.380  12.177  70.311  1.00  0.00    -0.269 A  
HETATM   22  C   UNL     1     -12.851  11.532  71.456  1.00  0.00    -0.485 A  
HETATM   23  C   UNL     1     -12.342  10.282  71.821  1.00  0.00    -0.362 A  
ENDBRANCH  16  18
ENDBRANCH  11  16
ENDBRANCH   6   7
ENDBRANCH   4   6
TORSDOF 4
ENDMDL
MODEL      129
REMARK 921   NORMALIZED FREE ENERGY PREDICTED BY IDOCK:   -4.60 KCAL/MOL
REMARK 922        TOTAL FREE ENERGY PREDICTED BY IDOCK:   -6.38 KCAL/MOL
REMARK 923 INTER-LIGAND FREE ENERGY PREDICTED BY IDOCK:   -5.45 KCAL/MOL
REMARK 924 INTRA-LIGAND FREE ENERGY PREDICTED BY IDOCK:   -0.94 KCAL/MOL
REMARK 927      BINDING AFFINITY PREDICTED BY RF-SCORE:    0.00 PKD
ROOT
HETATM    1  N   UNL     1      -7.933  10.746  64.921  1.00  0.00    -0.356 N  
HETATM    2  H2  UNL     1      -8.132  11.714  64.666  1.00  0.00     0.000 HD 
HETATM    3  H1  UNL     1      -6.970  10.462  65.102  1.00  0.00     0.000 HD 
HETATM    4  C   UNL     1      -8.960   9.851  65.015  1.00  0.00    -0.201 C  
HETATM    5  O   UNL     1     -10.115  10.192  64.798  1.00  0.00    -0.331 OA 
ENDROOT
BRANCH   4   6
HETATM    6  C   UNL     1      -8.566   8.444  65.398  1.00  0.00    -0.193 C  
BRANCH   6   7
HETATM    7  C   UNL     1      -9.278   7.960  66.643  1.00  0.00    -0.221 A  
HETATM    8  C   UNL     1     -10.279   6.982  66.489  1.00  0.00    -0.127 A  
HETATM    9  C   UNL     1     -10.989   6.511  67.584  1.00  0.00    -0.426 A  
HETATM   10  C   UNL     1     -10.755   7.061  68.838  1.00  0.00    -0.227 A  
HETATM   11  C   UNL     1      -9.810   8.088  69.006  1.00  0.00    -0.178 A  
HETATM   12  C   UNL     1      -8.967   8.454  67.930  1.00  0.00    -0.137 A  
HETATM   13  H2  UNL     1      -8.221  10.240  67.475  1.00  0.00     0.000 HD 
HETATM   14  N   UNL     1      -7.978   9.452  68.075  1.00  0.00    -0.092 NA 
HETATM   15  H1  UNL     1      -7.754   9.808  69.005  1.00  0.00     0.000 HD 
BRANCH  11  16
HETATM   16  C   UNL     1      -9.703   8.748  70.347  1.00  0.00    -0.180 C  
HETATM   17  O   UNL     1      -8.631   8.779  70.941  1.00  0.00    -0.154 OA 
BRANCH  16  18
HETATM   18  C   UNL     1     -10.927   9.338  70.990  1.00  0.00    -0.390 A  
HETATM   19  C   UNL     1     -11.466  10.566  70.572  1.00  0.00    -0.433 A  
HETATM   20  C   UNL     1     -12.699  10.999  71.063  1.00  0.00    -0.485 A  
HETATM   21  C   UNL     1     -13.378  10.233  72.009  1.00  0.00    -0.466 A  
HETATM   22  C   UNL     1     -12.809   9.052  72.488  1.00  0.00    -0.408 A  
HETATM   23  C   UNL     1     -11.582   8.608  71.986  1.00  0.00    -0.440 A  
ENDBRANCH  16  18
ENDBRANCH  11  16
ENDBRANCH   6   7
ENDBRANCH   4   6
TORSDOF 4
ENDMDL
MODEL      130
REMARK 921   NORMALIZED FREE ENERGY PREDICTED BY IDOCK:   -4.59 KCAL/MOL
REMARK 922        TOTAL FREE ENERGY PREDICTED BY IDOCK:   -6.37 KCAL/MOL
REMARK 923 INTER-LIGAND FREE ENERGY PREDICTED BY IDOCK:   -5.24 KCAL/MOL
REMARK 924 INTRA-LIGAND FREE ENERGY PREDICTED BY IDOCK:   -1.13 KCAL/MOL
REMARK 927      BINDING AFFINITY PREDICTED BY RF-SCORE:    0.00 PKD
ROOT
HETATM    1  N   UNL     1      -9.217   4.983  72.775  1.00  0.00    -0.132 N  
HETATM    2  H2  UNL     1      -9.164   4.036  72.401  1.00  0.00     0.000 HD 
HETATM    3  H1  UNL     1      -8.387   5.577  72.758  1.00  0.00     0.000 HD 
HETATM    4  C   UNL     1     -10.396   5.438  73.292  1.00  0.00    -0.206 C  
HETATM    5  O   UNL     1     -11.391   4.726  73.313  1.00  0.00    -0.319 OA 
ENDROOT
BRANCH   4   6
HETATM    6  C   UNL     1     -10.374   6.852  73.822  1.00  0.00    -0.409 C  
BRANCH   6   7
HETATM    7  C   UNL     1     -10.665   7.878  72.748  1.00  0.00    -0.435 A  
HETATM    8  C   UNL     1     -12.011   8.205  72.499  1.00  0.00    -0.410 A  
HETATM    9  C   UNL     1     -12.351   9.119  71.513  1.00  0.00    -0.421 A  
HETATM   10  C   UNL     1     -11.354   9.668  70.717  1.00  0.00    -0.409 A  
HETATM   11  C   UNL     1     -10.009   9.305  70.900  1.00  0.00    -0.367 A  
HETATM   12  C   UNL     1      -9.638   8.507  72.007  1.00  0.00    -0.301 A  
HETATM   13  H2  UNL     1      -8.193   7.148  72.144  1.00  0.00     0.000 HD 
HETATM   14  N   UNL     1      -8.290   8.158  72.246  1.00  0.00    -0.144 NA 
HETATM   15  H1  UNL     1      -7.550   8.612  71.712  1.00  0.00     0.000 HD 
BRANCH  11  16
HETATM   16  C   UNL     1      -8.993   9.811  69.920  1.00  0.00    -0.229 C  
HETATM   17  O   UNL     1      -7.938  10.297  70.314  1.00  0.00    -0.122 OA 
BRANCH  16  18
HETATM   18  C   UNL     1      -9.285   9.762  68.447  1.00  0.00    -0.130 A  
HETATM   19  C   UNL     1      -9.481   8.548  67.769  1.00  0.00    -0.168 A  
HETATM   20  C   UNL     1      -9.927   8.543  66.446  1.00  0.00    -0.314 A  
HETATM   21  C   UNL     1     -10.134   9.748  65.777  1.00  0.00    -0.308 A  
HETATM   22  C   UNL     1      -9.864  10.957  66.421  1.00  0.00    -0.249 A  
HETATM   23  C   UNL     1      -9.434  10.965  67.751  1.00  0.00    -0.165 A  
ENDBRANCH  16  18
ENDBRANCH  11  16
ENDBRANCH   6   7
ENDBRANCH   4   6
TORSDOF 4
ENDMDL
MODEL      131
REMARK 921   NORMALIZED FREE ENERGY PREDICTED BY IDOCK:   -4.59 KCAL/MOL
REMARK 922        TOTAL FREE ENERGY PREDICTED BY IDOCK:   -6.37 KCAL/MOL
REMARK 923 INTER-LIGAND FREE ENERGY PREDICTED BY IDOCK:   -5.50 KCAL/MOL
REMARK 924 INTRA-LIGAND FREE ENERGY PREDICTED BY IDOCK:   -0.87 KCAL/MOL
REMARK 927      BINDING AFFINITY PREDICTED BY RF-SCORE:    0.00 PKD
ROOT
HETATM    1  N   UNL     1     -10.124   4.854  69.350  1.00  0.00    -0.219 N  
HETATM    2  H2  UNL     1     -10.889   4.208  69.546  1.00  0.00     0.000 HD 
HETATM    3  H1  UNL     1      -9.466   5.095  70.092  1.00  0.00     0.000 HD 
HETATM    4  C   UNL     1      -9.996   5.384  68.098  1.00  0.00    -0.158 C  
HETATM    5  O   UNL     1     -10.785   5.095  67.208  1.00  0.00    -0.142 OA 
ENDROOT
BRANCH   4   6
HETATM    6  C   UNL     1      -8.834   6.330  67.905  1.00  0.00    -0.112 C  
BRANCH   6   7
HETATM    7  C   UNL     1      -9.041   7.655  68.606  1.00  0.00    -0.135 A  
HETATM    8  C   UNL     1      -8.267   7.920  69.751  1.00  0.00    -0.121 A  
HETATM    9  C   UNL     1      -8.422   9.104  70.457  1.00  0.00    -0.236 A  
HETATM   10  C   UNL     1      -9.401  10.009  70.067  1.00  0.00    -0.165 A  
HETATM   11  C   UNL     1     -10.234   9.735  68.969  1.00  0.00    -0.214 A  
HETATM   12  C   UNL     1      -9.971   8.614  68.147  1.00  0.00    -0.178 A  
HETATM   13  H2  UNL     1     -11.254   7.453  67.167  1.00  0.00     0.000 HD 
HETATM   14  N   UNL     1     -10.762   8.333  67.010  1.00  0.00    -0.409 NA 
HETATM   15  H1  UNL     1     -11.433   9.026  66.679  1.00  0.00     0.000 HD 
BRANCH  11  16
HETATM   16  C   UNL     1     -11.369  10.672  68.682  1.00  0.00    -0.281 C  
HETATM   17  O   UNL     1     -11.684  10.931  67.526  1.00  0.00    -0.543 OA 
BRANCH  16  18
HETATM   18  C   UNL     1     -12.099  11.333  69.817  1.00  0.00    -0.394 A  
HETATM   19  C   UNL     1     -12.796  10.589  70.784  1.00  0.00    -0.454 A  
HETATM   20  C   UNL     1     -13.309  11.217  71.921  1.00  0.00    -0.409 A  
HETATM   21  C   UNL     1     -13.171  12.595  72.077  1.00  0.00    -0.531 A  
HETATM   22  C   UNL     1     -12.550  13.349  71.081  1.00  0.00    -0.430 A  
HETATM   23  C   UNL     1     -12.020  12.722  69.949  1.00  0.00    -0.368 A  
ENDBRANCH  16  18
ENDBRANCH  11  16
ENDBRANCH   6   7
ENDBRANCH   4   6
TORSDOF 4
ENDMDL
MODEL      132
REMARK 921   NORMALIZED FREE ENERGY PREDICTED BY IDOCK:   -4.57 KCAL/MOL
REMARK 922        TOTAL FREE ENERGY PREDICTED BY IDOCK:   -6.34 KCAL/MOL
REMARK 923 INTER-LIGAND FREE ENERGY PREDICTED BY IDOCK:   -5.87 KCAL/MOL
REMARK 924 INTRA-LIGAND FREE ENERGY PREDICTED BY IDOCK:   -0.47 KCAL/MOL
REMARK 927      BINDING AFFINITY PREDICTED BY RF-SCORE:    0.00 PKD
ROOT
HETATM    1  N   UNL     1      -9.372   6.495  72.967  1.00  0.00    -0.135 N  
HETATM    2  H2  UNL     1      -8.602   6.024  73.442  1.00  0.00     0.000 HD 
HETATM    3  H1  UNL     1     -10.053   5.943  72.444  1.00  0.00     0.000 HD 
HETATM    4  C   UNL     1      -9.477   7.854  73.040  1.00  0.00    -0.271 C  
HETATM    5  O   UNL     1      -8.660   8.516  73.668  1.00  0.00    -0.325 OA 
ENDROOT
BRANCH   4   6
HETATM    6  C   UNL     1     -10.650   8.459  72.306  1.00  0.00    -0.412 C  
BRANCH   6   7
HETATM    7  C   UNL     1     -10.229   9.219  71.067  1.00  0.00    -0.384 A  
HETATM    8  C   UNL     1      -8.872   9.170  70.696  1.00  0.00    -0.278 A  
HETATM    9  C   UNL     1      -8.412   9.863  69.585  1.00  0.00    -0.198 A  
HETATM   10  C   UNL     1      -9.290  10.668  68.870  1.00  0.00    -0.191 A  
HETATM   11  C   UNL     1     -10.635  10.788  69.262  1.00  0.00    -0.261 A  
HETATM   12  C   UNL     1     -11.147   9.958  70.286  1.00  0.00    -0.308 A  
HETATM   13  H2  UNL     1     -12.549  10.359  71.638  1.00  0.00     0.000 HD 
HETATM   14  N   UNL     1     -12.503  10.021  70.677  1.00  0.00    -0.448 NA 
HETATM   15  H1  UNL     1     -13.166  10.555  70.113  1.00  0.00     0.000 HD 
BRANCH  11  16
HETATM   16  C   UNL     1     -11.501  11.782  68.549  1.00  0.00    -0.296 C  
HETATM   17  O   UNL     1     -12.226  11.426  67.626  1.00  0.00    -0.485 OA 
BRANCH  16  18
HETATM   18  C   UNL     1     -11.449  13.233  68.935  1.00  0.00    -0.342 A  
HETATM   19  C   UNL     1     -12.407  13.809  69.786  1.00  0.00    -0.311 A  
HETATM   20  C   UNL     1     -12.231  15.107  70.270  1.00  0.00    -0.395 A  
HETATM   21  C   UNL     1     -11.124  15.855  69.870  1.00  0.00    -0.343 A  
HETATM   22  C   UNL     1     -10.212  15.315  68.962  1.00  0.00    -0.239 A  
HETATM   23  C   UNL     1     -10.377  14.010  68.489  1.00  0.00    -0.247 A  
ENDBRANCH  16  18
ENDBRANCH  11  16
ENDBRANCH   6   7
ENDBRANCH   4   6
TORSDOF 4
ENDMDL
MODEL      133
REMARK 921   NORMALIZED FREE ENERGY PREDICTED BY IDOCK:   -4.57 KCAL/MOL
REMARK 922        TOTAL FREE ENERGY PREDICTED BY IDOCK:   -6.34 KCAL/MOL
REMARK 923 INTER-LIGAND FREE ENERGY PREDICTED BY IDOCK:   -5.38 KCAL/MOL
REMARK 924 INTRA-LIGAND FREE ENERGY PREDICTED BY IDOCK:   -0.96 KCAL/MOL
REMARK 927      BINDING AFFINITY PREDICTED BY RF-SCORE:    0.00 PKD
ROOT
HETATM    1  N   UNL     1      -9.188  11.875  65.605  1.00  0.00    -0.412 N  
HETATM    2  H2  UNL     1      -8.276  12.211  65.296  1.00  0.00     0.000 HD 
HETATM    3  H1  UNL     1      -9.956  11.821  64.936  1.00  0.00     0.000 HD 
HETATM    4  C   UNL     1      -9.363  11.506  66.907  1.00  0.00    -0.181 C  
HETATM    5  O   UNL     1      -8.442  11.571  67.711  1.00  0.00    -0.129 OA 
ENDROOT
BRANCH   4   6
HETATM    6  C   UNL     1     -10.749  11.023  67.268  1.00  0.00    -0.312 C  
BRANCH   6   7
HETATM    7  C   UNL     1     -10.726   9.730  68.054  1.00  0.00    -0.298 A  
HETATM    8  C   UNL     1     -10.593   8.528  67.336  1.00  0.00    -0.304 A  
HETATM    9  C   UNL     1     -10.589   7.304  67.990  1.00  0.00    -0.247 A  
HETATM   10  C   UNL     1     -10.786   7.264  69.365  1.00  0.00    -0.236 A  
HETATM   11  C   UNL     1     -10.991   8.447  70.095  1.00  0.00    -0.216 A  
HETATM   12  C   UNL     1     -10.829   9.702  69.464  1.00  0.00    -0.231 A  
HETATM   13  H2  UNL     1     -11.794  11.407  69.802  1.00  0.00     0.000 HD 
HETATM   14  N   UNL     1     -10.985  10.911  70.177  1.00  0.00    -0.468 NA 
HETATM   15  H1  UNL     1     -11.060  10.891  71.194  1.00  0.00     0.000 HD 
BRANCH  11  16
HETATM   16  C   UNL     1     -11.346   8.337  71.547  1.00  0.00    -0.268 C  
HETATM   17  O   UNL     1     -12.438   8.723  71.950  1.00  0.00    -0.325 OA 
BRANCH  16  18
HETATM   18  C   UNL     1     -10.343   7.792  72.524  1.00  0.00    -0.328 A  
HETATM   19  C   UNL     1      -8.991   8.173  72.489  1.00  0.00    -0.286 A  
HETATM   20  C   UNL     1      -8.125   7.792  73.516  1.00  0.00    -0.218 A  
HETATM   21  C   UNL     1      -8.589   6.990  74.557  1.00  0.00    -0.224 A  
HETATM   22  C   UNL     1      -9.911   6.542  74.553  1.00  0.00    -0.358 A  
HETATM   23  C   UNL     1     -10.785   6.936  73.536  1.00  0.00    -0.342 A  
ENDBRANCH  16  18
ENDBRANCH  11  16
ENDBRANCH   6   7
ENDBRANCH   4   6
TORSDOF 4
ENDMDL
MODEL      134
REMARK 921   NORMALIZED FREE ENERGY PREDICTED BY IDOCK:   -4.53 KCAL/MOL
REMARK 922        TOTAL FREE ENERGY PREDICTED BY IDOCK:   -6.30 KCAL/MOL
REMARK 923 INTER-LIGAND FREE ENERGY PREDICTED BY IDOCK:   -5.50 KCAL/MOL
REMARK 924 INTRA-LIGAND FREE ENERGY PREDICTED BY IDOCK:   -0.80 KCAL/MOL
REMARK 927      BINDING AFFINITY PREDICTED BY RF-SCORE:    0.00 PKD
ROOT
HETATM    1  N   UNL     1      -9.404  13.128  68.495  1.00  0.00    -0.371 N  
HETATM    2  H2  UNL     1      -8.611  13.758  68.616  1.00  0.00     0.000 HD 
HETATM    3  H1  UNL     1     -10.310  13.378  68.894  1.00  0.00     0.000 HD 
HETATM    4  C   UNL     1      -9.238  11.964  67.802  1.00  0.00    -0.184 C  
HETATM    5  O   UNL     1      -8.152  11.665  67.323  1.00  0.00    -0.144 OA 
ENDROOT
BRANCH   4   6
HETATM    6  C   UNL     1     -10.470  11.098  67.676  1.00  0.00    -0.230 C  
BRANCH   6   7
HETATM    7  C   UNL     1     -10.927  10.542  69.007  1.00  0.00    -0.289 A  
HETATM    8  C   UNL     1     -12.137  11.025  69.540  1.00  0.00    -0.400 A  
HETATM    9  C   UNL     1     -12.603  10.578  70.767  1.00  0.00    -0.474 A  
HETATM   10  C   UNL     1     -11.833   9.692  71.510  1.00  0.00    -0.483 A  
HETATM   11  C   UNL     1     -10.588   9.249  71.031  1.00  0.00    -0.386 A  
HETATM   12  C   UNL     1     -10.185   9.567  69.712  1.00  0.00    -0.228 A  
HETATM   13  H2  UNL     1      -8.357   9.907  69.009  1.00  0.00     0.000 HD 
HETATM   14  N   UNL     1      -8.961   9.103  69.183  1.00  0.00    -0.141 NA 
HETATM   15  H1  UNL     1      -8.426   8.399  69.693  1.00  0.00     0.000 HD 
BRANCH  11  16
HETATM   16  C   UNL     1      -9.731   8.414  71.934  1.00  0.00    -0.261 C  
HETATM   17  O   UNL     1      -8.755   8.903  72.492  1.00  0.00    -0.391 OA 
BRANCH  16  18
HETATM   18  C   UNL     1     -10.042   6.956  72.123  1.00  0.00    -0.198 A  
HETATM   19  C   UNL     1      -9.546   5.972  71.251  1.00  0.00    -0.189 A  
HETATM   20  C   UNL     1      -9.702   4.618  71.555  1.00  0.00    -0.241 A  
HETATM   21  C   UNL     1     -10.394   4.237  72.703  1.00  0.00    -0.243 A  
HETATM   22  C   UNL     1     -10.958   5.210  73.530  1.00  0.00    -0.370 A  
HETATM   23  C   UNL     1     -10.789   6.567  73.238  1.00  0.00    -0.276 A  
ENDBRANCH  16  18
ENDBRANCH  11  16
ENDBRANCH   6   7
ENDBRANCH   4   6
TORSDOF 4
ENDMDL
MODEL      135
REMARK 921   NORMALIZED FREE ENERGY PREDICTED BY IDOCK:   -4.53 KCAL/MOL
REMARK 922        TOTAL FREE ENERGY PREDICTED BY IDOCK:   -6.30 KCAL/MOL
REMARK 923 INTER-LIGAND FREE ENERGY PREDICTED BY IDOCK:   -5.68 KCAL/MOL
REMARK 924 INTRA-LIGAND FREE ENERGY PREDICTED BY IDOCK:   -0.62 KCAL/MOL
REMARK 927      BINDING AFFINITY PREDICTED BY RF-SCORE:    0.00 PKD
ROOT
HETATM    1  N   UNL     1      -8.009  14.950  69.887  1.00  0.00    -0.388 N  
HETATM    2  H2  UNL     1      -7.042  15.263  69.800  1.00  0.00     0.000 HD 
HETATM    3  H1  UNL     1      -8.259  14.289  70.623  1.00  0.00     0.000 HD 
HETATM    4  C   UNL     1      -8.949  15.421  69.017  1.00  0.00    -0.230 C  
HETATM    5  O   UNL     1      -8.650  16.214  68.133  1.00  0.00    -0.172 OA 
ENDROOT
BRANCH   4   6
HETATM    6  C   UNL     1     -10.352  14.901  69.226  1.00  0.00    -0.240 C  
BRANCH   6   7
HETATM    7  C   UNL     1     -10.842  14.067  68.061  1.00  0.00    -0.257 A  
HETATM    8  C   UNL     1     -11.856  14.607  67.249  1.00  0.00    -0.375 A  
HETATM    9  C   UNL     1     -12.369  13.888  66.178  1.00  0.00    -0.504 A  
HETATM   10  C   UNL     1     -11.921  12.593  65.948  1.00  0.00    -0.497 A  
HETATM   11  C   UNL     1     -10.959  12.007  66.788  1.00  0.00    -0.329 A  
HETATM   12  C   UNL     1     -10.313  12.789  67.773  1.00  0.00    -0.221 A  
HETATM   13  H2  UNL     1      -9.651  12.245  69.568  1.00  0.00     0.000 HD 
HETATM   14  N   UNL     1      -9.311  12.243  68.606  1.00  0.00    -0.393 NA 
HETATM   15  H1  UNL     1      -8.929  11.321  68.398  1.00  0.00     0.000 HD 
BRANCH  11  16
HETATM   16  C   UNL     1     -10.621  10.560  66.586  1.00  0.00    -0.198 C  
HETATM   17  O   UNL     1     -11.023   9.712  67.375  1.00  0.00    -0.247 OA 
BRANCH  16  18
HETATM   18  C   UNL     1      -9.748  10.149  65.435  1.00  0.00    -0.355 A  
HETATM   19  C   UNL     1      -8.710   9.215  65.587  1.00  0.00    -0.203 A  
HETATM   20  C   UNL     1      -8.036   8.721  64.468  1.00  0.00    -0.141 A  
HETATM   21  C   UNL     1      -8.360   9.191  63.197  1.00  0.00    -0.193 A  
HETATM   22  C   UNL     1      -9.335  10.178  63.048  1.00  0.00    -0.330 A  
HETATM   23  C   UNL     1     -10.023  10.663  64.164  1.00  0.00    -0.406 A  
ENDBRANCH  16  18
ENDBRANCH  11  16
ENDBRANCH   6   7
ENDBRANCH   4   6
TORSDOF 4
ENDMDL
MODEL      136
REMARK 921   NORMALIZED FREE ENERGY PREDICTED BY IDOCK:   -4.52 KCAL/MOL
REMARK 922        TOTAL FREE ENERGY PREDICTED BY IDOCK:   -6.29 KCAL/MOL
REMARK 923 INTER-LIGAND FREE ENERGY PREDICTED BY IDOCK:   -5.29 KCAL/MOL
REMARK 924 INTRA-LIGAND FREE ENERGY PREDICTED BY IDOCK:   -1.00 KCAL/MOL
REMARK 927      BINDING AFFINITY PREDICTED BY RF-SCORE:    0.00 PKD
ROOT
HETATM    1  N   UNL     1     -11.284   4.478  65.095  1.00  0.00    -0.978 N  
HETATM    2  H2  UNL     1     -11.619   4.436  64.132  1.00  0.00     0.000 HD 
HETATM    3  H1  UNL     1     -11.957   4.547  65.859  1.00  0.00     0.000 HD 
HETATM    4  C   UNL     1      -9.941   4.440  65.342  1.00  0.00    -0.218 C  
HETATM    5  O   UNL     1      -9.134   4.356  64.426  1.00  0.00    -0.147 OA 
ENDROOT
BRANCH   4   6
HETATM    6  C   UNL     1      -9.543   4.508  66.798  1.00  0.00    -0.206 C  
BRANCH   6   7
HETATM    7  C   UNL     1      -9.108   5.895  67.216  1.00  0.00    -0.111 A  
HETATM    8  C   UNL     1      -7.730   6.183  67.202  1.00  0.00    -0.101 A  
HETATM    9  C   UNL     1      -7.258   7.427  67.596  1.00  0.00    -0.094 A  
HETATM   10  C   UNL     1      -8.152   8.377  68.074  1.00  0.00    -0.123 A  
HETATM   11  C   UNL     1      -9.525   8.088  68.164  1.00  0.00    -0.152 A  
HETATM   12  C   UNL     1     -10.032   6.890  67.609  1.00  0.00    -0.144 A  
HETATM   13  H2  UNL     1     -11.549   5.766  68.231  1.00  0.00     0.000 HD 
HETATM   14  N   UNL     1     -11.411   6.588  67.643  1.00  0.00    -0.688 NA 
HETATM   15  H1  UNL     1     -12.078   7.306  67.926  1.00  0.00     0.000 HD 
BRANCH  11  16
HETATM   16  C   UNL     1     -10.424   9.090  68.824  1.00  0.00    -0.206 C  
HETATM   17  O   UNL     1     -10.891   8.869  69.936  1.00  0.00    -0.229 OA 
BRANCH  16  18
HETATM   18  C   UNL     1     -10.792  10.355  68.102  1.00  0.00    -0.311 A  
HETATM   19  C   UNL     1     -11.199  11.511  68.789  1.00  0.00    -0.309 A  
HETATM   20  C   UNL     1     -11.360  12.718  68.106  1.00  0.00    -0.329 A  
HETATM   21  C   UNL     1     -11.163  12.768  66.727  1.00  0.00    -0.338 A  
HETATM   22  C   UNL     1     -10.837  11.605  66.028  1.00  0.00    -0.339 A  
HETATM   23  C   UNL     1     -10.659  10.399  66.711  1.00  0.00    -0.270 A  
ENDBRANCH  16  18
ENDBRANCH  11  16
ENDBRANCH   6   7
ENDBRANCH   4   6
TORSDOF 4
ENDMDL
MODEL      137
REMARK 921   NORMALIZED FREE ENERGY PREDICTED BY IDOCK:   -4.52 KCAL/MOL
REMARK 922        TOTAL FREE ENERGY PREDICTED BY IDOCK:   -6.28 KCAL/MOL
REMARK 923 INTER-LIGAND FREE ENERGY PREDICTED BY IDOCK:   -5.47 KCAL/MOL
REMARK 924 INTRA-LIGAND FREE ENERGY PREDICTED BY IDOCK:   -0.81 KCAL/MOL
REMARK 927      BINDING AFFINITY PREDICTED BY RF-SCORE:    0.00 PKD
ROOT
HETATM    1  N   UNL     1      -8.612  10.634  65.571  1.00  0.00    -0.183 N  
HETATM    2  H2  UNL     1      -8.005  10.563  64.754  1.00  0.00     0.000 HD 
HETATM    3  H1  UNL     1      -8.204  10.835  66.485  1.00  0.00     0.000 HD 
HETATM    4  C   UNL     1      -9.958  10.459  65.426  1.00  0.00    -0.295 C  
HETATM    5  O   UNL     1     -10.448  10.219  64.330  1.00  0.00    -0.121 OA 
ENDROOT
BRANCH   4   6
HETATM    6  C   UNL     1     -10.773  10.584  66.692  1.00  0.00    -0.222 C  
BRANCH   6   7
HETATM    7  C   UNL     1     -11.224  12.004  66.955  1.00  0.00    -0.375 A  
HETATM    8  C   UNL     1     -11.982  12.647  65.958  1.00  0.00    -0.478 A  
HETATM    9  C   UNL     1     -12.408  13.958  66.122  1.00  0.00    -0.504 A  
HETATM   10  C   UNL     1     -12.023  14.665  67.254  1.00  0.00    -0.312 A  
HETATM   11  C   UNL     1     -11.208  14.067  68.231  1.00  0.00    -0.293 A  
HETATM   12  C   UNL     1     -10.912  12.686  68.153  1.00  0.00    -0.236 A  
HETATM   13  H2  UNL     1      -9.262  11.726  68.710  1.00  0.00     0.000 HD 
HETATM   14  N   UNL     1     -10.131  12.043  69.139  1.00  0.00    -0.411 NA 
HETATM   15  H1  UNL     1      -9.906  12.535  70.004  1.00  0.00     0.000 HD 
BRANCH  11  16
HETATM   16  C   UNL     1     -10.700  14.917  69.356  1.00  0.00    -0.256 C  
HETATM   17  O   UNL     1     -11.178  14.811  70.480  1.00  0.00    -0.229 OA 
BRANCH  16  18
HETATM   18  C   UNL     1      -9.629  15.939  69.097  1.00  0.00    -0.253 A  
HETATM   19  C   UNL     1      -9.936  17.257  68.721  1.00  0.00    -0.325 A  
HETATM   20  C   UNL     1      -8.932  18.226  68.664  1.00  0.00    -0.303 A  
HETATM   21  C   UNL     1      -7.610  17.875  68.933  1.00  0.00    -0.222 A  
HETATM   22  C   UNL     1      -7.289  16.550  69.228  1.00  0.00    -0.201 A  
HETATM   23  C   UNL     1      -8.294  15.581  69.302  1.00  0.00    -0.257 A  
ENDBRANCH  16  18
ENDBRANCH  11  16
ENDBRANCH   6   7
ENDBRANCH   4   6
TORSDOF 4
ENDMDL
MODEL      138
REMARK 921   NORMALIZED FREE ENERGY PREDICTED BY IDOCK:   -4.51 KCAL/MOL
REMARK 922        TOTAL FREE ENERGY PREDICTED BY IDOCK:   -6.28 KCAL/MOL
REMARK 923 INTER-LIGAND FREE ENERGY PREDICTED BY IDOCK:   -5.36 KCAL/MOL
REMARK 924 INTRA-LIGAND FREE ENERGY PREDICTED BY IDOCK:   -0.92 KCAL/MOL
REMARK 927      BINDING AFFINITY PREDICTED BY RF-SCORE:    0.00 PKD
ROOT
HETATM    1  N   UNL     1      -8.062  10.729  63.501  1.00  0.00    -0.364 N  
HETATM    2  H2  UNL     1      -7.704  10.991  62.582  1.00  0.00     0.000 HD 
HETATM    3  H1  UNL     1      -7.407  10.467  64.238  1.00  0.00     0.000 HD 
HETATM    4  C   UNL     1      -9.408  10.733  63.725  1.00  0.00    -0.266 C  
HETATM    5  O   UNL     1     -10.194  11.047  62.840  1.00  0.00    -0.251 OA 
ENDROOT
BRANCH   4   6
HETATM    6  C   UNL     1      -9.840  10.331  65.116  1.00  0.00    -0.389 C  
BRANCH   6   7
HETATM    7  C   UNL     1      -9.611  11.427  66.134  1.00  0.00    -0.242 A  
HETATM    8  C   UNL     1      -8.652  11.200  67.138  1.00  0.00    -0.139 A  
HETATM    9  C   UNL     1      -8.409  12.152  68.119  1.00  0.00    -0.170 A  
HETATM   10  C   UNL     1      -9.169  13.314  68.146  1.00  0.00    -0.212 A  
HETATM   11  C   UNL     1     -10.180  13.533  67.195  1.00  0.00    -0.247 A  
HETATM   12  C   UNL     1     -10.320  12.649  66.099  1.00  0.00    -0.256 A  
HETATM   13  H2  UNL     1     -11.971  12.097  65.138  1.00  0.00     0.000 HD 
HETATM   14  N   UNL     1     -11.297  12.862  65.101  1.00  0.00    -0.291 NA 
HETATM   15  H1  UNL     1     -11.808  13.744  65.076  1.00  0.00     0.000 HD 
BRANCH  11  16
HETATM   16  C   UNL     1     -11.068  14.729  67.358  1.00  0.00    -0.324 C  
HETATM   17  O   UNL     1     -12.286  14.597  67.413  1.00  0.00    -0.289 OA 
BRANCH  16  18
HETATM   18  C   UNL     1     -10.467  16.105  67.410  1.00  0.00    -0.310 A  
HETATM   19  C   UNL     1      -9.706  16.623  66.348  1.00  0.00    -0.306 A  
HETATM   20  C   UNL     1      -9.315  17.964  66.350  1.00  0.00    -0.268 A  
HETATM   21  C   UNL     1      -9.638  18.782  67.431  1.00  0.00    -0.337 A  
HETATM   22  C   UNL     1     -10.324  18.251  68.524  1.00  0.00    -0.341 A  
HETATM   23  C   UNL     1     -10.732  16.914  68.518  1.00  0.00    -0.359 A  
ENDBRANCH  16  18
ENDBRANCH  11  16
ENDBRANCH   6   7
ENDBRANCH   4   6
TORSDOF 4
ENDMDL
MODEL      139
REMARK 921   NORMALIZED FREE ENERGY PREDICTED BY IDOCK:   -4.48 KCAL/MOL
REMARK 922        TOTAL FREE ENERGY PREDICTED BY IDOCK:   -6.24 KCAL/MOL
REMARK 923 INTER-LIGAND FREE ENERGY PREDICTED BY IDOCK:   -6.59 KCAL/MOL
REMARK 924 INTRA-LIGAND FREE ENERGY PREDICTED BY IDOCK:    0.35 KCAL/MOL
REMARK 927      BINDING AFFINITY PREDICTED BY RF-SCORE:    0.00 PKD
ROOT
HETATM    1  N   UNL     1      -9.723   7.622  72.566  1.00  0.00    -0.170 N  
HETATM    2  H2  UNL     1      -8.855   7.174  72.858  1.00  0.00     0.000 HD 
HETATM    3  H1  UNL     1     -10.616   7.231  72.868  1.00  0.00     0.000 HD 
HETATM    4  C   UNL     1      -9.674   8.734  71.776  1.00  0.00    -0.310 C  
HETATM    5  O   UNL     1      -8.603   9.203  71.413  1.00  0.00    -0.314 OA 
ENDROOT
BRANCH   4   6
HETATM    6  C   UNL     1     -11.012   9.325  71.396  1.00  0.00    -0.429 C  
BRANCH   6   7
HETATM    7  C   UNL     1     -11.053   9.789  69.956  1.00  0.00    -0.311 A  
HETATM    8  C   UNL     1     -10.562   8.913  68.970  1.00  0.00    -0.203 A  
HETATM    9  C   UNL     1     -10.547   9.283  67.633  1.00  0.00    -0.324 A  
HETATM   10  C   UNL     1     -10.961  10.559  67.272  1.00  0.00    -0.325 A  
HETATM   11  C   UNL     1     -11.390  11.476  68.247  1.00  0.00    -0.352 A  
HETATM   12  C   UNL     1     -11.566  11.052  69.585  1.00  0.00    -0.318 A  
HETATM   13  H2  UNL     1     -11.295  12.075  71.268  1.00  0.00     0.000 HD 
HETATM   14  N   UNL     1     -12.037  11.935  70.582  1.00  0.00    -0.449 NA 
HETATM   15  H1  UNL     1     -12.407  12.847  70.313  1.00  0.00     0.000 HD 
BRANCH  11  16
HETATM   16  C   UNL     1     -11.682  12.884  67.824  1.00  0.00    -0.362 C  
HETATM   17  O   UNL     1     -11.870  13.759  68.662  1.00  0.00    -0.337 OA 
BRANCH  16  18
HETATM   18  C   UNL     1     -11.790  13.219  66.363  1.00  0.00    -0.446 A  
HETATM   19  C   UNL     1     -12.135  12.252  65.403  1.00  0.00    -0.343 A  
HETATM   20  C   UNL     1     -12.403  12.630  64.086  1.00  0.00    -0.518 A  
HETATM   21  C   UNL     1     -12.282  13.966  63.707  1.00  0.00    -0.310 A  
HETATM   22  C   UNL     1     -11.862  14.917  64.637  1.00  0.00    -0.412 A  
HETATM   23  C   UNL     1     -11.609  14.545  65.961  1.00  0.00    -0.356 A  
ENDBRANCH  16  18
ENDBRANCH  11  16
ENDBRANCH   6   7
ENDBRANCH   4   6
TORSDOF 4
ENDMDL
MODEL      140
REMARK 921   NORMALIZED FREE ENERGY PREDICTED BY IDOCK:   -4.48 KCAL/MOL
REMARK 922        TOTAL FREE ENERGY PREDICTED BY IDOCK:   -6.24 KCAL/MOL
REMARK 923 INTER-LIGAND FREE ENERGY PREDICTED BY IDOCK:   -5.46 KCAL/MOL
REMARK 924 INTRA-LIGAND FREE ENERGY PREDICTED BY IDOCK:   -0.77 KCAL/MOL
REMARK 927      BINDING AFFINITY PREDICTED BY RF-SCORE:    0.00 PKD
ROOT
HETATM    1  N   UNL     1      -9.083   5.998  65.647  1.00  0.00    -0.336 N  
HETATM    2  H2  UNL     1      -8.267   5.432  65.414  1.00  0.00     0.000 HD 
HETATM    3  H1  UNL     1      -9.545   6.539  64.915  1.00  0.00     0.000 HD 
HETATM    4  C   UNL     1      -9.540   6.022  66.933  1.00  0.00    -0.140 C  
HETATM    5  O   UNL     1      -8.986   5.374  67.812  1.00  0.00    -0.109 OA 
ENDROOT
BRANCH   4   6
HETATM    6  C   UNL     1     -10.753   6.888  67.179  1.00  0.00    -0.436 C  
BRANCH   6   7
HETATM    7  C   UNL     1     -10.391   8.253  67.722  1.00  0.00    -0.296 A  
HETATM    8  C   UNL     1     -10.603   8.492  69.092  1.00  0.00    -0.188 A  
HETATM    9  C   UNL     1     -10.316   9.729  69.653  1.00  0.00    -0.259 A  
HETATM   10  C   UNL     1      -9.876  10.763  68.836  1.00  0.00    -0.209 A  
HETATM   11  C   UNL     1      -9.724  10.570  67.452  1.00  0.00    -0.190 A  
HETATM   12  C   UNL     1      -9.852   9.272  66.904  1.00  0.00    -0.214 A  
HETATM   13  H2  UNL     1     -10.550   8.729  65.123  1.00  0.00     0.000 HD 
HETATM   14  N   UNL     1      -9.663   9.033  65.524  1.00  0.00    -0.461 NA 
HETATM   15  H1  UNL     1      -9.274   9.769  64.934  1.00  0.00     0.000 HD 
BRANCH  11  16
HETATM   16  C   UNL     1      -9.392  11.755  66.597  1.00  0.00    -0.198 C  
HETATM   17  O   UNL     1      -8.246  12.189  66.553  1.00  0.00    -0.081 OA 
BRANCH  16  18
HETATM   18  C   UNL     1     -10.479  12.446  65.822  1.00  0.00    -0.288 A  
HETATM   19  C   UNL     1     -11.390  13.319  66.440  1.00  0.00    -0.341 A  
HETATM   20  C   UNL     1     -12.270  14.081  65.668  1.00  0.00    -0.462 A  
HETATM   21  C   UNL     1     -12.278  13.942  64.281  1.00  0.00    -0.447 A  
HETATM   22  C   UNL     1     -11.431  13.017  63.670  1.00  0.00    -0.449 A  
HETATM   23  C   UNL     1     -10.537  12.265  64.438  1.00  0.00    -0.360 A  
ENDBRANCH  16  18
ENDBRANCH  11  16
ENDBRANCH   6   7
ENDBRANCH   4   6
TORSDOF 4
ENDMDL
MODEL      141
REMARK 921   NORMALIZED FREE ENERGY PREDICTED BY IDOCK:   -4.48 KCAL/MOL
REMARK 922        TOTAL FREE ENERGY PREDICTED BY IDOCK:   -6.23 KCAL/MOL
REMARK 923 INTER-LIGAND FREE ENERGY PREDICTED BY IDOCK:   -6.48 KCAL/MOL
REMARK 924 INTRA-LIGAND FREE ENERGY PREDICTED BY IDOCK:    0.24 KCAL/MOL
REMARK 927      BINDING AFFINITY PREDICTED BY RF-SCORE:    0.00 PKD
ROOT
HETATM    1  N   UNL     1      -9.659  10.836  68.303  1.00  0.00    -0.160 N  
HETATM    2  H2  UNL     1      -8.853  10.214  68.360  1.00  0.00     0.000 HD 
HETATM    3  H1  UNL     1      -9.733  11.624  68.948  1.00  0.00     0.000 HD 
HETATM    4  C   UNL     1     -10.624  10.603  67.365  1.00  0.00    -0.256 C  
HETATM    5  O   UNL     1     -10.536   9.659  66.592  1.00  0.00    -0.221 OA 
ENDROOT
BRANCH   4   6
HETATM    6  C   UNL     1     -11.777  11.579  67.359  1.00  0.00    -0.231 C  
BRANCH   6   7
HETATM    7  C   UNL     1     -11.753  12.498  66.157  1.00  0.00    -0.466 A  
HETATM    8  C   UNL     1     -11.887  11.916  64.882  1.00  0.00    -0.236 A  
HETATM    9  C   UNL     1     -11.850  12.696  63.735  1.00  0.00    -0.574 A  
HETATM   10  C   UNL     1     -11.609  14.059  63.844  1.00  0.00    -0.091 A  
HETATM   11  C   UNL     1     -11.402  14.653  65.101  1.00  0.00    -0.375 A  
HETATM   12  C   UNL     1     -11.605  13.898  66.280  1.00  0.00    -0.365 A  
HETATM   13  H2  UNL     1     -10.660  14.022  68.025  1.00  0.00     0.000 HD 
HETATM   14  N   UNL     1     -11.448  14.474  67.560  1.00  0.00    -0.340 NA 
HETATM   15  H1  UNL     1     -11.341  15.485  67.649  1.00  0.00     0.000 HD 
BRANCH  11  16
HETATM   16  C   UNL     1     -10.999  16.096  65.152  1.00  0.00    -0.316 C  
HETATM   17  O   UNL     1     -11.455  16.898  64.343  1.00  0.00    -1.052 OA 
BRANCH  16  18
HETATM   18  C   UNL     1      -9.996  16.558  66.171  1.00  0.00    -0.363 A  
HETATM   19  C   UNL     1     -10.350  17.421  67.222  1.00  0.00    -0.336 A  
HETATM   20  C   UNL     1      -9.444  17.686  68.252  1.00  0.00    -0.295 A  
HETATM   21  C   UNL     1      -8.166  17.131  68.214  1.00  0.00    -0.230 A  
HETATM   22  C   UNL     1      -7.783  16.338  67.131  1.00  0.00    -0.223 A  
HETATM   23  C   UNL     1      -8.693  16.057  66.107  1.00  0.00    -0.348 A  
ENDBRANCH  16  18
ENDBRANCH  11  16
ENDBRANCH   6   7
ENDBRANCH   4   6
TORSDOF 4
ENDMDL
MODEL      142
REMARK 921   NORMALIZED FREE ENERGY PREDICTED BY IDOCK:   -4.45 KCAL/MOL
REMARK 922        TOTAL FREE ENERGY PREDICTED BY IDOCK:   -6.20 KCAL/MOL
REMARK 923 INTER-LIGAND FREE ENERGY PREDICTED BY IDOCK:   -5.71 KCAL/MOL
REMARK 924 INTRA-LIGAND FREE ENERGY PREDICTED BY IDOCK:   -0.49 KCAL/MOL
REMARK 927      BINDING AFFINITY PREDICTED BY RF-SCORE:    0.00 PKD
ROOT
HETATM    1  N   UNL     1      -9.216  16.759  65.747  1.00  0.00    -0.086 N  
HETATM    2  H2  UNL     1      -8.730  17.491  65.229  1.00  0.00     0.000 HD 
HETATM    3  H1  UNL     1      -8.741  16.286  66.516  1.00  0.00     0.000 HD 
HETATM    4  C   UNL     1     -10.494  16.426  65.400  1.00  0.00    -0.311 C  
HETATM    5  O   UNL     1     -11.066  16.993  64.478  1.00  0.00    -1.098 OA 
ENDROOT
BRANCH   4   6
HETATM    6  C   UNL     1     -11.130  15.331  66.225  1.00  0.00    -0.273 C  
BRANCH   6   7
HETATM    7  C   UNL     1     -11.046  13.977  65.554  1.00  0.00    -0.309 A  
HETATM    8  C   UNL     1     -12.118  13.584  64.731  1.00  0.00    -0.442 A  
HETATM    9  C   UNL     1     -12.119  12.346  64.105  1.00  0.00    -0.539 A  
HETATM   10  C   UNL     1     -11.079  11.457  64.347  1.00  0.00    -0.329 A  
HETATM   11  C   UNL     1     -10.031  11.799  65.219  1.00  0.00    -0.284 A  
HETATM   12  C   UNL     1      -9.938  13.116  65.727  1.00  0.00    -0.252 A  
HETATM   13  H2  UNL     1      -9.258  13.733  67.490  1.00  0.00     0.000 HD 
HETATM   14  N   UNL     1      -8.876  13.507  66.572  1.00  0.00    -0.453 NA 
HETATM   15  H1  UNL     1      -8.076  12.886  66.697  1.00  0.00     0.000 HD 
BRANCH  11  16
HETATM   16  C   UNL     1      -9.016  10.752  65.561  1.00  0.00    -0.193 C  
HETATM   17  O   UNL     1      -8.355  10.839  66.590  1.00  0.00    -0.131 OA 
BRANCH  16  18
HETATM   18  C   UNL     1      -8.773   9.609  64.616  1.00  0.00    -0.227 A  
HETATM   19  C   UNL     1      -8.748   9.790  63.223  1.00  0.00    -0.232 A  
HETATM   20  C   UNL     1      -8.343   8.750  62.384  1.00  0.00    -0.203 A  
HETATM   21  C   UNL     1      -8.007   7.510  62.925  1.00  0.00    -0.120 A  
HETATM   22  C   UNL     1      -8.107   7.302  64.301  1.00  0.00    -0.049 A  
HETATM   23  C   UNL     1      -8.496   8.345  65.146  1.00  0.00    -0.179 A  
ENDBRANCH  16  18
ENDBRANCH  11  16
ENDBRANCH   6   7
ENDBRANCH   4   6
TORSDOF 4
ENDMDL
MODEL      143
REMARK 921   NORMALIZED FREE ENERGY PREDICTED BY IDOCK:   -4.42 KCAL/MOL
REMARK 922        TOTAL FREE ENERGY PREDICTED BY IDOCK:   -6.17 KCAL/MOL
REMARK 923 INTER-LIGAND FREE ENERGY PREDICTED BY IDOCK:   -5.36 KCAL/MOL
REMARK 924 INTRA-LIGAND FREE ENERGY PREDICTED BY IDOCK:   -0.80 KCAL/MOL
REMARK 927      BINDING AFFINITY PREDICTED BY RF-SCORE:    0.00 PKD
ROOT
HETATM    1  N   UNL     1     -12.394  13.835  63.173  1.00  0.00    -1.106 N  
HETATM    2  H2  UNL     1     -12.540  13.273  62.334  1.00  0.00     0.000 HD 
HETATM    3  H1  UNL     1     -11.993  14.769  63.089  1.00  0.00     0.000 HD 
HETATM    4  C   UNL     1     -12.738  13.325  64.392  1.00  0.00    -0.117 C  
HETATM    5  O   UNL     1     -13.219  12.203  64.493  1.00  0.00    -0.724 OA 
ENDROOT
BRANCH   4   6
HETATM    6  C   UNL     1     -12.484  14.231  65.574  1.00  0.00    -0.434 C  
BRANCH   6   7
HETATM    7  C   UNL     1     -11.499  13.638  66.558  1.00  0.00    -0.357 A  
HETATM    8  C   UNL     1     -12.015  12.888  67.632  1.00  0.00    -0.344 A  
HETATM    9  C   UNL     1     -11.171  12.336  68.585  1.00  0.00    -0.305 A  
HETATM   10  C   UNL     1      -9.806  12.584  68.514  1.00  0.00    -0.153 A  
HETATM   11  C   UNL     1      -9.274  13.388  67.491  1.00  0.00    -0.219 A  
HETATM   12  C   UNL     1     -10.103  13.812  66.426  1.00  0.00    -0.295 A  
HETATM   13  H2  UNL     1     -10.034  15.504  65.384  1.00  0.00     0.000 HD 
HETATM   14  N   UNL     1      -9.593  14.585  65.359  1.00  0.00    -0.516 NA 
HETATM   15  H1  UNL     1      -8.585  14.711  65.264  1.00  0.00     0.000 HD 
BRANCH  11  16
HETATM   16  C   UNL     1      -7.820  13.746  67.546  1.00  0.00    -0.179 C  
HETATM   17  O   UNL     1      -7.421  14.802  67.068  1.00  0.00    -0.111 OA 
BRANCH  16  18
HETATM   18  C   UNL     1      -6.835  12.785  68.151  1.00  0.00    -0.094 A  
HETATM   19  C   UNL     1      -6.358  12.941  69.464  1.00  0.00    -0.103 A  
HETATM   20  C   UNL     1      -5.588  11.938  70.057  1.00  0.00    -0.124 A  
HETATM   21  C   UNL     1      -5.251  10.798  69.329  1.00  0.00    -0.041 A  
HETATM   22  C   UNL     1      -5.655  10.676  67.999  1.00  0.00    -0.036 A  
HETATM   23  C   UNL     1      -6.440  11.670  67.408  1.00  0.00    -0.103 A  
ENDBRANCH  16  18
ENDBRANCH  11  16
ENDBRANCH   6   7
ENDBRANCH   4   6
TORSDOF 4
ENDMDL
MODEL      144
REMARK 921   NORMALIZED FREE ENERGY PREDICTED BY IDOCK:   -4.39 KCAL/MOL
REMARK 922        TOTAL FREE ENERGY PREDICTED BY IDOCK:   -6.12 KCAL/MOL
REMARK 923 INTER-LIGAND FREE ENERGY PREDICTED BY IDOCK:   -5.25 KCAL/MOL
REMARK 924 INTRA-LIGAND FREE ENERGY PREDICTED BY IDOCK:   -0.87 KCAL/MOL
REMARK 927      BINDING AFFINITY PREDICTED BY RF-SCORE:    0.00 PKD
ROOT
HETATM    1  N   UNL     1      -7.362   3.963  72.459  1.00  0.00    -0.060 N  
HETATM    2  H2  UNL     1      -7.245   3.243  73.173  1.00  0.00     0.000 HD 
HETATM    3  H1  UNL     1      -7.212   3.727  71.478  1.00  0.00     0.000 HD 
HETATM    4  C   UNL     1      -7.716   5.227  72.832  1.00  0.00    -0.098 C  
HETATM    5  O   UNL     1      -7.896   5.511  74.009  1.00  0.00    -0.100 OA 
ENDROOT
BRANCH   4   6
HETATM    6  C   UNL     1      -7.865   6.222  71.705  1.00  0.00    -0.102 C  
BRANCH   6   7
HETATM    7  C   UNL     1      -9.311   6.454  71.323  1.00  0.00    -0.162 A  
HETATM    8  C   UNL     1      -9.811   5.773  70.198  1.00  0.00    -0.240 A  
HETATM    9  C   UNL     1     -11.120   5.957  69.777  1.00  0.00    -0.422 A  
HETATM   10  C   UNL     1     -11.927   6.877  70.435  1.00  0.00    -0.312 A  
HETATM   11  C   UNL     1     -11.429   7.621  71.519  1.00  0.00    -0.295 A  
HETATM   12  C   UNL     1     -10.156   7.318  72.057  1.00  0.00    -0.184 A  
HETATM   13  H2  UNL     1      -8.820   8.542  72.875  1.00  0.00     0.000 HD 
HETATM   14  N   UNL     1      -9.642   8.016  73.172  1.00  0.00    -0.281 NA 
HETATM   15  H1  UNL     1     -10.252   8.640  73.702  1.00  0.00     0.000 HD 
BRANCH  11  16
HETATM   16  C   UNL     1     -12.289   8.703  72.098  1.00  0.00    -0.386 C  
HETATM   17  O   UNL     1     -13.007   8.476  73.066  1.00  0.00    -0.194 OA 
BRANCH  16  18
HETATM   18  C   UNL     1     -12.308  10.065  71.461  1.00  0.00    -0.513 A  
HETATM   19  C   UNL     1     -12.979  11.150  72.050  1.00  0.00    -0.385 A  
HETATM   20  C   UNL     1     -12.827  12.437  71.531  1.00  0.00    -0.377 A  
HETATM   21  C   UNL     1     -12.046  12.642  70.395  1.00  0.00    -0.381 A  
HETATM   22  C   UNL     1     -11.443  11.556  69.760  1.00  0.00    -0.362 A  
HETATM   23  C   UNL     1     -11.579  10.268  70.287  1.00  0.00    -0.396 A  
ENDBRANCH  16  18
ENDBRANCH  11  16
ENDBRANCH   6   7
ENDBRANCH   4   6
TORSDOF 4
ENDMDL
MODEL      145
REMARK 921   NORMALIZED FREE ENERGY PREDICTED BY IDOCK:   -4.36 KCAL/MOL
REMARK 922        TOTAL FREE ENERGY PREDICTED BY IDOCK:   -6.09 KCAL/MOL
REMARK 923 INTER-LIGAND FREE ENERGY PREDICTED BY IDOCK:   -5.16 KCAL/MOL
REMARK 924 INTRA-LIGAND FREE ENERGY PREDICTED BY IDOCK:   -0.93 KCAL/MOL
REMARK 927      BINDING AFFINITY PREDICTED BY RF-SCORE:    0.00 PKD
ROOT
HETATM    1  N   UNL     1     -13.740   8.929  72.883  1.00  0.00    -0.906 N  
HETATM    2  H2  UNL     1     -13.684   9.889  73.224  1.00  0.00     0.000 HD 
HETATM    3  H1  UNL     1     -14.326   8.254  73.376  1.00  0.00     0.000 HD 
HETATM    4  C   UNL     1     -13.028   8.565  71.776  1.00  0.00    -0.352 C  
HETATM    5  O   UNL     1     -12.325   9.374  71.185  1.00  0.00    -0.305 OA 
ENDROOT
BRANCH   4   6
HETATM    6  C   UNL     1     -13.176   7.123  71.349  1.00  0.00    -0.391 C  
BRANCH   6   7
HETATM    7  C   UNL     1     -11.864   6.370  71.389  1.00  0.00    -0.340 A  
HETATM    8  C   UNL     1     -11.411   5.907  72.639  1.00  0.00    -0.337 A  
HETATM    9  C   UNL     1     -10.205   5.230  72.753  1.00  0.00    -0.228 A  
HETATM   10  C   UNL     1      -9.405   5.066  71.629  1.00  0.00    -0.188 A  
HETATM   11  C   UNL     1      -9.804   5.580  70.383  1.00  0.00    -0.259 A  
HETATM   12  C   UNL     1     -11.101   6.120  70.226  1.00  0.00    -0.366 A  
HETATM   13  H2  UNL     1     -11.703   7.612  69.057  1.00  0.00     0.000 HD 
HETATM   14  N   UNL     1     -11.551   6.606  68.978  1.00  0.00    -0.603 NA 
HETATM   15  H1  UNL     1     -11.000   6.426  68.139  1.00  0.00     0.000 HD 
BRANCH  11  16
HETATM   16  C   UNL     1      -8.839   5.506  69.238  1.00  0.00    -0.106 C  
HETATM   17  O   UNL     1      -8.346   6.529  68.775  1.00  0.00    -0.120 OA 
BRANCH  16  18
HETATM   18  C   UNL     1      -8.507   4.176  68.624  1.00  0.00    -0.101 A  
HETATM   19  C   UNL     1      -9.393   3.519  67.754  1.00  0.00    -0.246 A  
HETATM   20  C   UNL     1      -8.984   2.377  67.061  1.00  0.00    -0.160 A  
HETATM   21  C   UNL     1      -7.707   1.858  67.268  1.00  0.00    -0.060 A  
HETATM   22  C   UNL     1      -6.852   2.462  68.191  1.00  0.00    -0.043 A  
HETATM   23  C   UNL     1      -7.252   3.614  68.874  1.00  0.00    -0.050 A  
ENDBRANCH  16  18
ENDBRANCH  11  16
ENDBRANCH   6   7
ENDBRANCH   4   6
TORSDOF 4
ENDMDL
MODEL      146
REMARK 921   NORMALIZED FREE ENERGY PREDICTED BY IDOCK:   -4.35 KCAL/MOL
REMARK 922        TOTAL FREE ENERGY PREDICTED BY IDOCK:   -6.07 KCAL/MOL
REMARK 923 INTER-LIGAND FREE ENERGY PREDICTED BY IDOCK:   -5.96 KCAL/MOL
REMARK 924 INTRA-LIGAND FREE ENERGY PREDICTED BY IDOCK:   -0.11 KCAL/MOL
REMARK 927      BINDING AFFINITY PREDICTED BY RF-SCORE:    0.00 PKD
ROOT
HETATM    1  N   UNL     1      -9.858   5.645  65.841  1.00  0.00    -0.365 N  
HETATM    2  H2  UNL     1     -10.422   4.833  65.589  1.00  0.00     0.000 HD 
HETATM    3  H1  UNL     1      -9.096   5.938  65.229  1.00  0.00     0.000 HD 
HETATM    4  C   UNL     1     -10.135   6.325  66.993  1.00  0.00    -0.176 C  
HETATM    5  O   UNL     1     -11.050   5.974  67.727  1.00  0.00    -0.300 OA 
ENDROOT
BRANCH   4   6
HETATM    6  C   UNL     1      -9.246   7.512  67.280  1.00  0.00    -0.152 C  
BRANCH   6   7
HETATM    7  C   UNL     1      -9.970   8.831  67.117  1.00  0.00    -0.295 A  
HETATM    8  C   UNL     1      -9.783   9.538  65.914  1.00  0.00    -0.352 A  
HETATM    9  C   UNL     1     -10.396  10.765  65.706  1.00  0.00    -0.295 A  
HETATM   10  C   UNL     1     -11.150  11.333  66.726  1.00  0.00    -0.314 A  
HETATM   11  C   UNL     1     -11.294  10.679  67.961  1.00  0.00    -0.350 A  
HETATM   12  C   UNL     1     -10.814   9.358  68.120  1.00  0.00    -0.119 A  
HETATM   13  H2  UNL     1     -10.059   8.487  69.740  1.00  0.00     0.000 HD 
HETATM   14  N   UNL     1     -10.980   8.655  69.334  1.00  0.00    -0.428 NA 
HETATM   15  H1  UNL     1     -11.589   9.035  70.058  1.00  0.00     0.000 HD 
BRANCH  11  16
HETATM   16  C   UNL     1     -11.991  11.402  69.075  1.00  0.00    -0.320 C  
HETATM   17  O   UNL     1     -12.710  10.791  69.858  1.00  0.00    -0.245 OA 
BRANCH  16  18
HETATM   18  C   UNL     1     -11.843  12.891  69.208  1.00  0.00    -0.363 A  
HETATM   19  C   UNL     1     -11.519  13.705  68.110  1.00  0.00    -0.348 A  
HETATM   20  C   UNL     1     -11.566  15.096  68.226  1.00  0.00    -0.357 A  
HETATM   21  C   UNL     1     -11.890  15.682  69.448  1.00  0.00    -0.391 A  
HETATM   22  C   UNL     1     -12.135  14.878  70.562  1.00  0.00    -0.378 A  
HETATM   23  C   UNL     1     -12.104  13.485  70.446  1.00  0.00    -0.415 A  
ENDBRANCH  16  18
ENDBRANCH  11  16
ENDBRANCH   6   7
ENDBRANCH   4   6
TORSDOF 4
ENDMDL
MODEL      147
REMARK 921   NORMALIZED FREE ENERGY PREDICTED BY IDOCK:   -4.33 KCAL/MOL
REMARK 922        TOTAL FREE ENERGY PREDICTED BY IDOCK:   -6.05 KCAL/MOL
REMARK 923 INTER-LIGAND FREE ENERGY PREDICTED BY IDOCK:   -5.52 KCAL/MOL
REMARK 924 INTRA-LIGAND FREE ENERGY PREDICTED BY IDOCK:   -0.54 KCAL/MOL
REMARK 927      BINDING AFFINITY PREDICTED BY RF-SCORE:    0.00 PKD
ROOT
HETATM    1  N   UNL     1     -12.315  13.940  63.378  1.00  0.00    -1.139 N  
HETATM    2  H2  UNL     1     -12.847  13.860  62.511  1.00  0.00     0.000 HD 
HETATM    3  H1  UNL     1     -11.599  14.662  63.464  1.00  0.00     0.000 HD 
HETATM    4  C   UNL     1     -12.573  13.080  64.407  1.00  0.00    -0.285 C  
HETATM    5  O   UNL     1     -13.432  12.214  64.305  1.00  0.00    -0.708 OA 
ENDROOT
BRANCH   4   6
HETATM    6  C   UNL     1     -11.736  13.278  65.649  1.00  0.00    -0.389 C  
BRANCH   6   7
HETATM    7  C   UNL     1     -11.089  11.995  66.123  1.00  0.00    -0.367 A  
HETATM    8  C   UNL     1     -11.498  11.475  67.365  1.00  0.00    -0.349 A  
HETATM    9  C   UNL     1     -10.930  10.315  67.873  1.00  0.00    -0.350 A  
HETATM   10  C   UNL     1      -9.898   9.697  67.176  1.00  0.00    -0.238 A  
HETATM   11  C   UNL     1      -9.425  10.237  65.968  1.00  0.00    -0.234 A  
HETATM   12  C   UNL     1     -10.108  11.318  65.363  1.00  0.00    -0.264 A  
HETATM   13  H2  UNL     1      -9.373  12.816  64.282  1.00  0.00     0.000 HD 
HETATM   14  N   UNL     1      -9.686  11.858  64.128  1.00  0.00    -0.466 NA 
HETATM   15  H1  UNL     1      -8.979  11.369  63.579  1.00  0.00     0.000 HD 
BRANCH  11  16
HETATM   16  C   UNL     1      -8.215   9.619  65.335  1.00  0.00    -0.128 C  
HETATM   17  O   UNL     1      -7.609  10.209  64.447  1.00  0.00    -0.144 OA 
BRANCH  16  18
HETATM   18  C   UNL     1      -7.766   8.249  65.759  1.00  0.00    -0.091 A  
HETATM   19  C   UNL     1      -8.284   7.084  65.170  1.00  0.00    -0.113 A  
HETATM   20  C   UNL     1      -7.719   5.839  65.456  1.00  0.00    -0.090 A  
HETATM   21  C   UNL     1      -6.668   5.744  66.367  1.00  0.00    -0.057 A  
HETATM   22  C   UNL     1      -6.204   6.890  67.015  1.00  0.00    -0.040 A  
HETATM   23  C   UNL     1      -6.756   8.139  66.718  1.00  0.00    -0.064 A  
ENDBRANCH  16  18
ENDBRANCH  11  16
ENDBRANCH   6   7
ENDBRANCH   4   6
TORSDOF 4
ENDMDL
MODEL      148
REMARK 921   NORMALIZED FREE ENERGY PREDICTED BY IDOCK:   -4.31 KCAL/MOL
REMARK 922        TOTAL FREE ENERGY PREDICTED BY IDOCK:   -6.02 KCAL/MOL
REMARK 923 INTER-LIGAND FREE ENERGY PREDICTED BY IDOCK:   -5.17 KCAL/MOL
REMARK 924 INTRA-LIGAND FREE ENERGY PREDICTED BY IDOCK:   -0.85 KCAL/MOL
REMARK 927      BINDING AFFINITY PREDICTED BY RF-SCORE:    0.00 PKD
ROOT
HETATM    1  N   UNL     1      -8.251  16.030  69.088  1.00  0.00    -0.238 N  
HETATM    2  H2  UNL     1      -8.526  16.622  69.872  1.00  0.00     0.000 HD 
HETATM    3  H1  UNL     1      -7.332  16.154  68.663  1.00  0.00     0.000 HD 
HETATM    4  C   UNL     1      -9.119  15.084  68.623  1.00  0.00    -0.191 C  
HETATM    5  O   UNL     1     -10.222  14.935  69.133  1.00  0.00    -0.237 OA 
ENDROOT
BRANCH   4   6
HETATM    6  C   UNL     1      -8.622  14.257  67.460  1.00  0.00    -0.203 C  
BRANCH   6   7
HETATM    7  C   UNL     1      -9.376  12.954  67.311  1.00  0.00    -0.212 A  
HETATM    8  C   UNL     1     -10.438  12.911  66.389  1.00  0.00    -0.278 A  
HETATM    9  C   UNL     1     -11.188  11.756  66.218  1.00  0.00    -0.370 A  
HETATM   10  C   UNL     1     -10.928  10.649  67.017  1.00  0.00    -0.274 A  
HETATM   11  C   UNL     1      -9.918  10.690  67.993  1.00  0.00    -0.180 A  
HETATM   12  C   UNL     1      -9.044  11.800  68.057  1.00  0.00    -0.180 A  
HETATM   13  H2  UNL     1      -8.176  12.620  69.647  1.00  0.00     0.000 HD 
HETATM   14  N   UNL     1      -7.991  11.856  68.998  1.00  0.00    -0.351 NA 
HETATM   15  H1  UNL     1      -7.752  11.023  69.536  1.00  0.00     0.000 HD 
BRANCH  11  16
HETATM   16  C   UNL     1      -9.779   9.525  68.926  1.00  0.00    -0.164 C  
HETATM   17  O   UNL     1      -8.783   8.811  68.885  1.00  0.00    -0.131 OA 
BRANCH  16  18
HETATM   18  C   UNL     1     -10.886   9.202  69.890  1.00  0.00    -0.242 A  
HETATM   19  C   UNL     1     -11.160   7.883  70.289  1.00  0.00    -0.232 A  
HETATM   20  C   UNL     1     -12.071   7.633  71.318  1.00  0.00    -0.337 A  
HETATM   21  C   UNL     1     -12.749   8.692  71.919  1.00  0.00    -0.413 A  
HETATM   22  C   UNL     1     -12.540   9.997  71.470  1.00  0.00    -0.525 A  
HETATM   23  C   UNL     1     -11.616  10.252  70.453  1.00  0.00    -0.411 A  
ENDBRANCH  16  18
ENDBRANCH  11  16
ENDBRANCH   6   7
ENDBRANCH   4   6
TORSDOF 4
ENDMDL
MODEL      149
REMARK 921   NORMALIZED FREE ENERGY PREDICTED BY IDOCK:   -4.27 KCAL/MOL
REMARK 922        TOTAL FREE ENERGY PREDICTED BY IDOCK:   -5.98 KCAL/MOL
REMARK 923 INTER-LIGAND FREE ENERGY PREDICTED BY IDOCK:   -5.22 KCAL/MOL
REMARK 924 INTRA-LIGAND FREE ENERGY PREDICTED BY IDOCK:   -0.76 KCAL/MOL
REMARK 927      BINDING AFFINITY PREDICTED BY RF-SCORE:    0.00 PKD
ROOT
HETATM    1  N   UNL     1     -10.274   4.831  64.684  1.00  0.00    -0.369 N  
HETATM    2  H2  UNL     1     -11.016   4.137  64.593  1.00  0.00     0.000 HD 
HETATM    3  H1  UNL     1      -9.895   5.274  63.847  1.00  0.00     0.000 HD 
HETATM    4  C   UNL     1      -9.802   5.152  65.924  1.00  0.00    -0.129 C  
HETATM    5  O   UNL     1     -10.257   4.620  66.929  1.00  0.00    -0.213 OA 
ENDROOT
BRANCH   4   6
HETATM    6  C   UNL     1      -8.704   6.189  65.957  1.00  0.00    -0.157 C  
BRANCH   6   7
HETATM    7  C   UNL     1      -9.170   7.510  66.530  1.00  0.00    -0.217 A  
HETATM    8  C   UNL     1      -9.355   8.583  65.638  1.00  0.00    -0.122 A  
HETATM    9  C   UNL     1      -9.758   9.829  66.098  1.00  0.00    -0.309 A  
HETATM   10  C   UNL     1      -9.916  10.036  67.462  1.00  0.00    -0.232 A  
HETATM   11  C   UNL     1      -9.669   8.999  68.378  1.00  0.00    -0.170 A  
HETATM   12  C   UNL     1      -9.424   7.687  67.909  1.00  0.00    -0.143 A  
HETATM   13  H2  UNL     1      -8.258   6.277  68.687  1.00  0.00     0.000 HD 
HETATM   14  N   UNL     1      -9.214   6.612  68.801  1.00  0.00    -0.130 NA 
HETATM   15  H1  UNL     1      -9.397   6.740  69.797  1.00  0.00     0.000 HD 
BRANCH  11  16
HETATM   16  C   UNL     1      -9.709   9.314  69.843  1.00  0.00    -0.201 C  
HETATM   17  O   UNL     1      -8.669   9.441  70.480  1.00  0.00    -0.215 OA 
BRANCH  16  18
HETATM   18  C   UNL     1     -11.031   9.433  70.547  1.00  0.00    -0.332 A  
HETATM   19  C   UNL     1     -11.529   8.407  71.368  1.00  0.00    -0.328 A  
HETATM   20  C   UNL     1     -12.668   8.618  72.148  1.00  0.00    -0.447 A  
HETATM   21  C   UNL     1     -13.343   9.835  72.078  1.00  0.00    -0.547 A  
HETATM   22  C   UNL     1     -12.899  10.828  71.204  1.00  0.00    -0.513 A  
HETATM   23  C   UNL     1     -11.749  10.626  70.434  1.00  0.00    -0.446 A  
ENDBRANCH  16  18
ENDBRANCH  11  16
ENDBRANCH   6   7
ENDBRANCH   4   6
TORSDOF 4
ENDMDL
MODEL      150
REMARK 921   NORMALIZED FREE ENERGY PREDICTED BY IDOCK:   -4.26 KCAL/MOL
REMARK 922        TOTAL FREE ENERGY PREDICTED BY IDOCK:   -5.96 KCAL/MOL
REMARK 923 INTER-LIGAND FREE ENERGY PREDICTED BY IDOCK:   -5.08 KCAL/MOL
REMARK 924 INTRA-LIGAND FREE ENERGY PREDICTED BY IDOCK:   -0.88 KCAL/MOL
REMARK 927      BINDING AFFINITY PREDICTED BY RF-SCORE:    0.00 PKD
ROOT
HETATM    1  N   UNL     1      -6.704   7.728  66.616  1.00  0.00    -0.064 N  
HETATM    2  H2  UNL     1      -5.799   7.850  67.071  1.00  0.00     0.000 HD 
HETATM    3  H1  UNL     1      -7.180   6.828  66.679  1.00  0.00     0.000 HD 
HETATM    4  C   UNL     1      -7.258   8.770  65.930  1.00  0.00    -0.084 C  
HETATM    5  O   UNL     1      -6.686   9.850  65.854  1.00  0.00    -0.086 OA 
ENDROOT
BRANCH   4   6
HETATM    6  C   UNL     1      -8.598   8.491  65.290  1.00  0.00    -0.192 C  
BRANCH   6   7
HETATM    7  C   UNL     1      -9.512   9.697  65.309  1.00  0.00    -0.342 A  
HETATM    8  C   UNL     1      -9.668  10.421  64.113  1.00  0.00    -0.387 A  
HETATM    9  C   UNL     1     -10.471  11.552  64.064  1.00  0.00    -0.424 A  
HETATM   10  C   UNL     1     -11.075  12.012  65.228  1.00  0.00    -0.367 A  
HETATM   11  C   UNL     1     -10.878  11.345  66.450  1.00  0.00    -0.323 A  
HETATM   12  C   UNL     1     -10.201  10.104  66.474  1.00  0.00    -0.223 A  
HETATM   13  H2  UNL     1      -9.025   9.347  67.888  1.00  0.00     0.000 HD 
HETATM   14  N   UNL     1     -10.022   9.386  67.678  1.00  0.00    -0.178 NA 
HETATM   15  H1  UNL     1     -10.520   9.679  68.519  1.00  0.00     0.000 HD 
BRANCH  11  16
HETATM   16  C   UNL     1     -11.428  11.966  67.699  1.00  0.00    -0.317 C  
HETATM   17  O   UNL     1     -12.261  11.370  68.373  1.00  0.00    -0.571 OA 
BRANCH  16  18
HETATM   18  C   UNL     1     -10.991  13.345  68.104  1.00  0.00    -0.277 A  
HETATM   19  C   UNL     1     -11.879  14.433  68.110  1.00  0.00    -0.362 A  
HETATM   20  C   UNL     1     -11.491  15.657  68.661  1.00  0.00    -0.381 A  
HETATM   21  C   UNL     1     -10.201  15.815  69.165  1.00  0.00    -0.231 A  
HETATM   22  C   UNL     1      -9.290  14.761  69.088  1.00  0.00    -0.102 A  
HETATM   23  C   UNL     1      -9.680  13.530  68.552  1.00  0.00    -0.168 A  
ENDBRANCH  16  18
ENDBRANCH  11  16
ENDBRANCH   6   7
ENDBRANCH   4   6
TORSDOF 4
ENDMDL
MODEL      151
REMARK 921   NORMALIZED FREE ENERGY PREDICTED BY IDOCK:   -4.23 KCAL/MOL
REMARK 922        TOTAL FREE ENERGY PREDICTED BY IDOCK:   -5.92 KCAL/MOL
REMARK 923 INTER-LIGAND FREE ENERGY PREDICTED BY IDOCK:   -5.12 KCAL/MOL
REMARK 924 INTRA-LIGAND FREE ENERGY PREDICTED BY IDOCK:   -0.80 KCAL/MOL
REMARK 927      BINDING AFFINITY PREDICTED BY RF-SCORE:    0.00 PKD
ROOT
HETATM    1  N   UNL     1     -12.373   7.294  70.427  1.00  0.00    -0.568 N  
HETATM    2  H2  UNL     1     -13.087   6.599  70.212  1.00  0.00     0.000 HD 
HETATM    3  H1  UNL     1     -11.438   7.193  70.033  1.00  0.00     0.000 HD 
HETATM    4  C   UNL     1     -12.683   8.347  71.240  1.00  0.00    -0.195 C  
HETATM    5  O   UNL     1     -13.805   8.468  71.714  1.00  0.00    -0.378 OA 
ENDROOT
BRANCH   4   6
HETATM    6  C   UNL     1     -11.560   9.324  71.500  1.00  0.00    -0.452 C  
BRANCH   6   7
HETATM    7  C   UNL     1     -11.536  10.459  70.500  1.00  0.00    -0.431 A  
HETATM    8  C   UNL     1     -12.207  11.648  70.839  1.00  0.00    -0.401 A  
HETATM    9  C   UNL     1     -12.246  12.720  69.960  1.00  0.00    -0.279 A  
HETATM   10  C   UNL     1     -11.671  12.593  68.701  1.00  0.00    -0.364 A  
HETATM   11  C   UNL     1     -11.055  11.390  68.312  1.00  0.00    -0.300 A  
HETATM   12  C   UNL     1     -10.865  10.357  69.260  1.00  0.00    -0.241 A  
HETATM   13  H2  UNL     1     -10.883   8.388  68.985  1.00  0.00     0.000 HD 
HETATM   14  N   UNL     1     -10.212   9.153  68.915  1.00  0.00    -0.201 NA 
HETATM   15  H1  UNL     1      -9.728   9.080  68.020  1.00  0.00     0.000 HD 
BRANCH  11  16
HETATM   16  C   UNL     1     -10.584  11.255  66.896  1.00  0.00    -0.257 C  
HETATM   17  O   UNL     1     -11.391  11.133  65.982  1.00  0.00    -0.100 OA 
BRANCH  16  18
HETATM   18  C   UNL     1      -9.112  11.222  66.597  1.00  0.00    -0.187 A  
HETATM   19  C   UNL     1      -8.192  12.006  67.314  1.00  0.00    -0.173 A  
HETATM   20  C   UNL     1      -6.819  11.820  67.136  1.00  0.00    -0.148 A  
HETATM   21  C   UNL     1      -6.357  10.888  66.209  1.00  0.00    -0.132 A  
HETATM   22  C   UNL     1      -7.267  10.164  65.438  1.00  0.00    -0.144 A  
HETATM   23  C   UNL     1      -8.642  10.336  65.625  1.00  0.00    -0.170 A  
ENDBRANCH  16  18
ENDBRANCH  11  16
ENDBRANCH   6   7
ENDBRANCH   4   6
TORSDOF 4
ENDMDL
MODEL      152
REMARK 921   NORMALIZED FREE ENERGY PREDICTED BY IDOCK:   -4.22 KCAL/MOL
REMARK 922        TOTAL FREE ENERGY PREDICTED BY IDOCK:   -5.91 KCAL/MOL
REMARK 923 INTER-LIGAND FREE ENERGY PREDICTED BY IDOCK:   -5.15 KCAL/MOL
REMARK 924 INTRA-LIGAND FREE ENERGY PREDICTED BY IDOCK:   -0.77 KCAL/MOL
REMARK 927      BINDING AFFINITY PREDICTED BY RF-SCORE:    0.00 PKD
ROOT
HETATM    1  N   UNL     1     -14.288   7.639  71.038  1.00  0.00    -0.643 N  
HETATM    2  H2  UNL     1     -15.265   7.435  71.252  1.00  0.00     0.000 HD 
HETATM    3  H1  UNL     1     -13.812   7.107  70.309  1.00  0.00     0.000 HD 
HETATM    4  C   UNL     1     -13.637   8.618  71.732  1.00  0.00    -0.403 C  
HETATM    5  O   UNL     1     -14.208   9.256  72.607  1.00  0.00    -0.498 OA 
ENDROOT
BRANCH   4   6
HETATM    6  C   UNL     1     -12.195   8.845  71.342  1.00  0.00    -0.374 C  
BRANCH   6   7
HETATM    7  C   UNL     1     -11.297   7.697  71.748  1.00  0.00    -0.293 A  
HETATM    8  C   UNL     1     -10.677   7.763  73.010  1.00  0.00    -0.446 A  
HETATM    9  C   UNL     1      -9.822   6.757  73.437  1.00  0.00    -0.230 A  
HETATM   10  C   UNL     1      -9.523   5.705  72.580  1.00  0.00    -0.157 A  
HETATM   11  C   UNL     1     -10.074   5.654  71.288  1.00  0.00    -0.261 A  
HETATM   12  C   UNL     1     -11.073   6.581  70.910  1.00  0.00    -0.292 A  
HETATM   13  H2  UNL     1     -11.429   7.379  69.124  1.00  0.00     0.000 HD 
HETATM   14  N   UNL     1     -11.680   6.533  69.635  1.00  0.00    -0.643 NA 
HETATM   15  H1  UNL     1     -11.518   5.727  69.030  1.00  0.00     0.000 HD 
BRANCH  11  16
HETATM   16  C   UNL     1      -9.603   4.581  70.352  1.00  0.00    -0.200 C  
HETATM   17  O   UNL     1      -9.884   3.406  70.562  1.00  0.00    -0.147 OA 
BRANCH  16  18
HETATM   18  C   UNL     1      -8.744   4.941  69.174  1.00  0.00    -0.106 A  
HETATM   19  C   UNL     1      -7.515   5.606  69.327  1.00  0.00    -0.079 A  
HETATM   20  C   UNL     1      -6.659   5.765  68.235  1.00  0.00    -0.052 A  
HETATM   21  C   UNL     1      -7.044   5.306  66.976  1.00  0.00    -0.070 A  
HETATM   22  C   UNL     1      -8.297   4.717  66.804  1.00  0.00    -0.106 A  
HETATM   23  C   UNL     1      -9.149   4.541  67.898  1.00  0.00    -0.147 A  
ENDBRANCH  16  18
ENDBRANCH  11  16
ENDBRANCH   6   7
ENDBRANCH   4   6
TORSDOF 4
ENDMDL
MODEL      153
REMARK 921   NORMALIZED FREE ENERGY PREDICTED BY IDOCK:   -4.19 KCAL/MOL
REMARK 922        TOTAL FREE ENERGY PREDICTED BY IDOCK:   -5.88 KCAL/MOL
REMARK 923 INTER-LIGAND FREE ENERGY PREDICTED BY IDOCK:   -5.21 KCAL/MOL
REMARK 924 INTRA-LIGAND FREE ENERGY PREDICTED BY IDOCK:   -0.67 KCAL/MOL
REMARK 927      BINDING AFFINITY PREDICTED BY RF-SCORE:    0.00 PKD
ROOT
HETATM    1  N   UNL     1      -7.521  19.003  68.965  1.00  0.00    -0.326 N  
HETATM    2  H2  UNL     1      -7.776  19.623  69.734  1.00  0.00     0.000 HD 
HETATM    3  H1  UNL     1      -6.835  18.264  69.122  1.00  0.00     0.000 HD 
HETATM    4  C   UNL     1      -8.102  19.174  67.742  1.00  0.00    -0.278 C  
HETATM    5  O   UNL     1      -8.925  20.061  67.553  1.00  0.00    -0.326 OA 
ENDROOT
BRANCH   4   6
HETATM    6  C   UNL     1      -7.659  18.208  66.668  1.00  0.00    -0.259 C  
BRANCH   6   7
HETATM    7  C   UNL     1      -7.913  16.765  67.046  1.00  0.00    -0.231 A  
HETATM    8  C   UNL     1      -6.796  15.942  67.280  1.00  0.00    -0.232 A  
HETATM    9  C   UNL     1      -6.954  14.603  67.607  1.00  0.00    -0.205 A  
HETATM   10  C   UNL     1      -8.229  14.053  67.637  1.00  0.00    -0.185 A  
HETATM   11  C   UNL     1      -9.356  14.838  67.338  1.00  0.00    -0.199 A  
HETATM   12  C   UNL     1      -9.217  16.235  67.170  1.00  0.00    -0.213 A  
HETATM   13  H2  UNL     1     -10.233  17.460  65.978  1.00  0.00     0.000 HD 
HETATM   14  N   UNL     1     -10.334  17.061  66.911  1.00  0.00    -0.312 NA 
HETATM   15  H1  UNL     1     -11.276  16.679  67.001  1.00  0.00     0.000 HD 
BRANCH  11  16
HETATM   16  C   UNL     1     -10.691  14.163  67.239  1.00  0.00    -0.279 C  
HETATM   17  O   UNL     1     -11.418  14.076  68.222  1.00  0.00    -0.269 OA 
BRANCH  16  18
HETATM   18  C   UNL     1     -11.123  13.548  65.937  1.00  0.00    -0.292 A  
HETATM   19  C   UNL     1     -11.400  12.176  65.821  1.00  0.00    -0.402 A  
HETATM   20  C   UNL     1     -11.970  11.669  64.651  1.00  0.00    -0.046 A  
HETATM   21  C   UNL     1     -12.223  12.518  63.575  1.00  0.00    -0.652 A  
HETATM   22  C   UNL     1     -11.876  13.867  63.657  1.00  0.00    -0.128 A  
HETATM   23  C   UNL     1     -11.320  14.381  64.833  1.00  0.00    -0.380 A  
ENDBRANCH  16  18
ENDBRANCH  11  16
ENDBRANCH   6   7
ENDBRANCH   4   6
TORSDOF 4
ENDMDL
MODEL      154
REMARK 921   NORMALIZED FREE ENERGY PREDICTED BY IDOCK:   -4.18 KCAL/MOL
REMARK 922        TOTAL FREE ENERGY PREDICTED BY IDOCK:   -5.86 KCAL/MOL
REMARK 923 INTER-LIGAND FREE ENERGY PREDICTED BY IDOCK:   -5.21 KCAL/MOL
REMARK 924 INTRA-LIGAND FREE ENERGY PREDICTED BY IDOCK:   -0.66 KCAL/MOL
REMARK 927      BINDING AFFINITY PREDICTED BY RF-SCORE:    0.00 PKD
ROOT
HETATM    1  N   UNL     1     -11.692  12.099  67.505  1.00  0.00    -0.340 N  
HETATM    2  H2  UNL     1     -12.588  11.678  67.750  1.00  0.00     0.000 HD 
HETATM    3  H1  UNL     1     -10.941  12.118  68.196  1.00  0.00     0.000 HD 
HETATM    4  C   UNL     1     -11.515  12.628  66.259  1.00  0.00    -0.364 C  
HETATM    5  O   UNL     1     -12.416  12.605  65.431  1.00  0.00    -0.601 OA 
ENDROOT
BRANCH   4   6
HETATM    6  C   UNL     1     -10.154  13.228  65.992  1.00  0.00    -0.301 C  
BRANCH   6   7
HETATM    7  C   UNL     1     -10.158  14.739  66.083  1.00  0.00    -0.312 A  
HETATM    8  C   UNL     1     -11.102  15.440  65.310  1.00  0.00    -0.367 A  
HETATM    9  C   UNL     1     -11.146  16.827  65.327  1.00  0.00     0.005 A  
HETATM   10  C   UNL     1     -10.203  17.532  66.064  1.00  0.00    -0.306 A  
HETATM   11  C   UNL     1      -9.207  16.855  66.788  1.00  0.00    -0.266 A  
HETATM   12  C   UNL     1      -9.258  15.447  66.911  1.00  0.00    -0.233 A  
HETATM   13  H2  UNL     1      -7.760  14.146  67.034  1.00  0.00     0.000 HD 
HETATM   14  N   UNL     1      -8.298  14.738  67.667  1.00  0.00    -0.158 NA 
HETATM   15  H1  UNL     1      -7.649  15.249  68.265  1.00  0.00     0.000 HD 
BRANCH  11  16
HETATM   16  C   UNL     1      -8.127  17.662  67.443  1.00  0.00    -0.207 C  
HETATM   17  O   UNL     1      -8.001  17.658  68.663  1.00  0.00    -0.277 OA 
BRANCH  16  18
HETATM   18  C   UNL     1      -7.220  18.518  66.605  1.00  0.00    -0.239 A  
HETATM   19  C   UNL     1      -6.101  17.986  65.942  1.00  0.00    -0.272 A  
HETATM   20  C   UNL     1      -5.386  18.765  65.030  1.00  0.00    -0.230 A  
HETATM   21  C   UNL     1      -5.752  20.092  64.810  1.00  0.00    -0.247 A  
HETATM   22  C   UNL     1      -6.813  20.648  65.526  1.00  0.00    -0.177 A  
HETATM   23  C   UNL     1      -7.541  19.867  66.428  1.00  0.00    -0.313 A  
ENDBRANCH  16  18
ENDBRANCH  11  16
ENDBRANCH   6   7
ENDBRANCH   4   6
TORSDOF 4
ENDMDL
MODEL      155
REMARK 921   NORMALIZED FREE ENERGY PREDICTED BY IDOCK:   -4.17 KCAL/MOL
REMARK 922        TOTAL FREE ENERGY PREDICTED BY IDOCK:   -5.86 KCAL/MOL
REMARK 923 INTER-LIGAND FREE ENERGY PREDICTED BY IDOCK:   -5.43 KCAL/MOL
REMARK 924 INTRA-LIGAND FREE ENERGY PREDICTED BY IDOCK:   -0.43 KCAL/MOL
REMARK 927      BINDING AFFINITY PREDICTED BY RF-SCORE:    0.00 PKD
ROOT
HETATM    1  N   UNL     1     -11.495   9.684  69.809  1.00  0.00    -0.430 N  
HETATM    2  H2  UNL     1     -11.522   8.891  69.168  1.00  0.00     0.000 HD 
HETATM    3  H1  UNL     1     -11.159   9.548  70.763  1.00  0.00     0.000 HD 
HETATM    4  C   UNL     1     -11.910  10.912  69.379  1.00  0.00    -0.328 C  
HETATM    5  O   UNL     1     -12.313  11.076  68.235  1.00  0.00    -0.479 OA 
ENDROOT
BRANCH   4   6
HETATM    6  C   UNL     1     -11.832  12.022  70.400  1.00  0.00    -0.302 C  
BRANCH   6   7
HETATM    7  C   UNL     1     -11.552  13.370  69.772  1.00  0.00    -0.305 A  
HETATM    8  C   UNL     1     -12.378  14.449  70.138  1.00  0.00    -0.406 A  
HETATM    9  C   UNL     1     -12.194  15.708  69.582  1.00  0.00    -0.264 A  
HETATM   10  C   UNL     1     -11.225  15.887  68.603  1.00  0.00    -0.360 A  
HETATM   11  C   UNL     1     -10.434  14.808  68.170  1.00  0.00    -0.239 A  
HETATM   12  C   UNL     1     -10.501  13.568  68.848  1.00  0.00    -0.126 A  
HETATM   13  H2  UNL     1     -10.293  11.730  68.119  1.00  0.00     0.000 HD 
HETATM   14  N   UNL     1      -9.690  12.476  68.467  1.00  0.00    -0.361 NA 
HETATM   15  H1  UNL     1      -8.931  12.619  67.801  1.00  0.00     0.000 HD 
BRANCH  11  16
HETATM   16  C   UNL     1      -9.509  15.021  67.010  1.00  0.00    -0.229 C  
HETATM   17  O   UNL     1      -9.653  14.379  65.975  1.00  0.00    -0.302 OA 
BRANCH  16  18
HETATM   18  C   UNL     1      -8.371  15.995  67.129  1.00  0.00    -0.228 A  
HETATM   19  C   UNL     1      -8.191  17.041  66.209  1.00  0.00    -0.322 A  
HETATM   20  C   UNL     1      -7.236  18.032  66.447  1.00  0.00    -0.289 A  
HETATM   21  C   UNL     1      -6.424  17.959  67.578  1.00  0.00    -0.179 A  
HETATM   22  C   UNL     1      -6.545  16.878  68.452  1.00  0.00    -0.155 A  
HETATM   23  C   UNL     1      -7.511  15.894  68.226  1.00  0.00    -0.128 A  
ENDBRANCH  16  18
ENDBRANCH  11  16
ENDBRANCH   6   7
ENDBRANCH   4   6
TORSDOF 4
ENDMDL
MODEL      156
REMARK 921   NORMALIZED FREE ENERGY PREDICTED BY IDOCK:   -4.15 KCAL/MOL
REMARK 922        TOTAL FREE ENERGY PREDICTED BY IDOCK:   -5.83 KCAL/MOL
REMARK 923 INTER-LIGAND FREE ENERGY PREDICTED BY IDOCK:   -5.48 KCAL/MOL
REMARK 924 INTRA-LIGAND FREE ENERGY PREDICTED BY IDOCK:   -0.35 KCAL/MOL
REMARK 927      BINDING AFFINITY PREDICTED BY RF-SCORE:    0.00 PKD
ROOT
HETATM    1  N   UNL     1     -10.173  14.993  67.095  1.00  0.00    -0.247 N  
HETATM    2  H2  UNL     1      -9.428  15.689  67.064  1.00  0.00     0.000 HD 
HETATM    3  H1  UNL     1     -10.330  14.463  67.953  1.00  0.00     0.000 HD 
HETATM    4  C   UNL     1     -10.946  14.785  65.989  1.00  0.00    -0.328 C  
HETATM    5  O   UNL     1     -10.758  15.421  64.960  1.00  0.00    -0.405 OA 
ENDROOT
BRANCH   4   6
HETATM    6  C   UNL     1     -12.022  13.734  66.132  1.00  0.00    -0.449 C  
BRANCH   6   7
HETATM    7  C   UNL     1     -11.565  12.543  66.946  1.00  0.00    -0.436 A  
HETATM    8  C   UNL     1     -11.997  12.457  68.283  1.00  0.00    -0.270 A  
HETATM    9  C   UNL     1     -11.597  11.404  69.094  1.00  0.00    -0.381 A  
HETATM   10  C   UNL     1     -10.706  10.461  68.599  1.00  0.00    -0.250 A  
HETATM   11  C   UNL     1     -10.205  10.564  67.289  1.00  0.00    -0.260 A  
HETATM   12  C   UNL     1     -10.736  11.534  66.407  1.00  0.00    -0.273 A  
HETATM   13  H2  UNL     1      -9.822  12.538  64.954  1.00  0.00     0.000 HD 
HETATM   14  N   UNL     1     -10.288  11.638  65.071  1.00  0.00    -0.267 NA 
HETATM   15  H1  UNL     1      -9.689  10.910  64.682  1.00  0.00     0.000 HD 
BRANCH  11  16
HETATM   16  C   UNL     1      -9.135   9.608  66.856  1.00  0.00    -0.138 C  
HETATM   17  O   UNL     1      -7.987  10.000  66.678  1.00  0.00    -0.112 OA 
BRANCH  16  18
HETATM   18  C   UNL     1      -9.479   8.169  66.593  1.00  0.00    -0.274 A  
HETATM   19  C   UNL     1      -8.637   7.330  65.844  1.00  0.00    -0.159 A  
HETATM   20  C   UNL     1      -8.893   5.959  65.771  1.00  0.00    -0.145 A  
HETATM   21  C   UNL     1     -10.015   5.426  66.403  1.00  0.00    -0.218 A  
HETATM   22  C   UNL     1     -10.897   6.268  67.081  1.00  0.00    -0.460 A  
HETATM   23  C   UNL     1     -10.635   7.638  67.171  1.00  0.00    -0.410 A  
ENDBRANCH  16  18
ENDBRANCH  11  16
ENDBRANCH   6   7
ENDBRANCH   4   6
TORSDOF 4
ENDMDL
MODEL      157
REMARK 921   NORMALIZED FREE ENERGY PREDICTED BY IDOCK:   -4.15 KCAL/MOL
REMARK 922        TOTAL FREE ENERGY PREDICTED BY IDOCK:   -5.82 KCAL/MOL
REMARK 923 INTER-LIGAND FREE ENERGY PREDICTED BY IDOCK:   -4.97 KCAL/MOL
REMARK 924 INTRA-LIGAND FREE ENERGY PREDICTED BY IDOCK:   -0.85 KCAL/MOL
REMARK 927      BINDING AFFINITY PREDICTED BY RF-SCORE:    0.00 PKD
ROOT
HETATM    1  N   UNL     1     -10.728  13.585  64.029  1.00  0.00    -0.536 N  
HETATM    2  H2  UNL     1     -11.368  13.861  63.284  1.00  0.00     0.000 HD 
HETATM    3  H1  UNL     1     -10.139  14.290  64.472  1.00  0.00     0.000 HD 
HETATM    4  C   UNL     1     -10.674  12.277  64.418  1.00  0.00    -0.331 C  
HETATM    5  O   UNL     1     -11.382  11.432  63.886  1.00  0.00    -0.370 OA 
ENDROOT
BRANCH   4   6
HETATM    6  C   UNL     1      -9.698  11.966  65.528  1.00  0.00    -0.237 C  
BRANCH   6   7
HETATM    7  C   UNL     1     -10.297  11.073  66.593  1.00  0.00    -0.288 A  
HETATM    8  C   UNL     1     -10.939  11.690  67.683  1.00  0.00    -0.294 A  
HETATM    9  C   UNL     1     -11.488  10.933  68.708  1.00  0.00    -0.376 A  
HETATM   10  C   UNL     1     -11.343   9.552  68.690  1.00  0.00     0.176 A  
HETATM   11  C   UNL     1     -10.646   8.917  67.648  1.00  0.00    -0.292 A  
HETATM   12  C   UNL     1     -10.231   9.663  66.520  1.00  0.00    -0.224 A  
HETATM   13  H2  UNL     1      -8.617   9.423  65.384  1.00  0.00     0.000 HD 
HETATM   14  N   UNL     1      -9.566   9.050  65.435  1.00  0.00    -0.460 NA 
HETATM   15  H1  UNL     1      -9.519   8.033  65.382  1.00  0.00     0.000 HD 
BRANCH  11  16
HETATM   16  C   UNL     1     -10.390   7.444  67.753  1.00  0.00    -0.213 C  
HETATM   17  O   UNL     1     -10.366   6.744  66.746  1.00  0.00    -0.230 OA 
BRANCH  16  18
HETATM   18  C   UNL     1     -10.205   6.811  69.103  1.00  0.00    -0.195 A  
HETATM   19  C   UNL     1     -11.247   6.128  69.751  1.00  0.00    -0.494 A  
HETATM   20  C   UNL     1     -10.995   5.400  70.916  1.00  0.00    -0.119 A  
HETATM   21  C   UNL     1      -9.715   5.388  71.467  1.00  0.00    -0.209 A  
HETATM   22  C   UNL     1      -8.695   6.131  70.871  1.00  0.00    -0.136 A  
HETATM   23  C   UNL     1      -8.939   6.847  69.695  1.00  0.00    -0.144 A  
ENDBRANCH  16  18
ENDBRANCH  11  16
ENDBRANCH   6   7
ENDBRANCH   4   6
TORSDOF 4
ENDMDL
MODEL      158
REMARK 921   NORMALIZED FREE ENERGY PREDICTED BY IDOCK:   -4.13 KCAL/MOL
REMARK 922        TOTAL FREE ENERGY PREDICTED BY IDOCK:   -5.81 KCAL/MOL
REMARK 923 INTER-LIGAND FREE ENERGY PREDICTED BY IDOCK:   -5.11 KCAL/MOL
REMARK 924 INTRA-LIGAND FREE ENERGY PREDICTED BY IDOCK:   -0.70 KCAL/MOL
REMARK 927      BINDING AFFINITY PREDICTED BY RF-SCORE:    0.00 PKD
ROOT
HETATM    1  N   UNL     1      -5.828  11.506  70.519  1.00  0.00    -0.151 N  
HETATM    2  H2  UNL     1      -5.739  11.658  71.524  1.00  0.00     0.000 HD 
HETATM    3  H1  UNL     1      -5.644  10.580  70.132  1.00  0.00     0.000 HD 
HETATM    4  C   UNL     1      -6.192  12.545  69.711  1.00  0.00    -0.113 C  
HETATM    5  O   UNL     1      -6.413  13.657  70.175  1.00  0.00    -0.078 OA 
ENDROOT
BRANCH   4   6
HETATM    6  C   UNL     1      -6.297  12.222  68.239  1.00  0.00    -0.055 C  
BRANCH   6   7
HETATM    7  C   UNL     1      -7.488  11.344  67.922  1.00  0.00    -0.095 A  
HETATM    8  C   UNL     1      -7.236  10.027  67.493  1.00  0.00    -0.089 A  
HETATM    9  C   UNL     1      -8.280   9.174  67.163  1.00  0.00    -0.113 A  
HETATM   10  C   UNL     1      -9.585   9.648  67.191  1.00  0.00    -0.210 A  
HETATM   11  C   UNL     1      -9.857  10.980  67.549  1.00  0.00    -0.190 A  
HETATM   12  C   UNL     1      -8.819  11.802  68.047  1.00  0.00    -0.164 A  
HETATM   13  H2  UNL     1      -8.561  13.762  67.831  1.00  0.00     0.000 HD 
HETATM   14  N   UNL     1      -9.064  13.132  68.456  1.00  0.00    -0.358 NA 
HETATM   15  H1  UNL     1     -10.025  13.463  68.547  1.00  0.00     0.000 HD 
BRANCH  11  16
HETATM   16  C   UNL     1     -11.263  11.482  67.420  1.00  0.00    -0.304 C  
HETATM   17  O   UNL     1     -12.086  11.261  68.302  1.00  0.00    -0.619 OA 
BRANCH  16  18
HETATM   18  C   UNL     1     -11.682  12.224  66.181  1.00  0.00    -0.440 A  
HETATM   19  C   UNL     1     -12.328  13.470  66.245  1.00  0.00    -0.440 A  
HETATM   20  C   UNL     1     -12.542  14.213  65.083  1.00  0.00    -0.426 A  
HETATM   21  C   UNL     1     -12.156  13.698  63.846  1.00  0.00    -0.462 A  
HETATM   22  C   UNL     1     -11.587  12.426  63.770  1.00  0.00    -0.553 A  
HETATM   23  C   UNL     1     -11.357  11.686  64.933  1.00  0.00    -0.252 A  
ENDBRANCH  16  18
ENDBRANCH  11  16
ENDBRANCH   6   7
ENDBRANCH   4   6
TORSDOF 4
ENDMDL
MODEL      159
REMARK 921   NORMALIZED FREE ENERGY PREDICTED BY IDOCK:   -4.12 KCAL/MOL
REMARK 922        TOTAL FREE ENERGY PREDICTED BY IDOCK:   -5.80 KCAL/MOL
REMARK 923 INTER-LIGAND FREE ENERGY PREDICTED BY IDOCK:   -5.34 KCAL/MOL
REMARK 924 INTRA-LIGAND FREE ENERGY PREDICTED BY IDOCK:   -0.46 KCAL/MOL
REMARK 927      BINDING AFFINITY PREDICTED BY RF-SCORE:    0.00 PKD
ROOT
HETATM    1  N   UNL     1     -10.328  10.428  64.054  1.00  0.00    -0.432 N  
HETATM    2  H2  UNL     1     -10.881  10.230  63.220  1.00  0.00     0.000 HD 
HETATM    3  H1  UNL     1      -9.593   9.778  64.336  1.00  0.00     0.000 HD 
HETATM    4  C   UNL     1     -10.580  11.559  64.776  1.00  0.00    -0.305 C  
HETATM    5  O   UNL     1     -11.461  12.339  64.437  1.00  0.00    -0.324 OA 
ENDROOT
BRANCH   4   6
HETATM    6  C   UNL     1      -9.709  11.765  65.992  1.00  0.00    -0.254 C  
BRANCH   6   7
HETATM    7  C   UNL     1      -9.254  10.460  66.608  1.00  0.00    -0.178 A  
HETATM    8  C   UNL     1      -7.938  10.034  66.346  1.00  0.00    -0.116 A  
HETATM    9  C   UNL     1      -7.462   8.835  66.858  1.00  0.00    -0.090 A  
HETATM   10  C   UNL     1      -8.317   8.015  67.583  1.00  0.00    -0.128 A  
HETATM   11  C   UNL     1      -9.656   8.386  67.799  1.00  0.00    -0.185 A  
HETATM   12  C   UNL     1     -10.098   9.676  67.426  1.00  0.00    -0.204 A  
HETATM   13  H2  UNL     1     -11.887  10.245  66.770  1.00  0.00     0.000 HD 
HETATM   14  N   UNL     1     -11.425  10.098  67.667  1.00  0.00    -0.546 NA 
HETATM   15  H1  UNL     1     -12.035   9.533  68.258  1.00  0.00     0.000 HD 
BRANCH  11  16
HETATM   16  C   UNL     1     -10.573   7.399  68.457  1.00  0.00    -0.153 C  
HETATM   17  O   UNL     1     -11.167   6.561  67.788  1.00  0.00    -0.305 OA 
BRANCH  16  18
HETATM   18  C   UNL     1     -10.803   7.466  69.940  1.00  0.00    -0.259 A  
HETATM   19  C   UNL     1      -9.994   8.248  70.782  1.00  0.00    -0.217 A  
HETATM   20  C   UNL     1     -10.342   8.430  72.122  1.00  0.00    -0.397 A  
HETATM   21  C   UNL     1     -11.469   7.796  72.642  1.00  0.00    -0.430 A  
HETATM   22  C   UNL     1     -12.230   6.954  71.829  1.00  0.00    -0.396 A  
HETATM   23  C   UNL     1     -11.894   6.782  70.483  1.00  0.00    -0.418 A  
ENDBRANCH  16  18
ENDBRANCH  11  16
ENDBRANCH   6   7
ENDBRANCH   4   6
TORSDOF 4
ENDMDL
MODEL      160
REMARK 921   NORMALIZED FREE ENERGY PREDICTED BY IDOCK:   -4.12 KCAL/MOL
REMARK 922        TOTAL FREE ENERGY PREDICTED BY IDOCK:   -5.80 KCAL/MOL
REMARK 923 INTER-LIGAND FREE ENERGY PREDICTED BY IDOCK:   -4.71 KCAL/MOL
REMARK 924 INTRA-LIGAND FREE ENERGY PREDICTED BY IDOCK:   -1.08 KCAL/MOL
REMARK 927      BINDING AFFINITY PREDICTED BY RF-SCORE:    0.00 PKD
ROOT
HETATM    1  N   UNL     1      -8.103  13.556  66.959  1.00  0.00    -0.393 N  
HETATM    2  H2  UNL     1      -8.246  14.564  67.018  1.00  0.00     0.000 HD 
HETATM    3  H1  UNL     1      -8.885  12.951  66.706  1.00  0.00     0.000 HD 
HETATM    4  C   UNL     1      -6.868  13.035  67.222  1.00  0.00    -0.026 C  
HETATM    5  O   UNL     1      -5.930  13.760  67.526  1.00  0.00    -0.319 OA 
ENDROOT
BRANCH   4   6
HETATM    6  C   UNL     1      -6.756  11.533  67.109  1.00  0.00    -0.129 C  
BRANCH   6   7
HETATM    7  C   UNL     1      -7.267  10.819  68.342  1.00  0.00    -0.085 A  
HETATM    8  C   UNL     1      -6.379  10.654  69.421  1.00  0.00    -0.060 A  
HETATM    9  C   UNL     1      -6.774   9.988  70.573  1.00  0.00    -0.118 A  
HETATM   10  C   UNL     1      -8.040   9.419  70.633  1.00  0.00    -0.197 A  
HETATM   11  C   UNL     1      -8.920   9.510  69.541  1.00  0.00    -0.187 A  
HETATM   12  C   UNL     1      -8.589  10.327  68.435  1.00  0.00    -0.125 A  
HETATM   13  H2  UNL     1      -9.029  10.070  66.513  1.00  0.00     0.000 HD 
HETATM   14  N   UNL     1      -9.468  10.476  67.339  1.00  0.00    -0.153 NA 
HETATM   15  H1  UNL     1     -10.422  10.121  67.406  1.00  0.00     0.000 HD 
BRANCH  11  16
HETATM   16  C   UNL     1     -10.213   8.753  69.600  1.00  0.00    -0.210 C  
HETATM   17  O   UNL     1     -10.412   7.804  68.850  1.00  0.00    -0.213 OA 
BRANCH  16  18
HETATM   18  C   UNL     1     -11.290   9.186  70.554  1.00  0.00    -0.300 A  
HETATM   19  C   UNL     1     -11.758  10.511  70.593  1.00  0.00    -0.453 A  
HETATM   20  C   UNL     1     -12.878  10.840  71.359  1.00  0.00    -0.557 A  
HETATM   21  C   UNL     1     -13.508   9.862  72.126  1.00  0.00    -0.454 A  
HETATM   22  C   UNL     1     -12.999   8.564  72.153  1.00  0.00    -0.403 A  
HETATM   23  C   UNL     1     -11.887   8.227  71.375  1.00  0.00    -0.330 A  
ENDBRANCH  16  18
ENDBRANCH  11  16
ENDBRANCH   6   7
ENDBRANCH   4   6
TORSDOF 4
ENDMDL
MODEL      161
REMARK 921   NORMALIZED FREE ENERGY PREDICTED BY IDOCK:   -4.12 KCAL/MOL
REMARK 922        TOTAL FREE ENERGY PREDICTED BY IDOCK:   -5.79 KCAL/MOL
REMARK 923 INTER-LIGAND FREE ENERGY PREDICTED BY IDOCK:   -5.00 KCAL/MOL
REMARK 924 INTRA-LIGAND FREE ENERGY PREDICTED BY IDOCK:   -0.79 KCAL/MOL
REMARK 927      BINDING AFFINITY PREDICTED BY RF-SCORE:    0.00 PKD
ROOT
HETATM    1  N   UNL     1      -6.286  10.949  64.734  1.00  0.00    -0.358 N  
HETATM    2  H2  UNL     1      -6.287  10.928  63.714  1.00  0.00     0.000 HD 
HETATM    3  H1  UNL     1      -5.779  11.688  65.222  1.00  0.00     0.000 HD 
HETATM    4  C   UNL     1      -6.962   9.986  65.427  1.00  0.00    -0.127 C  
HETATM    5  O   UNL     1      -7.571   9.099  64.843  1.00  0.00    -0.102 OA 
ENDROOT
BRANCH   4   6
HETATM    6  C   UNL     1      -6.902  10.102  66.933  1.00  0.00    -0.084 C  
BRANCH   6   7
HETATM    7  C   UNL     1      -8.266  10.318  67.553  1.00  0.00    -0.114 A  
HETATM    8  C   UNL     1      -8.894   9.214  68.159  1.00  0.00    -0.129 A  
HETATM    9  C   UNL     1     -10.155   9.335  68.725  1.00  0.00    -0.210 A  
HETATM   10  C   UNL     1     -10.832  10.544  68.634  1.00  0.00    -0.276 A  
HETATM   11  C   UNL     1     -10.255  11.642  67.972  1.00  0.00    -0.202 A  
HETATM   12  C   UNL     1      -8.909  11.577  67.542  1.00  0.00    -0.155 A  
HETATM   13  H2  UNL     1      -8.061  12.416  65.951  1.00  0.00     0.000 HD 
HETATM   14  N   UNL     1      -8.283  12.675  66.912  1.00  0.00    -0.373 NA 
HETATM   15  H1  UNL     1      -8.747  13.584  66.904  1.00  0.00     0.000 HD 
BRANCH  11  16
HETATM   16  C   UNL     1     -11.085  12.873  67.771  1.00  0.00    -0.259 C  
HETATM   17  O   UNL     1     -11.425  13.557  68.730  1.00  0.00    -0.266 OA 
BRANCH  16  18
HETATM   18  C   UNL     1     -11.544  13.249  66.390  1.00  0.00    -0.387 A  
HETATM   19  C   UNL     1     -11.362  14.543  65.875  1.00  0.00    -0.341 A  
HETATM   20  C   UNL     1     -11.634  14.811  64.531  1.00  0.00    -0.366 A  
HETATM   21  C   UNL     1     -12.133  13.803  63.708  1.00  0.00    -0.385 A  
HETATM   22  C   UNL     1     -12.391  12.538  64.236  1.00  0.00    -0.541 A  
HETATM   23  C   UNL     1     -12.105  12.261  65.576  1.00  0.00    -0.326 A  
ENDBRANCH  16  18
ENDBRANCH  11  16
ENDBRANCH   6   7
ENDBRANCH   4   6
TORSDOF 4
ENDMDL
MODEL      162
REMARK 921   NORMALIZED FREE ENERGY PREDICTED BY IDOCK:   -4.11 KCAL/MOL
REMARK 922        TOTAL FREE ENERGY PREDICTED BY IDOCK:   -5.78 KCAL/MOL
REMARK 923 INTER-LIGAND FREE ENERGY PREDICTED BY IDOCK:   -4.70 KCAL/MOL
REMARK 924 INTRA-LIGAND FREE ENERGY PREDICTED BY IDOCK:   -1.09 KCAL/MOL
REMARK 927      BINDING AFFINITY PREDICTED BY RF-SCORE:    0.00 PKD
ROOT
HETATM    1  N   UNL     1      -9.958  14.413  69.092  1.00  0.00    -0.408 N  
HETATM    2  H2  UNL     1      -9.469  15.303  69.185  1.00  0.00     0.000 HD 
HETATM    3  H1  UNL     1      -9.779  13.668  69.766  1.00  0.00     0.000 HD 
HETATM    4  C   UNL     1     -10.844  14.236  68.068  1.00  0.00    -0.239 C  
HETATM    5  O   UNL     1     -11.059  15.130  67.260  1.00  0.00    -0.321 OA 
ENDROOT
BRANCH   4   6
HETATM    6  C   UNL     1     -11.519  12.886  68.015  1.00  0.00    -0.361 C  
BRANCH   6   7
HETATM    7  C   UNL     1     -10.746  11.884  67.185  1.00  0.00    -0.280 A  
HETATM    8  C   UNL     1     -11.010  11.832  65.804  1.00  0.00    -0.353 A  
HETATM    9  C   UNL     1     -10.356  10.921  64.987  1.00  0.00    -0.356 A  
HETATM   10  C   UNL     1      -9.479  10.004  65.553  1.00  0.00    -0.296 A  
HETATM   11  C   UNL     1      -9.251   9.989  66.940  1.00  0.00    -0.169 A  
HETATM   12  C   UNL     1      -9.783  11.019  67.752  1.00  0.00    -0.170 A  
HETATM   13  H2  UNL     1     -10.424  10.925  69.632  1.00  0.00     0.000 HD 
HETATM   14  N   UNL     1      -9.539  11.060  69.143  1.00  0.00    -0.397 NA 
HETATM   15  H1  UNL     1      -8.843  10.435  69.551  1.00  0.00     0.000 HD 
BRANCH  11  16
HETATM   16  C   UNL     1      -8.414   8.887  67.515  1.00  0.00    -0.116 C  
HETATM   17  O   UNL     1      -7.273   9.111  67.902  1.00  0.00    -0.078 OA 
BRANCH  16  18
HETATM   18  C   UNL     1      -8.960   7.488  67.578  1.00  0.00    -0.127 A  
HETATM   19  C   UNL     1     -10.334   7.234  67.718  1.00  0.00    -0.267 A  
HETATM   20  C   UNL     1     -10.827   5.933  67.593  1.00  0.00    -0.331 A  
HETATM   21  C   UNL     1      -9.947   4.874  67.375  1.00  0.00    -0.209 A  
HETATM   22  C   UNL     1      -8.573   5.112  67.315  1.00  0.00    -0.104 A  
HETATM   23  C   UNL     1      -8.078   6.415  67.424  1.00  0.00    -0.116 A  
ENDBRANCH  16  18
ENDBRANCH  11  16
ENDBRANCH   6   7
ENDBRANCH   4   6
TORSDOF 4
ENDMDL
MODEL      163
REMARK 921   NORMALIZED FREE ENERGY PREDICTED BY IDOCK:   -4.10 KCAL/MOL
REMARK 922        TOTAL FREE ENERGY PREDICTED BY IDOCK:   -5.77 KCAL/MOL
REMARK 923 INTER-LIGAND FREE ENERGY PREDICTED BY IDOCK:   -4.89 KCAL/MOL
REMARK 924 INTRA-LIGAND FREE ENERGY PREDICTED BY IDOCK:   -0.88 KCAL/MOL
REMARK 927      BINDING AFFINITY PREDICTED BY RF-SCORE:    0.00 PKD
ROOT
HETATM    1  N   UNL     1     -12.614   6.985  70.695  1.00  0.00    -0.593 N  
HETATM    2  H2  UNL     1     -13.210   6.271  70.275  1.00  0.00     0.000 HD 
HETATM    3  H1  UNL     1     -11.606   6.955  70.538  1.00  0.00     0.000 HD 
HETATM    4  C   UNL     1     -13.177   7.966  71.460  1.00  0.00    -0.306 C  
HETATM    5  O   UNL     1     -14.386   8.002  71.649  1.00  0.00    -0.424 OA 
ENDROOT
BRANCH   4   6
HETATM    6  C   UNL     1     -12.215   8.976  72.038  1.00  0.00    -0.446 C  
BRANCH   6   7
HETATM    7  C   UNL     1     -11.552   9.822  70.973  1.00  0.00    -0.455 A  
HETATM    8  C   UNL     1     -12.328  10.815  70.346  1.00  0.00    -0.438 A  
HETATM    9  C   UNL     1     -11.792  11.611  69.344  1.00  0.00    -0.408 A  
HETATM   10  C   UNL     1     -10.493  11.379  68.908  1.00  0.00    -0.219 A  
HETATM   11  C   UNL     1      -9.722  10.347  69.471  1.00  0.00    -0.196 A  
HETATM   12  C   UNL     1     -10.200   9.646  70.602  1.00  0.00    -0.278 A  
HETATM   13  H2  UNL     1      -9.919   7.743  71.106  1.00  0.00     0.000 HD 
HETATM   14  N   UNL     1      -9.433   8.633  71.219  1.00  0.00    -0.200 NA 
HETATM   15  H1  UNL     1      -8.456   8.506  70.951  1.00  0.00     0.000 HD 
BRANCH  11  16
HETATM   16  C   UNL     1      -8.385  10.043  68.864  1.00  0.00    -0.130 C  
HETATM   17  O   UNL     1      -7.354  10.264  69.490  1.00  0.00    -0.100 OA 
BRANCH  16  18
HETATM   18  C   UNL     1      -8.304   9.505  67.463  1.00  0.00    -0.125 A  
HETATM   19  C   UNL     1      -7.113   9.550  66.719  1.00  0.00    -0.086 A  
HETATM   20  C   UNL     1      -7.022   8.884  65.495  1.00  0.00    -0.080 A  
HETATM   21  C   UNL     1      -8.130   8.210  64.985  1.00  0.00    -0.155 A  
HETATM   22  C   UNL     1      -9.338   8.230  65.683  1.00  0.00    -0.018 A  
HETATM   23  C   UNL     1      -9.429   8.882  66.916  1.00  0.00    -0.230 A  
ENDBRANCH  16  18
ENDBRANCH  11  16
ENDBRANCH   6   7
ENDBRANCH   4   6
TORSDOF 4
ENDMDL
MODEL      164
REMARK 921   NORMALIZED FREE ENERGY PREDICTED BY IDOCK:   -4.09 KCAL/MOL
REMARK 922        TOTAL FREE ENERGY PREDICTED BY IDOCK:   -5.76 KCAL/MOL
REMARK 923 INTER-LIGAND FREE ENERGY PREDICTED BY IDOCK:   -4.86 KCAL/MOL
REMARK 924 INTRA-LIGAND FREE ENERGY PREDICTED BY IDOCK:   -0.90 KCAL/MOL
REMARK 927      BINDING AFFINITY PREDICTED BY RF-SCORE:    0.00 PKD
ROOT
HETATM    1  N   UNL     1      -7.724  11.166  62.505  1.00  0.00    -0.422 N  
HETATM    2  H2  UNL     1      -7.805  11.424  61.522  1.00  0.00     0.000 HD 
HETATM    3  H1  UNL     1      -6.973  11.565  63.069  1.00  0.00     0.000 HD 
HETATM    4  C   UNL     1      -8.622  10.292  63.048  1.00  0.00    -0.190 C  
HETATM    5  O   UNL     1      -9.523   9.814  62.372  1.00  0.00    -0.259 OA 
ENDROOT
BRANCH   4   6
HETATM    6  C   UNL     1      -8.419   9.973  64.510  1.00  0.00    -0.180 C  
BRANCH   6   7
HETATM    7  C   UNL     1      -9.185  10.908  65.420  1.00  0.00    -0.231 A  
HETATM    8  C   UNL     1     -10.590  10.909  65.328  1.00  0.00    -0.259 A  
HETATM    9  C   UNL     1     -11.355  11.759  66.114  1.00  0.00    -0.342 A  
HETATM   10  C   UNL     1     -10.722  12.665  66.956  1.00  0.00    -0.268 A  
HETATM   11  C   UNL     1      -9.319  12.731  67.014  1.00  0.00    -0.229 A  
HETATM   12  C   UNL     1      -8.539  11.759  66.345  1.00  0.00    -0.113 A  
HETATM   13  H2  UNL     1      -6.757  11.959  65.486  1.00  0.00     0.000 HD 
HETATM   14  N   UNL     1      -7.128  11.769  66.417  1.00  0.00    -0.372 NA 
HETATM   15  H1  UNL     1      -6.662  12.384  67.085  1.00  0.00     0.000 HD 
BRANCH  11  16
HETATM   16  C   UNL     1      -8.688  13.824  67.823  1.00  0.00    -0.182 C  
HETATM   17  O   UNL     1      -7.893  13.557  68.717  1.00  0.00    -0.118 OA 
BRANCH  16  18
HETATM   18  C   UNL     1      -9.065  15.256  67.567  1.00  0.00    -0.189 A  
HETATM   19  C   UNL     1      -8.620  15.948  66.428  1.00  0.00    -0.364 A  
HETATM   20  C   UNL     1      -9.130  17.213  66.127  1.00  0.00    -0.214 A  
HETATM   21  C   UNL     1     -10.050  17.814  66.985  1.00  0.00    -0.337 A  
HETATM   22  C   UNL     1     -10.434  17.164  68.159  1.00  0.00    -0.366 A  
HETATM   23  C   UNL     1      -9.938  15.891  68.454  1.00  0.00    -0.222 A  
ENDBRANCH  16  18
ENDBRANCH  11  16
ENDBRANCH   6   7
ENDBRANCH   4   6
TORSDOF 4
ENDMDL
MODEL      165
REMARK 921   NORMALIZED FREE ENERGY PREDICTED BY IDOCK:   -4.08 KCAL/MOL
REMARK 922        TOTAL FREE ENERGY PREDICTED BY IDOCK:   -5.75 KCAL/MOL
REMARK 923 INTER-LIGAND FREE ENERGY PREDICTED BY IDOCK:   -5.16 KCAL/MOL
REMARK 924 INTRA-LIGAND FREE ENERGY PREDICTED BY IDOCK:   -0.59 KCAL/MOL
REMARK 927      BINDING AFFINITY PREDICTED BY RF-SCORE:    0.00 PKD
ROOT
HETATM    1  N   UNL     1     -10.273   4.035  67.396  1.00  0.00    -0.027 N  
HETATM    2  H2  UNL     1     -11.047   3.388  67.552  1.00  0.00     0.000 HD 
HETATM    3  H1  UNL     1      -9.584   4.181  68.134  1.00  0.00     0.000 HD 
HETATM    4  C   UNL     1     -10.177   4.694  66.204  1.00  0.00    -0.277 C  
HETATM    5  O   UNL     1     -11.005   4.520  65.319  1.00  0.00    -0.252 OA 
ENDROOT
BRANCH   4   6
HETATM    6  C   UNL     1      -8.999   5.630  66.069  1.00  0.00    -0.158 C  
BRANCH   6   7
HETATM    7  C   UNL     1      -9.364   7.069  66.361  1.00  0.00    -0.182 A  
HETATM    8  C   UNL     1     -10.203   7.322  67.462  1.00  0.00    -0.284 A  
HETATM    9  C   UNL     1     -10.598   8.616  67.774  1.00  0.00    -0.249 A  
HETATM   10  C   UNL     1     -10.214   9.665  66.948  1.00  0.00    -0.304 A  
HETATM   11  C   UNL     1      -9.434   9.428  65.803  1.00  0.00    -0.325 A  
HETATM   12  C   UNL     1      -8.890   8.143  65.574  1.00  0.00    -0.089 A  
HETATM   13  H2  UNL     1      -8.548   7.218  63.847  1.00  0.00     0.000 HD 
HETATM   14  N   UNL     1      -8.067   7.879  64.456  1.00  0.00    -0.216 NA 
HETATM   15  H1  UNL     1      -7.725   8.655  63.888  1.00  0.00     0.000 HD 
BRANCH  11  16
HETATM   16  C   UNL     1      -9.173  10.570  64.868  1.00  0.00    -0.215 C  
HETATM   17  O   UNL     1      -8.101  10.660  64.281  1.00  0.00    -0.083 OA 
BRANCH  16  18
HETATM   18  C   UNL     1     -10.215  11.636  64.681  1.00  0.00    -0.327 A  
HETATM   19  C   UNL     1     -10.224  12.809  65.455  1.00  0.00    -0.299 A  
HETATM   20  C   UNL     1     -11.092  13.856  65.137  1.00  0.00    -0.334 A  
HETATM   21  C   UNL     1     -11.987  13.722  64.077  1.00  0.00    -0.451 A  
HETATM   22  C   UNL     1     -12.037  12.528  63.356  1.00  0.00    -0.621 A  
HETATM   23  C   UNL     1     -11.159  11.484  63.661  1.00  0.00    -0.469 A  
ENDBRANCH  16  18
ENDBRANCH  11  16
ENDBRANCH   6   7
ENDBRANCH   4   6
TORSDOF 4
ENDMDL
MODEL      166
REMARK 921   NORMALIZED FREE ENERGY PREDICTED BY IDOCK:   -4.08 KCAL/MOL
REMARK 922        TOTAL FREE ENERGY PREDICTED BY IDOCK:   -5.74 KCAL/MOL
REMARK 923 INTER-LIGAND FREE ENERGY PREDICTED BY IDOCK:   -5.11 KCAL/MOL
REMARK 924 INTRA-LIGAND FREE ENERGY PREDICTED BY IDOCK:   -0.64 KCAL/MOL
REMARK 927      BINDING AFFINITY PREDICTED BY RF-SCORE:    0.00 PKD
ROOT
HETATM    1  N   UNL     1     -11.199  15.338  67.233  1.00  0.00    -0.330 N  
HETATM    2  H2  UNL     1     -10.582  16.149  67.271  1.00  0.00     0.000 HD 
HETATM    3  H1  UNL     1     -11.992  15.279  67.872  1.00  0.00     0.000 HD 
HETATM    4  C   UNL     1     -10.950  14.346  66.329  1.00  0.00    -0.318 C  
HETATM    5  O   UNL     1      -9.998  14.416  65.562  1.00  0.00    -0.339 OA 
ENDROOT
BRANCH   4   6
HETATM    6  C   UNL     1     -11.918  13.186  66.349  1.00  0.00    -0.462 C  
BRANCH   6   7
HETATM    7  C   UNL     1     -11.622  12.202  67.460  1.00  0.00    -0.413 A  
HETATM    8  C   UNL     1     -12.121  12.493  68.744  1.00  0.00    -0.154 A  
HETATM    9  C   UNL     1     -11.867  11.647  69.814  1.00  0.00    -0.428 A  
HETATM   10  C   UNL     1     -11.055  10.536  69.630  1.00  0.00    -0.338 A  
HETATM   11  C   UNL     1     -10.488  10.263  68.373  1.00  0.00    -0.228 A  
HETATM   12  C   UNL     1     -10.876  11.022  67.244  1.00  0.00    -0.281 A  
HETATM   13  H2  UNL     1      -9.799  11.545  65.656  1.00  0.00     0.000 HD 
HETATM   14  N   UNL     1     -10.359  10.747  65.958  1.00  0.00    -0.251 NA 
HETATM   15  H1  UNL     1      -9.821   9.895  65.802  1.00  0.00     0.000 HD 
BRANCH  11  16
HETATM   16  C   UNL     1      -9.501   9.139  68.263  1.00  0.00    -0.142 C  
HETATM   17  O   UNL     1      -8.513   9.248  67.546  1.00  0.00    -0.115 OA 
BRANCH  16  18
HETATM   18  C   UNL     1      -9.747   7.853  69.001  1.00  0.00    -0.162 A  
HETATM   19  C   UNL     1     -11.000   7.217  68.986  1.00  0.00    -0.122 A  
HETATM   20  C   UNL     1     -11.147   5.939  69.528  1.00  0.00    -0.403 A  
HETATM   21  C   UNL     1     -10.060   5.308  70.130  1.00  0.00    -0.333 A  
HETATM   22  C   UNL     1      -8.834   5.970  70.219  1.00  0.00    -0.144 A  
HETATM   23  C   UNL     1      -8.678   7.243  69.662  1.00  0.00    -0.141 A  
ENDBRANCH  16  18
ENDBRANCH  11  16
ENDBRANCH   6   7
ENDBRANCH   4   6
TORSDOF 4
ENDMDL
MODEL      167
REMARK 921   NORMALIZED FREE ENERGY PREDICTED BY IDOCK:   -4.06 KCAL/MOL
REMARK 922        TOTAL FREE ENERGY PREDICTED BY IDOCK:   -5.72 KCAL/MOL
REMARK 923 INTER-LIGAND FREE ENERGY PREDICTED BY IDOCK:   -5.34 KCAL/MOL
REMARK 924 INTRA-LIGAND FREE ENERGY PREDICTED BY IDOCK:   -0.38 KCAL/MOL
REMARK 927      BINDING AFFINITY PREDICTED BY RF-SCORE:    0.00 PKD
ROOT
HETATM    1  N   UNL     1     -11.272  13.315  65.445  1.00  0.00    -0.286 N  
HETATM    2  H2  UNL     1     -10.813  14.133  65.043  1.00  0.00     0.000 HD 
HETATM    3  H1  UNL     1     -11.934  12.783  64.880  1.00  0.00     0.000 HD 
HETATM    4  C   UNL     1     -10.993  12.951  66.730  1.00  0.00    -0.272 C  
HETATM    5  O   UNL     1     -10.199  13.589  67.409  1.00  0.00    -0.234 OA 
ENDROOT
BRANCH   4   6
HETATM    6  C   UNL     1     -11.723  11.728  67.235  1.00  0.00    -0.293 C  
BRANCH   6   7
HETATM    7  C   UNL     1     -10.946  10.989  68.304  1.00  0.00    -0.287 A  
HETATM    8  C   UNL     1      -9.587  10.718  68.059  1.00  0.00    -0.172 A  
HETATM    9  C   UNL     1      -8.821  10.024  68.984  1.00  0.00    -0.159 A  
HETATM   10  C   UNL     1      -9.422   9.532  70.137  1.00  0.00    -0.287 A  
HETATM   11  C   UNL     1     -10.794   9.730  70.371  1.00  0.00    -0.370 A  
HETATM   12  C   UNL     1     -11.540  10.577  69.518  1.00  0.00    -0.260 A  
HETATM   13  H2  UNL     1     -13.448  10.440  68.975  1.00  0.00     0.000 HD 
HETATM   14  N   UNL     1     -12.910  10.832  69.748  1.00  0.00    -0.451 NA 
HETATM   15  H1  UNL     1     -13.338  10.534  70.625  1.00  0.00     0.000 HD 
BRANCH  11  16
HETATM   16  C   UNL     1     -11.421   9.053  71.552  1.00  0.00    -0.337 C  
HETATM   17  O   UNL     1     -12.128   9.686  72.328  1.00  0.00    -0.194 OA 
BRANCH  16  18
HETATM   18  C   UNL     1     -11.148   7.598  71.813  1.00  0.00    -0.281 A  
HETATM   19  C   UNL     1     -10.864   6.698  70.772  1.00  0.00    -0.299 A  
HETATM   20  C   UNL     1     -10.439   5.400  71.060  1.00  0.00    -0.302 A  
HETATM   21  C   UNL     1     -10.340   4.977  72.384  1.00  0.00    -0.261 A  
HETATM   22  C   UNL     1     -10.698   5.842  73.419  1.00  0.00    -0.293 A  
HETATM   23  C   UNL     1     -11.109   7.148  73.135  1.00  0.00    -0.302 A  
ENDBRANCH  16  18
ENDBRANCH  11  16
ENDBRANCH   6   7
ENDBRANCH   4   6
TORSDOF 4
ENDMDL
MODEL      168
REMARK 921   NORMALIZED FREE ENERGY PREDICTED BY IDOCK:   -4.05 KCAL/MOL
REMARK 922        TOTAL FREE ENERGY PREDICTED BY IDOCK:   -5.70 KCAL/MOL
REMARK 923 INTER-LIGAND FREE ENERGY PREDICTED BY IDOCK:   -5.28 KCAL/MOL
REMARK 924 INTRA-LIGAND FREE ENERGY PREDICTED BY IDOCK:   -0.42 KCAL/MOL
REMARK 927      BINDING AFFINITY PREDICTED BY RF-SCORE:    0.00 PKD
ROOT
HETATM    1  N   UNL     1      -9.597   7.048  72.189  1.00  0.00    -0.147 N  
HETATM    2  H2  UNL     1      -9.086   6.372  72.758  1.00  0.00     0.000 HD 
HETATM    3  H1  UNL     1     -10.381   6.732  71.618  1.00  0.00     0.000 HD 
HETATM    4  C   UNL     1      -9.220   8.360  72.203  1.00  0.00    -0.243 C  
HETATM    5  O   UNL     1      -8.279   8.738  72.888  1.00  0.00    -0.410 OA 
ENDROOT
BRANCH   4   6
HETATM    6  C   UNL     1     -10.036   9.283  71.328  1.00  0.00    -0.361 C  
BRANCH   6   7
HETATM    7  C   UNL     1      -9.340   9.616  70.027  1.00  0.00    -0.276 A  
HETATM    8  C   UNL     1      -7.974   9.953  70.081  1.00  0.00    -0.181 A  
HETATM    9  C   UNL     1      -7.279  10.293  68.929  1.00  0.00    -0.086 A  
HETATM   10  C   UNL     1      -7.956  10.365  67.718  1.00  0.00    -0.102 A  
HETATM   11  C   UNL     1      -9.335  10.101  67.651  1.00  0.00    -0.162 A  
HETATM   12  C   UNL     1     -10.012   9.593  68.784  1.00  0.00    -0.173 A  
HETATM   13  H2  UNL     1     -11.887   9.906  69.367  1.00  0.00     0.000 HD 
HETATM   14  N   UNL     1     -11.388   9.276  68.739  1.00  0.00    -0.352 NA 
HETATM   15  H1  UNL     1     -11.873   9.259  67.842  1.00  0.00     0.000 HD 
BRANCH  11  16
HETATM   16  C   UNL     1     -10.045  10.338  66.352  1.00  0.00    -0.234 C  
HETATM   17  O   UNL     1      -9.963   9.522  65.441  1.00  0.00    -0.284 OA 
BRANCH  16  18
HETATM   18  C   UNL     1     -10.826  11.605  66.147  1.00  0.00    -0.343 A  
HETATM   19  C   UNL     1     -11.657  11.792  65.030  1.00  0.00    -0.214 A  
HETATM   20  C   UNL     1     -12.505  12.900  64.960  1.00  0.00    -0.553 A  
HETATM   21  C   UNL     1     -12.494  13.851  65.979  1.00  0.00    -0.501 A  
HETATM   22  C   UNL     1     -11.612  13.711  67.051  1.00  0.00    -0.389 A  
HETATM   23  C   UNL     1     -10.774  12.595  67.133  1.00  0.00    -0.264 A  
ENDBRANCH  16  18
ENDBRANCH  11  16
ENDBRANCH   6   7
ENDBRANCH   4   6
TORSDOF 4
ENDMDL
MODEL      169
REMARK 921   NORMALIZED FREE ENERGY PREDICTED BY IDOCK:   -4.04 KCAL/MOL
REMARK 922        TOTAL FREE ENERGY PREDICTED BY IDOCK:   -5.69 KCAL/MOL
REMARK 923 INTER-LIGAND FREE ENERGY PREDICTED BY IDOCK:   -4.80 KCAL/MOL
REMARK 924 INTRA-LIGAND FREE ENERGY PREDICTED BY IDOCK:   -0.89 KCAL/MOL
REMARK 927      BINDING AFFINITY PREDICTED BY RF-SCORE:    0.00 PKD
ROOT
HETATM    1  N   UNL     1     -14.252   8.993  72.772  1.00  0.00    -0.770 N  
HETATM    2  H2  UNL     1     -14.729   9.871  72.978  1.00  0.00     0.000 HD 
HETATM    3  H1  UNL     1     -14.402   8.186  73.378  1.00  0.00     0.000 HD 
HETATM    4  C   UNL     1     -13.422   8.916  71.691  1.00  0.00    -0.378 C  
HETATM    5  O   UNL     1     -13.242   9.884  70.964  1.00  0.00    -0.373 OA 
ENDROOT
BRANCH   4   6
HETATM    6  C   UNL     1     -12.762   7.575  71.469  1.00  0.00    -0.391 C  
BRANCH   6   7
HETATM    7  C   UNL     1     -11.256   7.641  71.598  1.00  0.00    -0.282 A  
HETATM    8  C   UNL     1     -10.710   7.718  72.893  1.00  0.00    -0.446 A  
HETATM    9  C   UNL     1      -9.339   7.806  73.084  1.00  0.00    -0.315 A  
HETATM   10  C   UNL     1      -8.499   7.886  71.980  1.00  0.00    -0.169 A  
HETATM   11  C   UNL     1      -9.025   7.882  70.677  1.00  0.00    -0.148 A  
HETATM   12  C   UNL     1     -10.401   7.624  70.473  1.00  0.00    -0.211 A  
HETATM   13  H2  UNL     1     -11.615   8.342  69.070  1.00  0.00     0.000 HD 
HETATM   14  N   UNL     1     -10.956   7.570  69.175  1.00  0.00    -0.423 NA 
HETATM   15  H1  UNL     1     -10.339   7.558  68.362  1.00  0.00     0.000 HD 
BRANCH  11  16
HETATM   16  C   UNL     1      -8.092   8.121  69.528  1.00  0.00    -0.119 C  
HETATM   17  O   UNL     1      -7.662   7.180  68.871  1.00  0.00    -0.108 OA 
BRANCH  16  18
HETATM   18  C   UNL     1      -7.643   9.519  69.208  1.00  0.00    -0.084 A  
HETATM   19  C   UNL     1      -8.269  10.289  68.213  1.00  0.00    -0.115 A  
HETATM   20  C   UNL     1      -7.950  11.640  68.063  1.00  0.00    -0.132 A  
HETATM   21  C   UNL     1      -6.972  12.218  68.871  1.00  0.00    -0.098 A  
HETATM   22  C   UNL     1      -6.290  11.437  69.805  1.00  0.00    -0.139 A  
HETATM   23  C   UNL     1      -6.619  10.088  69.969  1.00  0.00    -0.102 A  
ENDBRANCH  16  18
ENDBRANCH  11  16
ENDBRANCH   6   7
ENDBRANCH   4   6
TORSDOF 4
ENDMDL
MODEL      170
REMARK 921   NORMALIZED FREE ENERGY PREDICTED BY IDOCK:   -4.00 KCAL/MOL
REMARK 922        TOTAL FREE ENERGY PREDICTED BY IDOCK:   -5.64 KCAL/MOL
REMARK 923 INTER-LIGAND FREE ENERGY PREDICTED BY IDOCK:   -4.64 KCAL/MOL
REMARK 924 INTRA-LIGAND FREE ENERGY PREDICTED BY IDOCK:   -1.00 KCAL/MOL
REMARK 927      BINDING AFFINITY PREDICTED BY RF-SCORE:    0.00 PKD
ROOT
HETATM    1  N   UNL     1      -8.199   3.487  63.912  1.00  0.00    -0.089 N  
HETATM    2  H2  UNL     1      -8.110   3.640  62.908  1.00  0.00     0.000 HD 
HETATM    3  H1  UNL     1      -7.370   3.250  64.460  1.00  0.00     0.000 HD 
HETATM    4  C   UNL     1      -9.423   3.601  64.505  1.00  0.00    -0.157 C  
HETATM    5  O   UNL     1     -10.417   3.885  63.849  1.00  0.00    -0.230 OA 
ENDROOT
BRANCH   4   6
HETATM    6  C   UNL     1      -9.453   3.356  65.996  1.00  0.00    -0.121 C  
BRANCH   6   7
HETATM    7  C   UNL     1      -9.006   4.563  66.791  1.00  0.00    -0.115 A  
HETATM    8  C   UNL     1      -7.729   4.525  67.381  1.00  0.00    -0.089 A  
HETATM    9  C   UNL     1      -7.265   5.587  68.144  1.00  0.00    -0.072 A  
HETATM   10  C   UNL     1      -8.098   6.672  68.382  1.00  0.00    -0.115 A  
HETATM   11  C   UNL     1      -9.403   6.703  67.861  1.00  0.00    -0.109 A  
HETATM   12  C   UNL     1      -9.821   5.707  66.948  1.00  0.00    -0.159 A  
HETATM   13  H2  UNL     1     -11.628   4.915  66.701  1.00  0.00     0.000 HD 
HETATM   14  N   UNL     1     -11.111   5.730  66.372  1.00  0.00    -0.767 NA 
HETATM   15  H1  UNL     1     -11.699   6.556  66.486  1.00  0.00     0.000 HD 
BRANCH  11  16
HETATM   16  C   UNL     1     -10.310   7.825  68.270  1.00  0.00    -0.198 C  
HETATM   17  O   UNL     1     -10.560   8.737  67.491  1.00  0.00    -0.267 OA 
BRANCH  16  18
HETATM   18  C   UNL     1     -10.881   7.855  69.660  1.00  0.00    -0.177 A  
HETATM   19  C   UNL     1     -11.414   6.706  70.268  1.00  0.00    -0.449 A  
HETATM   20  C   UNL     1     -11.770   6.725  71.619  1.00  0.00    -0.357 A  
HETATM   21  C   UNL     1     -11.643   7.901  72.356  1.00  0.00    -0.436 A  
HETATM   22  C   UNL     1     -11.191   9.066  71.735  1.00  0.00    -0.448 A  
HETATM   23  C   UNL     1     -10.817   9.046  70.388  1.00  0.00    -0.284 A  
ENDBRANCH  16  18
ENDBRANCH  11  16
ENDBRANCH   6   7
ENDBRANCH   4   6
TORSDOF 4
ENDMDL
MODEL      171
REMARK 921   NORMALIZED FREE ENERGY PREDICTED BY IDOCK:   -4.00 KCAL/MOL
REMARK 922        TOTAL FREE ENERGY PREDICTED BY IDOCK:   -5.64 KCAL/MOL
REMARK 923 INTER-LIGAND FREE ENERGY PREDICTED BY IDOCK:   -4.80 KCAL/MOL
REMARK 924 INTRA-LIGAND FREE ENERGY PREDICTED BY IDOCK:   -0.84 KCAL/MOL
REMARK 927      BINDING AFFINITY PREDICTED BY RF-SCORE:    0.00 PKD
ROOT
HETATM    1  N   UNL     1      -5.436  11.290  69.381  1.00  0.00    -0.044 N  
HETATM    2  H2  UNL     1      -5.294  10.644  70.158  1.00  0.00     0.000 HD 
HETATM    3  H1  UNL     1      -5.228  10.986  68.430  1.00  0.00     0.000 HD 
HETATM    4  C   UNL     1      -5.902  12.549  69.630  1.00  0.00    -0.115 C  
HETATM    5  O   UNL     1      -6.153  12.914  70.771  1.00  0.00    -0.186 OA 
ENDROOT
BRANCH   4   6
HETATM    6  C   UNL     1      -6.080  13.432  68.417  1.00  0.00    -0.092 C  
BRANCH   6   7
HETATM    7  C   UNL     1      -7.528  13.794  68.169  1.00  0.00    -0.124 A  
HETATM    8  C   UNL     1      -8.273  12.969  67.306  1.00  0.00    -0.174 A  
HETATM    9  C   UNL     1      -9.599  13.255  67.015  1.00  0.00    -0.243 A  
HETATM   10  C   UNL     1     -10.178  14.407  67.531  1.00  0.00    -0.240 A  
HETATM   11  C   UNL     1      -9.434  15.284  68.340  1.00  0.00    -0.206 A  
HETATM   12  C   UNL     1      -8.140  14.914  68.776  1.00  0.00    -0.162 A  
HETATM   13  H2  UNL     1      -6.556  16.067  69.114  1.00  0.00     0.000 HD 
HETATM   14  N   UNL     1      -7.381  15.751  69.624  1.00  0.00    -0.172 NA 
HETATM   15  H1  UNL     1      -7.823  16.560  70.061  1.00  0.00     0.000 HD 
BRANCH  11  16
HETATM   16  C   UNL     1     -10.059  16.584  68.747  1.00  0.00    -0.255 C  
HETATM   17  O   UNL     1     -10.809  16.637  69.715  1.00  0.00    -0.333 OA 
BRANCH  16  18
HETATM   18  C   UNL     1      -9.800  17.824  67.938  1.00  0.00    -0.306 A  
HETATM   19  C   UNL     1     -10.463  18.069  66.724  1.00  0.00    -0.335 A  
HETATM   20  C   UNL     1     -10.337  19.307  66.089  1.00  0.00    -0.578 A  
HETATM   21  C   UNL     1      -9.512  20.288  66.636  1.00  0.00    -0.487 A  
HETATM   22  C   UNL     1      -8.788  20.020  67.799  1.00  0.00    -0.379 A  
HETATM   23  C   UNL     1      -8.925  18.788  68.445  1.00  0.00    -0.367 A  
ENDBRANCH  16  18
ENDBRANCH  11  16
ENDBRANCH   6   7
ENDBRANCH   4   6
TORSDOF 4
ENDMDL
MODEL      172
REMARK 921   NORMALIZED FREE ENERGY PREDICTED BY IDOCK:   -3.98 KCAL/MOL
REMARK 922        TOTAL FREE ENERGY PREDICTED BY IDOCK:   -5.62 KCAL/MOL
REMARK 923 INTER-LIGAND FREE ENERGY PREDICTED BY IDOCK:   -4.58 KCAL/MOL
REMARK 924 INTRA-LIGAND FREE ENERGY PREDICTED BY IDOCK:   -1.04 KCAL/MOL
REMARK 927      BINDING AFFINITY PREDICTED BY RF-SCORE:    0.00 PKD
ROOT
HETATM    1  N   UNL     1      -7.783  19.372  68.983  1.00  0.00    -0.354 N  
HETATM    2  H2  UNL     1      -7.913  19.910  69.839  1.00  0.00     0.000 HD 
HETATM    3  H1  UNL     1      -8.580  19.206  68.367  1.00  0.00     0.000 HD 
HETATM    4  C   UNL     1      -6.545  18.883  68.677  1.00  0.00    -0.264 C  
HETATM    5  O   UNL     1      -5.589  19.081  69.416  1.00  0.00    -0.198 OA 
ENDROOT
BRANCH   4   6
HETATM    6  C   UNL     1      -6.453  18.099  67.389  1.00  0.00    -0.188 C  
BRANCH   6   7
HETATM    7  C   UNL     1      -6.872  16.654  67.558  1.00  0.00    -0.177 A  
HETATM    8  C   UNL     1      -5.863  15.698  67.774  1.00  0.00    -0.163 A  
HETATM    9  C   UNL     1      -6.173  14.353  67.913  1.00  0.00    -0.167 A  
HETATM   10  C   UNL     1      -7.491  13.938  67.770  1.00  0.00    -0.174 A  
HETATM   11  C   UNL     1      -8.509  14.865  67.484  1.00  0.00    -0.198 A  
HETATM   12  C   UNL     1      -8.226  16.251  67.508  1.00  0.00    -0.148 A  
HETATM   13  H2  UNL     1      -9.010  17.708  66.405  1.00  0.00     0.000 HD 
HETATM   14  N   UNL     1      -9.233  17.213  67.269  1.00  0.00    -0.227 NA 
HETATM   15  H1  UNL     1     -10.210  16.921  67.233  1.00  0.00     0.000 HD 
BRANCH  11  16
HETATM   16  C   UNL     1      -9.885  14.349  67.192  1.00  0.00    -0.254 C  
HETATM   17  O   UNL     1     -10.447  14.637  66.142  1.00  0.00    -0.285 OA 
BRANCH  16  18
HETATM   18  C   UNL     1     -10.600  13.508  68.212  1.00  0.00    -0.259 A  
HETATM   19  C   UNL     1     -11.105  14.056  69.403  1.00  0.00    -0.246 A  
HETATM   20  C   UNL     1     -11.918  13.290  70.242  1.00  0.00    -0.372 A  
HETATM   21  C   UNL     1     -12.192  11.961  69.922  1.00  0.00    -0.269 A  
HETATM   22  C   UNL     1     -11.626  11.389  68.782  1.00  0.00    -0.378 A  
HETATM   23  C   UNL     1     -10.826  12.158  67.931  1.00  0.00    -0.254 A  
ENDBRANCH  16  18
ENDBRANCH  11  16
ENDBRANCH   6   7
ENDBRANCH   4   6
TORSDOF 4
ENDMDL
MODEL      173
REMARK 921   NORMALIZED FREE ENERGY PREDICTED BY IDOCK:   -3.97 KCAL/MOL
REMARK 922        TOTAL FREE ENERGY PREDICTED BY IDOCK:   -5.61 KCAL/MOL
REMARK 923 INTER-LIGAND FREE ENERGY PREDICTED BY IDOCK:   -4.94 KCAL/MOL
REMARK 924 INTRA-LIGAND FREE ENERGY PREDICTED BY IDOCK:   -0.66 KCAL/MOL
REMARK 927      BINDING AFFINITY PREDICTED BY RF-SCORE:    0.00 PKD
ROOT
HETATM    1  N   UNL     1      -7.928   8.277  64.672  1.00  0.00    -0.138 N  
HETATM    2  H2  UNL     1      -7.980   8.186  63.657  1.00  0.00     0.000 HD 
HETATM    3  H1  UNL     1      -8.164   9.168  65.109  1.00  0.00     0.000 HD 
HETATM    4  C   UNL     1      -7.542   7.205  65.425  1.00  0.00    -0.100 C  
HETATM    5  O   UNL     1      -7.258   6.136  64.900  1.00  0.00    -0.058 OA 
ENDROOT
BRANCH   4   6
HETATM    6  C   UNL     1      -7.495   7.438  66.917  1.00  0.00    -0.097 C  
BRANCH   6   7
HETATM    7  C   UNL     1      -8.767   7.005  67.612  1.00  0.00    -0.121 A  
HETATM    8  C   UNL     1      -9.819   6.520  66.812  1.00  0.00    -0.213 A  
HETATM    9  C   UNL     1     -11.023   6.129  67.381  1.00  0.00    -0.409 A  
HETATM   10  C   UNL     1     -11.215   6.282  68.748  1.00  0.00    -0.357 A  
HETATM   11  C   UNL     1     -10.204   6.829  69.558  1.00  0.00    -0.202 A  
HETATM   12  C   UNL     1      -8.921   7.071  69.015  1.00  0.00    -0.133 A  
HETATM   13  H2  UNL     1      -7.623   8.509  69.466  1.00  0.00     0.000 HD 
HETATM   14  N   UNL     1      -7.869   7.580  69.809  1.00  0.00    -0.106 NA 
HETATM   15  H1  UNL     1      -7.980   7.628  70.822  1.00  0.00     0.000 HD 
BRANCH  11  16
HETATM   16  C   UNL     1     -10.515   7.110  70.997  1.00  0.00    -0.215 C  
HETATM   17  O   UNL     1     -10.129   6.348  71.876  1.00  0.00    -0.183 OA 
BRANCH  16  18
HETATM   18  C   UNL     1     -11.344   8.308  71.363  1.00  0.00    -0.309 A  
HETATM   19  C   UNL     1     -11.079   9.583  70.835  1.00  0.00    -0.406 A  
HETATM   20  C   UNL     1     -11.971  10.635  71.052  1.00  0.00    -0.442 A  
HETATM   21  C   UNL     1     -13.107  10.434  71.834  1.00  0.00    -0.563 A  
HETATM   22  C   UNL     1     -13.333   9.191  72.426  1.00  0.00    -0.527 A  
HETATM   23  C   UNL     1     -12.451   8.131  72.198  1.00  0.00    -0.364 A  
ENDBRANCH  16  18
ENDBRANCH  11  16
ENDBRANCH   6   7
ENDBRANCH   4   6
TORSDOF 4
ENDMDL
MODEL      174
REMARK 921   NORMALIZED FREE ENERGY PREDICTED BY IDOCK:   -3.96 KCAL/MOL
REMARK 922        TOTAL FREE ENERGY PREDICTED BY IDOCK:   -5.60 KCAL/MOL
REMARK 923 INTER-LIGAND FREE ENERGY PREDICTED BY IDOCK:   -4.79 KCAL/MOL
REMARK 924 INTRA-LIGAND FREE ENERGY PREDICTED BY IDOCK:   -0.81 KCAL/MOL
REMARK 927      BINDING AFFINITY PREDICTED BY RF-SCORE:    0.00 PKD
ROOT
HETATM    1  N   UNL     1      -6.594  10.593  64.283  1.00  0.00    -0.358 N  
HETATM    2  H2  UNL     1      -6.625   9.987  63.463  1.00  0.00     0.000 HD 
HETATM    3  H1  UNL     1      -6.709  11.600  64.168  1.00  0.00     0.000 HD 
HETATM    4  C   UNL     1      -6.399  10.044  65.518  1.00  0.00    -0.094 C  
HETATM    5  O   UNL     1      -6.260   8.836  65.656  1.00  0.00    -0.051 OA 
ENDROOT
BRANCH   4   6
HETATM    6  C   UNL     1      -6.369  11.022  66.669  1.00  0.00    -0.124 C  
BRANCH   6   7
HETATM    7  C   UNL     1      -7.411  10.711  67.721  1.00  0.00    -0.091 A  
HETATM    8  C   UNL     1      -7.049   9.843  68.768  1.00  0.00    -0.067 A  
HETATM    9  C   UNL     1      -7.963   9.496  69.753  1.00  0.00    -0.134 A  
HETATM   10  C   UNL     1      -9.270   9.959  69.667  1.00  0.00    -0.246 A  
HETATM   11  C   UNL     1      -9.674  10.770  68.593  1.00  0.00    -0.187 A  
HETATM   12  C   UNL     1      -8.712  11.263  67.681  1.00  0.00    -0.131 A  
HETATM   13  H2  UNL     1      -8.903  11.629  65.736  1.00  0.00     0.000 HD 
HETATM   14  N   UNL     1      -9.076  12.116  66.615  1.00  0.00    -0.205 NA 
HETATM   15  H1  UNL     1     -10.015  12.515  66.586  1.00  0.00     0.000 HD 
BRANCH  11  16
HETATM   16  C   UNL     1     -11.127  11.118  68.467  1.00  0.00    -0.244 C  
HETATM   17  O   UNL     1     -11.779  10.725  67.507  1.00  0.00    -0.510 OA 
BRANCH  16  18
HETATM   18  C   UNL     1     -11.779  11.991  69.502  1.00  0.00    -0.408 A  
HETATM   19  C   UNL     1     -12.299  11.464  70.696  1.00  0.00    -0.466 A  
HETATM   20  C   UNL     1     -12.734  12.318  71.713  1.00  0.00    -0.257 A  
HETATM   21  C   UNL     1     -12.697  13.699  71.525  1.00  0.00    -0.420 A  
HETATM   22  C   UNL     1     -12.256  14.224  70.310  1.00  0.00    -0.407 A  
HETATM   23  C   UNL     1     -11.805  13.373  69.297  1.00  0.00    -0.385 A  
ENDBRANCH  16  18
ENDBRANCH  11  16
ENDBRANCH   6   7
ENDBRANCH   4   6
TORSDOF 4
ENDMDL
MODEL      175
REMARK 921   NORMALIZED FREE ENERGY PREDICTED BY IDOCK:   -3.92 KCAL/MOL
REMARK 922        TOTAL FREE ENERGY PREDICTED BY IDOCK:   -5.55 KCAL/MOL
REMARK 923 INTER-LIGAND FREE ENERGY PREDICTED BY IDOCK:   -5.06 KCAL/MOL
REMARK 924 INTRA-LIGAND FREE ENERGY PREDICTED BY IDOCK:   -0.49 KCAL/MOL
REMARK 927      BINDING AFFINITY PREDICTED BY RF-SCORE:    0.00 PKD
ROOT
HETATM    1  N   UNL     1     -12.105   6.534  71.701  1.00  0.00    -0.346 N  
HETATM    2  H2  UNL     1     -12.712   6.820  72.469  1.00  0.00     0.000 HD 
HETATM    3  H1  UNL     1     -12.331   6.820  70.748  1.00  0.00     0.000 HD 
HETATM    4  C   UNL     1     -11.002   5.772  71.963  1.00  0.00    -0.260 C  
HETATM    5  O   UNL     1     -10.731   5.428  73.106  1.00  0.00    -0.222 OA 
ENDROOT
BRANCH   4   6
HETATM    6  C   UNL     1     -10.166   5.399  70.762  1.00  0.00    -0.313 C  
BRANCH   6   7
HETATM    7  C   UNL     1     -10.336   6.369  69.612  1.00  0.00    -0.249 A  
HETATM    8  C   UNL     1     -10.874   5.874  68.410  1.00  0.00    -0.322 A  
HETATM    9  C   UNL     1     -11.035   6.701  67.308  1.00  0.00    -0.456 A  
HETATM   10  C   UNL     1     -10.598   8.018  67.372  1.00  0.00    -0.337 A  
HETATM   11  C   UNL     1      -9.994   8.517  68.540  1.00  0.00    -0.201 A  
HETATM   12  C   UNL     1      -9.980   7.733  69.716  1.00  0.00    -0.189 A  
HETATM   13  H2  UNL     1      -8.604   7.651  71.150  1.00  0.00     0.000 HD 
HETATM   14  N   UNL     1      -9.420   8.218  70.919  1.00  0.00    -0.158 NA 
HETATM   15  H1  UNL     1      -9.163   9.203  70.994  1.00  0.00     0.000 HD 
BRANCH  11  16
HETATM   16  C   UNL     1      -9.407   9.896  68.507  1.00  0.00    -0.143 C  
HETATM   17  O   UNL     1      -8.365  10.142  69.104  1.00  0.00    -0.130 OA 
BRANCH  16  18
HETATM   18  C   UNL     1     -10.123  10.996  67.775  1.00  0.00    -0.201 A  
HETATM   19  C   UNL     1     -11.272  11.611  68.300  1.00  0.00    -0.320 A  
HETATM   20  C   UNL     1     -11.807  12.746  67.686  1.00  0.00    -0.396 A  
HETATM   21  C   UNL     1     -11.227  13.246  66.521  1.00  0.00    -0.329 A  
HETATM   22  C   UNL     1     -10.134  12.591  65.952  1.00  0.00    -0.270 A  
HETATM   23  C   UNL     1      -9.586  11.465  66.573  1.00  0.00    -0.220 A  
ENDBRANCH  16  18
ENDBRANCH  11  16
ENDBRANCH   6   7
ENDBRANCH   4   6
TORSDOF 4
ENDMDL
MODEL      176
REMARK 921   NORMALIZED FREE ENERGY PREDICTED BY IDOCK:   -3.92 KCAL/MOL
REMARK 922        TOTAL FREE ENERGY PREDICTED BY IDOCK:   -5.54 KCAL/MOL
REMARK 923 INTER-LIGAND FREE ENERGY PREDICTED BY IDOCK:   -4.92 KCAL/MOL
REMARK 924 INTRA-LIGAND FREE ENERGY PREDICTED BY IDOCK:   -0.63 KCAL/MOL
REMARK 927      BINDING AFFINITY PREDICTED BY RF-SCORE:    0.00 PKD
ROOT
HETATM    1  N   UNL     1      -7.393   2.324  71.813  1.00  0.00    -0.039 N  
HETATM    2  H2  UNL     1      -7.269   1.313  71.751  1.00  0.00     0.000 HD 
HETATM    3  H1  UNL     1      -7.630   2.854  70.974  1.00  0.00     0.000 HD 
HETATM    4  C   UNL     1      -7.236   2.948  73.017  1.00  0.00    -0.044 C  
HETATM    5  O   UNL     1      -6.951   2.312  74.024  1.00  0.00    -0.026 OA 
ENDROOT
BRANCH   4   6
HETATM    6  C   UNL     1      -7.439   4.445  73.008  1.00  0.00    -0.081 C  
BRANCH   6   7
HETATM    7  C   UNL     1      -8.900   4.832  72.934  1.00  0.00    -0.118 A  
HETATM    8  C   UNL     1      -9.795   4.188  73.809  1.00  0.00    -0.156 A  
HETATM    9  C   UNL     1     -11.152   4.477  73.778  1.00  0.00    -0.330 A  
HETATM   10  C   UNL     1     -11.641   5.363  72.827  1.00  0.00    -0.293 A  
HETATM   11  C   UNL     1     -10.776   5.966  71.897  1.00  0.00    -0.290 A  
HETATM   12  C   UNL     1      -9.377   5.807  72.029  1.00  0.00    -0.150 A  
HETATM   13  H2  UNL     1      -7.988   5.711  70.609  1.00  0.00     0.000 HD 
HETATM   14  N   UNL     1      -8.477   6.433  71.138  1.00  0.00    -0.123 NA 
HETATM   15  H1  UNL     1      -8.821   7.138  70.485  1.00  0.00     0.000 HD 
BRANCH  11  16
HETATM   16  C   UNL     1     -11.373   6.796  70.800  1.00  0.00    -0.325 C  
HETATM   17  O   UNL     1     -11.475   6.345  69.665  1.00  0.00    -0.416 OA 
BRANCH  16  18
HETATM   18  C   UNL     1     -11.809   8.206  71.082  1.00  0.00    -0.303 A  
HETATM   19  C   UNL     1     -11.267   9.302  70.389  1.00  0.00    -0.290 A  
HETATM   20  C   UNL     1     -11.818  10.576  70.545  1.00  0.00    -0.442 A  
HETATM   21  C   UNL     1     -12.880  10.772  71.426  1.00  0.00    -0.557 A  
HETATM   22  C   UNL     1     -13.368   9.701  72.176  1.00  0.00    -0.545 A  
HETATM   23  C   UNL     1     -12.830   8.422  72.011  1.00  0.00    -0.389 A  
ENDBRANCH  16  18
ENDBRANCH  11  16
ENDBRANCH   6   7
ENDBRANCH   4   6
TORSDOF 4
ENDMDL
MODEL      177
REMARK 921   NORMALIZED FREE ENERGY PREDICTED BY IDOCK:   -3.90 KCAL/MOL
REMARK 922        TOTAL FREE ENERGY PREDICTED BY IDOCK:   -5.51 KCAL/MOL
REMARK 923 INTER-LIGAND FREE ENERGY PREDICTED BY IDOCK:   -4.77 KCAL/MOL
REMARK 924 INTRA-LIGAND FREE ENERGY PREDICTED BY IDOCK:   -0.75 KCAL/MOL
REMARK 927      BINDING AFFINITY PREDICTED BY RF-SCORE:    0.00 PKD
ROOT
HETATM    1  N   UNL     1     -10.444  17.153  69.341  1.00  0.00    -0.292 N  
HETATM    2  H2  UNL     1     -10.975  17.893  69.800  1.00  0.00     0.000 HD 
HETATM    3  H1  UNL     1     -10.220  16.301  69.856  1.00  0.00     0.000 HD 
HETATM    4  C   UNL     1     -10.041  17.318  68.047  1.00  0.00    -0.324 C  
HETATM    5  O   UNL     1     -10.310  18.340  67.429  1.00  0.00    -0.356 OA 
ENDROOT
BRANCH   4   6
HETATM    6  C   UNL     1      -9.260  16.169  67.455  1.00  0.00    -0.213 C  
BRANCH   6   7
HETATM    7  C   UNL     1     -10.095  14.915  67.307  1.00  0.00    -0.235 A  
HETATM    8  C   UNL     1     -11.334  15.026  66.650  1.00  0.00    -0.289 A  
HETATM    9  C   UNL     1     -12.162  13.922  66.500  1.00  0.00    -0.482 A  
HETATM   10  C   UNL     1     -11.791  12.708  67.065  1.00  0.00    -0.415 A  
HETATM   11  C   UNL     1     -10.590  12.590  67.786  1.00  0.00    -0.235 A  
HETATM   12  C   UNL     1      -9.667  13.661  67.799  1.00  0.00    -0.225 A  
HETATM   13  H2  UNL     1      -8.430  14.230  69.247  1.00  0.00     0.000 HD 
HETATM   14  N   UNL     1      -8.432  13.561  68.477  1.00  0.00    -0.291 NA 
HETATM   15  H1  UNL     1      -8.123  12.656  68.832  1.00  0.00     0.000 HD 
BRANCH  11  16
HETATM   16  C   UNL     1     -10.310  11.302  68.500  1.00  0.00    -0.203 C  
HETATM   17  O   UNL     1     -10.605  11.170  69.683  1.00  0.00    -0.163 OA 
BRANCH  16  18
HETATM   18  C   UNL     1      -9.622  10.179  67.775  1.00  0.00    -0.168 A  
HETATM   19  C   UNL     1     -10.321   9.309  66.922  1.00  0.00    -0.316 A  
HETATM   20  C   UNL     1      -9.627   8.394  66.127  1.00  0.00    -0.246 A  
HETATM   21  C   UNL     1      -8.238   8.309  66.214  1.00  0.00    -0.112 A  
HETATM   22  C   UNL     1      -7.548   9.115  67.120  1.00  0.00    -0.091 A  
HETATM   23  C   UNL     1      -8.237  10.044  67.905  1.00  0.00    -0.113 A  
ENDBRANCH  16  18
ENDBRANCH  11  16
ENDBRANCH   6   7
ENDBRANCH   4   6
TORSDOF 4
ENDMDL
MODEL      178
REMARK 921   NORMALIZED FREE ENERGY PREDICTED BY IDOCK:   -3.84 KCAL/MOL
REMARK 922        TOTAL FREE ENERGY PREDICTED BY IDOCK:   -5.45 KCAL/MOL
REMARK 923 INTER-LIGAND FREE ENERGY PREDICTED BY IDOCK:   -4.50 KCAL/MOL
REMARK 924 INTRA-LIGAND FREE ENERGY PREDICTED BY IDOCK:   -0.95 KCAL/MOL
REMARK 927      BINDING AFFINITY PREDICTED BY RF-SCORE:    0.00 PKD
ROOT
HETATM    1  N   UNL     1     -11.629  15.106  69.094  1.00  0.00    -0.304 N  
HETATM    2  H2  UNL     1     -11.083  15.863  69.506  1.00  0.00     0.000 HD 
HETATM    3  H1  UNL     1     -12.393  14.689  69.626  1.00  0.00     0.000 HD 
HETATM    4  C   UNL     1     -11.326  14.665  67.838  1.00  0.00    -0.315 C  
HETATM    5  O   UNL     1     -10.409  15.164  67.198  1.00  0.00    -0.255 OA 
ENDROOT
BRANCH   4   6
HETATM    6  C   UNL     1     -12.190  13.542  67.314  1.00  0.00    -0.305 C  
BRANCH   6   7
HETATM    7  C   UNL     1     -11.443  12.228  67.225  1.00  0.00    -0.426 A  
HETATM    8  C   UNL     1     -11.025  11.796  65.953  1.00  0.00    -0.354 A  
HETATM    9  C   UNL     1     -10.357  10.590  65.795  1.00  0.00    -0.270 A  
HETATM   10  C   UNL     1     -10.158   9.769  66.898  1.00  0.00    -0.287 A  
HETATM   11  C   UNL     1     -10.628  10.147  68.167  1.00  0.00    -0.262 A  
HETATM   12  C   UNL     1     -11.157  11.444  68.366  1.00  0.00    -0.242 A  
HETATM   13  H2  UNL     1     -12.607  12.030  69.595  1.00  0.00     0.000 HD 
HETATM   14  N   UNL     1     -11.600  11.873  69.637  1.00  0.00    -0.374 NA 
HETATM   15  H1  UNL     1     -11.393  11.307  70.460  1.00  0.00     0.000 HD 
BRANCH  11  16
HETATM   16  C   UNL     1     -10.520   9.162  69.292  1.00  0.00    -0.221 C  
HETATM   17  O   UNL     1     -11.396   9.097  70.147  1.00  0.00    -0.231 OA 
BRANCH  16  18
HETATM   18  C   UNL     1      -9.309   8.278  69.398  1.00  0.00    -0.155 A  
HETATM   19  C   UNL     1      -8.064   8.773  69.820  1.00  0.00    -0.111 A  
HETATM   20  C   UNL     1      -7.009   7.897  70.081  1.00  0.00    -0.049 A  
HETATM   21  C   UNL     1      -7.175   6.528  69.877  1.00  0.00    -0.077 A  
HETATM   22  C   UNL     1      -8.384   6.040  69.381  1.00  0.00    -0.115 A  
HETATM   23  C   UNL     1      -9.448   6.913  69.134  1.00  0.00    -0.142 A  
ENDBRANCH  16  18
ENDBRANCH  11  16
ENDBRANCH   6   7
ENDBRANCH   4   6
TORSDOF 4
ENDMDL
MODEL      179
REMARK 921   NORMALIZED FREE ENERGY PREDICTED BY IDOCK:   -3.84 KCAL/MOL
REMARK 922        TOTAL FREE ENERGY PREDICTED BY IDOCK:   -5.44 KCAL/MOL
REMARK 923 INTER-LIGAND FREE ENERGY PREDICTED BY IDOCK:   -4.70 KCAL/MOL
REMARK 924 INTRA-LIGAND FREE ENERGY PREDICTED BY IDOCK:   -0.74 KCAL/MOL
REMARK 927      BINDING AFFINITY PREDICTED BY RF-SCORE:    0.00 PKD
ROOT
HETATM    1  N   UNL     1     -11.062  15.626  65.936  1.00  0.00    -0.221 N  
HETATM    2  H2  UNL     1     -10.431  16.418  65.813  1.00  0.00     0.000 HD 
HETATM    3  H1  UNL     1     -11.067  15.120  66.822  1.00  0.00     0.000 HD 
HETATM    4  C   UNL     1     -11.888  15.260  64.912  1.00  0.00    -0.170 C  
HETATM    5  O   UNL     1     -11.883  15.867  63.850  1.00  0.00    -0.664 OA 
ENDROOT
BRANCH   4   6
HETATM    6  C   UNL     1     -12.786  14.076  65.189  1.00  0.00    -0.419 C  
BRANCH   6   7
HETATM    7  C   UNL     1     -12.022  12.878  65.708  1.00  0.00    -0.496 A  
HETATM    8  C   UNL     1     -12.120  12.580  67.080  1.00  0.00    -0.135 A  
HETATM    9  C   UNL     1     -11.427  11.510  67.628  1.00  0.00    -0.357 A  
HETATM   10  C   UNL     1     -10.574  10.765  66.824  1.00  0.00    -0.307 A  
HETATM   11  C   UNL     1     -10.405  11.085  65.466  1.00  0.00    -0.321 A  
HETATM   12  C   UNL     1     -11.232  12.064  64.865  1.00  0.00    -0.320 A  
HETATM   13  H2  UNL     1     -10.798  13.345  63.408  1.00  0.00     0.000 HD 
HETATM   14  N   UNL     1     -11.120  12.381  63.493  1.00  0.00    -0.515 NA 
HETATM   15  H1  UNL     1     -10.550  11.793  62.884  1.00  0.00     0.000 HD 
BRANCH  11  16
HETATM   16  C   UNL     1      -9.364  10.346  64.681  1.00  0.00    -0.254 C  
HETATM   17  O   UNL     1      -9.594   9.980  63.534  1.00  0.00    -0.267 OA 
BRANCH  16  18
HETATM   18  C   UNL     1      -8.045  10.011  65.318  1.00  0.00    -0.145 A  
HETATM   19  C   UNL     1      -7.705   8.695  65.672  1.00  0.00    -0.091 A  
HETATM   20  C   UNL     1      -6.409   8.391  66.093  1.00  0.00    -0.050 A  
HETATM   21  C   UNL     1      -5.459   9.404  66.210  1.00  0.00    -0.048 A  
HETATM   22  C   UNL     1      -5.815  10.726  65.937  1.00  0.00    -0.142 A  
HETATM   23  C   UNL     1      -7.107  11.031  65.499  1.00  0.00     0.224 A  
ENDBRANCH  16  18
ENDBRANCH  11  16
ENDBRANCH   6   7
ENDBRANCH   4   6
TORSDOF 4
ENDMDL
MODEL      180
REMARK 921   NORMALIZED FREE ENERGY PREDICTED BY IDOCK:   -3.81 KCAL/MOL
REMARK 922        TOTAL FREE ENERGY PREDICTED BY IDOCK:   -5.41 KCAL/MOL
REMARK 923 INTER-LIGAND FREE ENERGY PREDICTED BY IDOCK:   -4.45 KCAL/MOL
REMARK 924 INTRA-LIGAND FREE ENERGY PREDICTED BY IDOCK:   -0.96 KCAL/MOL
REMARK 927      BINDING AFFINITY PREDICTED BY RF-SCORE:    0.00 PKD
ROOT
HETATM    1  N   UNL     1     -11.173  13.373  68.219  1.00  0.00    -0.263 N  
HETATM    2  H2  UNL     1     -10.888  14.352  68.198  1.00  0.00     0.000 HD 
HETATM    3  H1  UNL     1     -11.796  13.048  68.959  1.00  0.00     0.000 HD 
HETATM    4  C   UNL     1     -10.714  12.518  67.259  1.00  0.00    -0.233 C  
HETATM    5  O   UNL     1      -9.966  12.908  66.372  1.00  0.00    -0.255 OA 
ENDROOT
BRANCH   4   6
HETATM    6  C   UNL     1     -11.192  11.089  67.376  1.00  0.00    -0.355 C  
BRANCH   6   7
HETATM    7  C   UNL     1     -10.136  10.169  67.950  1.00  0.00    -0.207 A  
HETATM    8  C   UNL     1      -9.373   9.402  67.050  1.00  0.00    -0.185 A  
HETATM    9  C   UNL     1      -8.405   8.521  67.508  1.00  0.00    -0.128 A  
HETATM   10  C   UNL     1      -8.233   8.345  68.875  1.00  0.00    -0.115 A  
HETATM   11  C   UNL     1      -9.030   9.048  69.795  1.00  0.00    -0.157 A  
HETATM   12  C   UNL     1      -9.898  10.068  69.340  1.00  0.00    -0.224 A  
HETATM   13  H2  UNL     1     -11.667  10.621  70.062  1.00  0.00     0.000 HD 
HETATM   14  N   UNL     1     -10.683  10.823  70.240  1.00  0.00    -0.429 NA 
HETATM   15  H1  UNL     1     -10.511  10.750  71.243  1.00  0.00     0.000 HD 
BRANCH  11  16
HETATM   16  C   UNL     1      -8.907   8.712  71.250  1.00  0.00    -0.207 C  
HETATM   17  O   UNL     1      -8.117   9.320  71.964  1.00  0.00    -0.240 OA 
BRANCH  16  18
HETATM   18  C   UNL     1      -9.725   7.593  71.831  1.00  0.00    -0.203 A  
HETATM   19  C   UNL     1     -11.122   7.678  71.948  1.00  0.00    -0.290 A  
HETATM   20  C   UNL     1     -11.868   6.558  72.322  1.00  0.00    -0.299 A  
HETATM   21  C   UNL     1     -11.221   5.362  72.628  1.00  0.00    -0.333 A  
HETATM   22  C   UNL     1      -9.828   5.296  72.592  1.00  0.00    -0.188 A  
HETATM   23  C   UNL     1      -9.079   6.410  72.202  1.00  0.00    -0.140 A  
ENDBRANCH  16  18
ENDBRANCH  11  16
ENDBRANCH   6   7
ENDBRANCH   4   6
TORSDOF 4
ENDMDL
MODEL      181
REMARK 921   NORMALIZED FREE ENERGY PREDICTED BY IDOCK:   -3.80 KCAL/MOL
REMARK 922        TOTAL FREE ENERGY PREDICTED BY IDOCK:   -5.40 KCAL/MOL
REMARK 923 INTER-LIGAND FREE ENERGY PREDICTED BY IDOCK:   -4.40 KCAL/MOL
REMARK 924 INTRA-LIGAND FREE ENERGY PREDICTED BY IDOCK:   -1.00 KCAL/MOL
REMARK 927      BINDING AFFINITY PREDICTED BY RF-SCORE:    0.00 PKD
ROOT
HETATM    1  N   UNL     1     -12.959   8.244  72.610  1.00  0.00    -0.608 N  
HETATM    2  H2  UNL     1     -13.924   8.052  72.877  1.00  0.00     0.000 HD 
HETATM    3  H1  UNL     1     -12.222   7.596  72.889  1.00  0.00     0.000 HD 
HETATM    4  C   UNL     1     -12.671   9.364  71.883  1.00  0.00    -0.401 C  
HETATM    5  O   UNL     1     -13.555  10.141  71.547  1.00  0.00    -0.281 OA 
ENDROOT
BRANCH   4   6
HETATM    6  C   UNL     1     -11.214   9.561  71.536  1.00  0.00    -0.437 C  
BRANCH   6   7
HETATM    7  C   UNL     1     -10.561   8.292  71.035  1.00  0.00    -0.243 A  
HETATM    8  C   UNL     1     -10.780   7.926  69.693  1.00  0.00    -0.218 A  
HETATM    9  C   UNL     1     -10.232   6.762  69.174  1.00  0.00    -0.195 A  
HETATM   10  C   UNL     1      -9.512   5.915  70.007  1.00  0.00    -0.189 A  
HETATM   11  C   UNL     1      -9.338   6.224  71.367  1.00  0.00    -0.160 A  
HETATM   12  C   UNL     1      -9.748   7.484  71.862  1.00  0.00    -0.159 A  
HETATM   13  H2  UNL     1     -10.462   7.951  73.658  1.00  0.00     0.000 HD 
HETATM   14  N   UNL     1      -9.550   7.844  73.213  1.00  0.00    -0.286 NA 
HETATM   15  H1  UNL     1      -8.964   7.261  73.810  1.00  0.00     0.000 HD 
BRANCH  11  16
HETATM   16  C   UNL     1      -8.684   5.206  72.253  1.00  0.00    -0.125 C  
HETATM   17  O   UNL     1      -7.529   5.363  72.632  1.00  0.00    -0.093 OA 
BRANCH  16  18
HETATM   18  C   UNL     1      -9.433   3.963  72.644  1.00  0.00    -0.166 A  
HETATM   19  C   UNL     1      -8.806   2.707  72.702  1.00  0.00    -0.092 A  
HETATM   20  C   UNL     1      -9.479   1.608  73.240  1.00  0.00    -0.091 A  
HETATM   21  C   UNL     1     -10.796   1.744  73.678  1.00  0.00    -0.234 A  
HETATM   22  C   UNL     1     -11.449   2.971  73.548  1.00  0.00    -0.176 A  
HETATM   23  C   UNL     1     -10.772   4.077  73.025  1.00  0.00    -0.251 A  
ENDBRANCH  16  18
ENDBRANCH  11  16
ENDBRANCH   6   7
ENDBRANCH   4   6
TORSDOF 4
ENDMDL
MODEL      182
REMARK 921   NORMALIZED FREE ENERGY PREDICTED BY IDOCK:   -3.80 KCAL/MOL
REMARK 922        TOTAL FREE ENERGY PREDICTED BY IDOCK:   -5.40 KCAL/MOL
REMARK 923 INTER-LIGAND FREE ENERGY PREDICTED BY IDOCK:   -4.57 KCAL/MOL
REMARK 924 INTRA-LIGAND FREE ENERGY PREDICTED BY IDOCK:   -0.83 KCAL/MOL
REMARK 927      BINDING AFFINITY PREDICTED BY RF-SCORE:    0.00 PKD
ROOT
HETATM    1  N   UNL     1      -9.372   9.236  64.281  1.00  0.00    -0.384 N  
HETATM    2  H2  UNL     1      -8.553   9.268  63.674  1.00  0.00     0.000 HD 
HETATM    3  H1  UNL     1     -10.289   9.044  63.878  1.00  0.00     0.000 HD 
HETATM    4  C   UNL     1      -9.224   9.451  65.621  1.00  0.00    -0.226 C  
HETATM    5  O   UNL     1      -8.124   9.682  66.105  1.00  0.00    -0.107 OA 
ENDROOT
BRANCH   4   6
HETATM    6  C   UNL     1     -10.494   9.384  66.437  1.00  0.00    -0.165 C  
BRANCH   6   7
HETATM    7  C   UNL     1     -10.576   8.129  67.279  1.00  0.00    -0.344 A  
HETATM    8  C   UNL     1     -10.385   6.892  66.635  1.00  0.00    -0.214 A  
HETATM    9  C   UNL     1     -10.470   5.701  67.342  1.00  0.00    -0.306 A  
HETATM   10  C   UNL     1     -10.815   5.728  68.687  1.00  0.00    -0.270 A  
HETATM   11  C   UNL     1     -11.079   6.946  69.336  1.00  0.00    -0.249 A  
HETATM   12  C   UNL     1     -10.831   8.169  68.669  1.00  0.00     0.083 A  
HETATM   13  H2  UNL     1     -11.800   9.898  68.822  1.00  0.00     0.000 HD 
HETATM   14  N   UNL     1     -11.044   9.412  69.305  1.00  0.00    -0.427 NA 
HETATM   15  H1  UNL     1     -11.228   9.440  70.308  1.00  0.00     0.000 HD 
BRANCH  11  16
HETATM   16  C   UNL     1     -11.591   6.910  70.745  1.00  0.00    -0.349 C  
HETATM   17  O   UNL     1     -12.574   7.567  71.066  1.00  0.00    -0.281 OA 
BRANCH  16  18
HETATM   18  C   UNL     1     -10.868   6.097  71.782  1.00  0.00    -0.303 A  
HETATM   19  C   UNL     1      -9.488   6.236  72.004  1.00  0.00    -0.158 A  
HETATM   20  C   UNL     1      -8.882   5.602  73.091  1.00  0.00    -0.122 A  
HETATM   21  C   UNL     1      -9.638   4.789  73.933  1.00  0.00    -0.139 A  
HETATM   22  C   UNL     1     -10.993   4.584  73.669  1.00  0.00    -0.382 A  
HETATM   23  C   UNL     1     -11.607   5.230  72.592  1.00  0.00    -0.226 A  
ENDBRANCH  16  18
ENDBRANCH  11  16
ENDBRANCH   6   7
ENDBRANCH   4   6
TORSDOF 4
ENDMDL
MODEL      183
REMARK 921   NORMALIZED FREE ENERGY PREDICTED BY IDOCK:   -3.80 KCAL/MOL
REMARK 922        TOTAL FREE ENERGY PREDICTED BY IDOCK:   -5.40 KCAL/MOL
REMARK 923 INTER-LIGAND FREE ENERGY PREDICTED BY IDOCK:   -4.56 KCAL/MOL
REMARK 924 INTRA-LIGAND FREE ENERGY PREDICTED BY IDOCK:   -0.84 KCAL/MOL
REMARK 927      BINDING AFFINITY PREDICTED BY RF-SCORE:    0.00 PKD
ROOT
HETATM    1  N   UNL     1     -11.603  10.452  67.477  1.00  0.00    -0.119 N  
HETATM    2  H2  UNL     1     -11.547  10.093  66.524  1.00  0.00     0.000 HD 
HETATM    3  H1  UNL     1     -12.356  11.094  67.729  1.00  0.00     0.000 HD 
HETATM    4  C   UNL     1     -10.671  10.068  68.397  1.00  0.00    -0.234 C  
HETATM    5  O   UNL     1      -9.768   9.298  68.096  1.00  0.00    -0.145 OA 
ENDROOT
BRANCH   4   6
HETATM    6  C   UNL     1     -10.838  10.653  69.780  1.00  0.00    -0.317 C  
BRANCH   6   7
HETATM    7  C   UNL     1     -10.811   9.597  70.864  1.00  0.00    -0.409 A  
HETATM    8  C   UNL     1     -12.044   9.119  71.345  1.00  0.00    -0.409 A  
HETATM    9  C   UNL     1     -12.094   8.168  72.354  1.00  0.00    -0.406 A  
HETATM   10  C   UNL     1     -10.913   7.733  72.942  1.00  0.00    -0.467 A  
HETATM   11  C   UNL     1      -9.673   8.247  72.527  1.00  0.00    -0.368 A  
HETATM   12  C   UNL     1      -9.603   9.086  71.390  1.00  0.00    -0.285 A  
HETATM   13  H2  UNL     1      -8.367  10.602  71.027  1.00  0.00     0.000 HD 
HETATM   14  N   UNL     1      -8.369   9.587  70.919  1.00  0.00    -0.333 NA 
HETATM   15  H1  UNL     1      -7.497   9.219  71.299  1.00  0.00     0.000 HD 
BRANCH  11  16
HETATM   16  C   UNL     1      -8.445   7.858  73.293  1.00  0.00    -0.205 C  
HETATM   17  O   UNL     1      -7.941   8.635  74.096  1.00  0.00    -0.391 OA 
BRANCH  16  18
HETATM   18  C   UNL     1      -7.801   6.523  73.045  1.00  0.00    -0.104 A  
HETATM   19  C   UNL     1      -6.789   6.021  73.880  1.00  0.00    -0.080 A  
HETATM   20  C   UNL     1      -6.339   4.707  73.731  1.00  0.00    -0.051 A  
HETATM   21  C   UNL     1      -6.861   3.904  72.718  1.00  0.00    -0.043 A  
HETATM   22  C   UNL     1      -7.808   4.425  71.835  1.00  0.00    -0.085 A  
HETATM   23  C   UNL     1      -8.272   5.734  71.993  1.00  0.00    -0.112 A  
ENDBRANCH  16  18
ENDBRANCH  11  16
ENDBRANCH   6   7
ENDBRANCH   4   6
TORSDOF 4
ENDMDL
MODEL      184
REMARK 921   NORMALIZED FREE ENERGY PREDICTED BY IDOCK:   -3.79 KCAL/MOL
REMARK 922        TOTAL FREE ENERGY PREDICTED BY IDOCK:   -5.39 KCAL/MOL
REMARK 923 INTER-LIGAND FREE ENERGY PREDICTED BY IDOCK:   -4.47 KCAL/MOL
REMARK 924 INTRA-LIGAND FREE ENERGY PREDICTED BY IDOCK:   -0.92 KCAL/MOL
REMARK 927      BINDING AFFINITY PREDICTED BY RF-SCORE:    0.00 PKD
ROOT
HETATM    1  N   UNL     1      -7.152  10.680  63.250  1.00  0.00    -0.347 N  
HETATM    2  H2  UNL     1      -7.343  10.761  62.251  1.00  0.00     0.000 HD 
HETATM    3  H1  UNL     1      -6.345  11.161  63.648  1.00  0.00     0.000 HD 
HETATM    4  C   UNL     1      -7.981   9.932  64.035  1.00  0.00    -0.150 C  
HETATM    5  O   UNL     1      -8.951   9.355  63.558  1.00  0.00    -0.220 OA 
ENDROOT
BRANCH   4   6
HETATM    6  C   UNL     1      -7.617   9.873  65.500  1.00  0.00    -0.125 C  
BRANCH   6   7
HETATM    7  C   UNL     1      -8.833   9.805  66.398  1.00  0.00    -0.163 A  
HETATM    8  C   UNL     1      -9.512  11.006  66.675  1.00  0.00    -0.207 A  
HETATM    9  C   UNL     1     -10.621  11.021  67.510  1.00  0.00    -0.266 A  
HETATM   10  C   UNL     1     -11.023   9.845  68.132  1.00  0.00    -0.261 A  
HETATM   11  C   UNL     1     -10.318   8.647  67.926  1.00  0.00    -0.286 A  
HETATM   12  C   UNL     1      -9.296   8.589  66.951  1.00  0.00    -0.172 A  
HETATM   13  H2  UNL     1      -7.620   7.519  66.955  1.00  0.00     0.000 HD 
HETATM   14  N   UNL     1      -8.596   7.391  66.687  1.00  0.00    -0.122 NA 
HETATM   15  H1  UNL     1      -8.930   6.513  67.086  1.00  0.00     0.000 HD 
BRANCH  11  16
HETATM   16  C   UNL     1     -10.701   7.444  68.735  1.00  0.00    -0.118 C  
HETATM   17  O   UNL     1     -11.110   6.429  68.183  1.00  0.00    -0.311 OA 
BRANCH  16  18
HETATM   18  C   UNL     1     -10.627   7.497  70.235  1.00  0.00    -0.235 A  
HETATM   19  C   UNL     1      -9.410   7.358  70.923  1.00  0.00    -0.155 A  
HETATM   20  C   UNL     1      -9.348   7.591  72.299  1.00  0.00    -0.185 A  
HETATM   21  C   UNL     1     -10.506   7.917  73.003  1.00  0.00    -0.410 A  
HETATM   22  C   UNL     1     -11.731   7.977  72.337  1.00  0.00    -0.444 A  
HETATM   23  C   UNL     1     -11.794   7.761  70.957  1.00  0.00    -0.290 A  
ENDBRANCH  16  18
ENDBRANCH  11  16
ENDBRANCH   6   7
ENDBRANCH   4   6
TORSDOF 4
ENDMDL
MODEL      185
REMARK 921   NORMALIZED FREE ENERGY PREDICTED BY IDOCK:   -3.78 KCAL/MOL
REMARK 922        TOTAL FREE ENERGY PREDICTED BY IDOCK:   -5.38 KCAL/MOL
REMARK 923 INTER-LIGAND FREE ENERGY PREDICTED BY IDOCK:   -4.39 KCAL/MOL
REMARK 924 INTRA-LIGAND FREE ENERGY PREDICTED BY IDOCK:   -0.99 KCAL/MOL
REMARK 927      BINDING AFFINITY PREDICTED BY RF-SCORE:    0.00 PKD
ROOT
HETATM    1  N   UNL     1      -6.931  15.264  67.180  1.00  0.00    -0.108 N  
HETATM    2  H2  UNL     1      -6.154  15.426  66.538  1.00  0.00     0.000 HD 
HETATM    3  H1  UNL     1      -7.503  16.052  67.485  1.00  0.00     0.000 HD 
HETATM    4  C   UNL     1      -7.188  13.997  67.618  1.00  0.00    -0.176 C  
HETATM    5  O   UNL     1      -6.501  13.052  67.252  1.00  0.00    -0.212 OA 
ENDROOT
BRANCH   4   6
HETATM    6  C   UNL     1      -8.356  13.859  68.566  1.00  0.00    -0.132 C  
BRANCH   6   7
HETATM    7  C   UNL     1      -9.382  12.858  68.079  1.00  0.00    -0.213 A  
HETATM    8  C   UNL     1     -10.425  13.333  67.262  1.00  0.00    -0.247 A  
HETATM    9  C   UNL     1     -11.414  12.476  66.800  1.00  0.00    -0.422 A  
HETATM   10  C   UNL     1     -11.410  11.147  67.204  1.00  0.00    -0.257 A  
HETATM   11  C   UNL     1     -10.418  10.665  68.076  1.00  0.00    -0.228 A  
HETATM   12  C   UNL     1      -9.318  11.487  68.414  1.00  0.00    -0.194 A  
HETATM   13  H2  UNL     1      -8.292  11.566  70.116  1.00  0.00     0.000 HD 
HETATM   14  N   UNL     1      -8.281  11.021  69.254  1.00  0.00    -0.370 NA 
HETATM   15  H1  UNL     1      -8.235  10.031  69.496  1.00  0.00     0.000 HD 
BRANCH  11  16
HETATM   16  C   UNL     1     -10.545   9.266  68.599  1.00  0.00    -0.187 C  
HETATM   17  O   UNL     1     -10.833   9.065  69.773  1.00  0.00    -0.231 OA 
BRANCH  16  18
HETATM   18  C   UNL     1     -10.273   8.101  67.689  1.00  0.00    -0.296 A  
HETATM   19  C   UNL     1      -9.342   8.179  66.640  1.00  0.00    -0.250 A  
HETATM   20  C   UNL     1      -8.982   7.032  65.930  1.00  0.00    -0.092 A  
HETATM   21  C   UNL     1      -9.582   5.810  66.231  1.00  0.00    -0.159 A  
HETATM   22  C   UNL     1     -10.566   5.743  67.218  1.00  0.00    -0.353 A  
HETATM   23  C   UNL     1     -10.917   6.887  67.942  1.00  0.00    -0.260 A  
ENDBRANCH  16  18
ENDBRANCH  11  16
ENDBRANCH   6   7
ENDBRANCH   4   6
TORSDOF 4
ENDMDL
MODEL      186
REMARK 921   NORMALIZED FREE ENERGY PREDICTED BY IDOCK:   -3.78 KCAL/MOL
REMARK 922        TOTAL FREE ENERGY PREDICTED BY IDOCK:   -5.38 KCAL/MOL
REMARK 923 INTER-LIGAND FREE ENERGY PREDICTED BY IDOCK:   -4.74 KCAL/MOL
REMARK 924 INTRA-LIGAND FREE ENERGY PREDICTED BY IDOCK:   -0.64 KCAL/MOL
REMARK 927      BINDING AFFINITY PREDICTED BY RF-SCORE:    0.00 PKD
ROOT
HETATM    1  N   UNL     1      -9.370   9.365  62.723  1.00  0.00    -0.549 N  
HETATM    2  H2  UNL     1      -8.848   9.300  61.849  1.00  0.00     0.000 HD 
HETATM    3  H1  UNL     1     -10.311   8.975  62.777  1.00  0.00     0.000 HD 
HETATM    4  C   UNL     1      -8.799   9.973  63.804  1.00  0.00    -0.231 C  
HETATM    5  O   UNL     1      -7.669  10.441  63.740  1.00  0.00    -0.131 OA 
ENDROOT
BRANCH   4   6
HETATM    6  C   UNL     1      -9.649  10.020  65.052  1.00  0.00    -0.362 C  
BRANCH   6   7
HETATM    7  C   UNL     1      -9.013   9.292  66.215  1.00  0.00    -0.193 A  
HETATM    8  C   UNL     1      -8.262   8.135  65.934  1.00  0.00    -0.122 A  
HETATM    9  C   UNL     1      -7.671   7.404  66.955  1.00  0.00    -0.110 A  
HETATM   10  C   UNL     1      -7.880   7.782  68.275  1.00  0.00    -0.121 A  
HETATM   11  C   UNL     1      -8.683   8.893  68.585  1.00  0.00    -0.134 A  
HETATM   12  C   UNL     1      -9.148   9.737  67.550  1.00  0.00    -0.130 A  
HETATM   13  H2  UNL     1     -10.853  10.753  67.434  1.00  0.00     0.000 HD 
HETATM   14  N   UNL     1      -9.922  10.886  67.828  1.00  0.00    -0.173 NA 
HETATM   15  H1  UNL     1     -10.019  11.208  68.791  1.00  0.00     0.000 HD 
BRANCH  11  16
HETATM   16  C   UNL     1      -8.997   9.168  70.025  1.00  0.00    -0.187 C  
HETATM   17  O   UNL     1      -8.305   9.943  70.675  1.00  0.00    -0.180 OA 
BRANCH  16  18
HETATM   18  C   UNL     1     -10.142   8.457  70.690  1.00  0.00    -0.220 A  
HETATM   19  C   UNL     1     -10.922   7.508  70.008  1.00  0.00    -0.252 A  
HETATM   20  C   UNL     1     -11.858   6.736  70.700  1.00  0.00    -0.442 A  
HETATM   21  C   UNL     1     -12.054   6.940  72.065  1.00  0.00    -0.331 A  
HETATM   22  C   UNL     1     -11.339   7.937  72.730  1.00  0.00    -0.453 A  
HETATM   23  C   UNL     1     -10.390   8.699  72.043  1.00  0.00    -0.416 A  
ENDBRANCH  16  18
ENDBRANCH  11  16
ENDBRANCH   6   7
ENDBRANCH   4   6
TORSDOF 4
ENDMDL
MODEL      187
REMARK 921   NORMALIZED FREE ENERGY PREDICTED BY IDOCK:   -3.78 KCAL/MOL
REMARK 922        TOTAL FREE ENERGY PREDICTED BY IDOCK:   -5.37 KCAL/MOL
REMARK 923 INTER-LIGAND FREE ENERGY PREDICTED BY IDOCK:   -4.42 KCAL/MOL
REMARK 924 INTRA-LIGAND FREE ENERGY PREDICTED BY IDOCK:   -0.95 KCAL/MOL
REMARK 927      BINDING AFFINITY PREDICTED BY RF-SCORE:    0.00 PKD
ROOT
HETATM    1  N   UNL     1     -11.336   5.733  72.156  1.00  0.00    -0.278 N  
HETATM    2  H2  UNL     1     -11.707   5.529  73.084  1.00  0.00     0.000 HD 
HETATM    3  H1  UNL     1     -11.853   6.354  71.534  1.00  0.00     0.000 HD 
HETATM    4  C   UNL     1     -10.155   5.170  71.766  1.00  0.00    -0.200 C  
HETATM    5  O   UNL     1      -9.535   4.424  72.513  1.00  0.00    -0.131 OA 
ENDROOT
BRANCH   4   6
HETATM    6  C   UNL     1      -9.687   5.532  70.376  1.00  0.00    -0.242 C  
BRANCH   6   7
HETATM    7  C   UNL     1      -9.278   6.984  70.261  1.00  0.00    -0.156 A  
HETATM    8  C   UNL     1      -7.940   7.314  70.548  1.00  0.00    -0.104 A  
HETATM    9  C   UNL     1      -7.502   8.629  70.487  1.00  0.00    -0.071 A  
HETATM   10  C   UNL     1      -8.412   9.640  70.204  1.00  0.00    -0.231 A  
HETATM   11  C   UNL     1      -9.768   9.343  69.982  1.00  0.00    -0.255 A  
HETATM   12  C   UNL     1     -10.187   7.996  69.877  1.00  0.00    -0.204 A  
HETATM   13  H2  UNL     1     -11.913   7.176  70.425  1.00  0.00     0.000 HD 
HETATM   14  N   UNL     1     -11.534   7.662  69.613  1.00  0.00    -0.441 NA 
HETATM   15  H1  UNL     1     -12.190   8.392  69.335  1.00  0.00     0.000 HD 
BRANCH  11  16
HETATM   16  C   UNL     1     -10.733  10.480  69.829  1.00  0.00    -0.264 C  
HETATM   17  O   UNL     1     -11.601  10.677  70.673  1.00  0.00    -0.326 OA 
BRANCH  16  18
HETATM   18  C   UNL     1     -10.665  11.360  68.613  1.00  0.00    -0.241 A  
HETATM   19  C   UNL     1      -9.727  12.399  68.500  1.00  0.00    -0.140 A  
HETATM   20  C   UNL     1      -9.570  13.079  67.290  1.00  0.00    -0.225 A  
HETATM   21  C   UNL     1     -10.380  12.759  66.202  1.00  0.00    -0.283 A  
HETATM   22  C   UNL     1     -11.369  11.783  66.334  1.00  0.00    -0.361 A  
HETATM   23  C   UNL     1     -11.517  11.089  67.539  1.00  0.00    -0.266 A  
ENDBRANCH  16  18
ENDBRANCH  11  16
ENDBRANCH   6   7
ENDBRANCH   4   6
TORSDOF 4
ENDMDL
MODEL      188
REMARK 921   NORMALIZED FREE ENERGY PREDICTED BY IDOCK:   -3.77 KCAL/MOL
REMARK 922        TOTAL FREE ENERGY PREDICTED BY IDOCK:   -5.36 KCAL/MOL
REMARK 923 INTER-LIGAND FREE ENERGY PREDICTED BY IDOCK:   -4.58 KCAL/MOL
REMARK 924 INTRA-LIGAND FREE ENERGY PREDICTED BY IDOCK:   -0.78 KCAL/MOL
REMARK 927      BINDING AFFINITY PREDICTED BY RF-SCORE:    0.00 PKD
ROOT
HETATM    1  N   UNL     1     -11.670  13.907  63.464  1.00  0.00    -0.569 N  
HETATM    2  H2  UNL     1     -11.692  14.897  63.220  1.00  0.00     0.000 HD 
HETATM    3  H1  UNL     1     -11.100  13.265  62.912  1.00  0.00     0.000 HD 
HETATM    4  C   UNL     1     -12.405  13.459  64.524  1.00  0.00    -0.360 C  
HETATM    5  O   UNL     1     -13.089  14.228  65.187  1.00  0.00    -0.704 OA 
ENDROOT
BRANCH   4   6
HETATM    6  C   UNL     1     -12.308  11.978  64.807  1.00  0.00    -0.175 C  
BRANCH   6   7
HETATM    7  C   UNL     1     -10.904  11.548  65.172  1.00  0.00    -0.326 A  
HETATM    8  C   UNL     1     -10.241  10.664  64.301  1.00  0.00    -0.391 A  
HETATM    9  C   UNL     1      -8.961  10.209  64.586  1.00  0.00    -0.241 A  
HETATM   10  C   UNL     1      -8.354  10.580  65.780  1.00  0.00    -0.166 A  
HETATM   11  C   UNL     1      -9.024  11.406  66.698  1.00  0.00    -0.183 A  
HETATM   12  C   UNL     1     -10.254  12.007  66.340  1.00  0.00    -0.216 A  
HETATM   13  H2  UNL     1     -11.816  12.442  67.491  1.00  0.00     0.000 HD 
HETATM   14  N   UNL     1     -10.933  12.876  67.222  1.00  0.00    -0.255 NA 
HETATM   15  H1  UNL     1     -10.464  13.207  68.065  1.00  0.00     0.000 HD 
BRANCH  11  16
HETATM   16  C   UNL     1      -8.387  11.654  68.033  1.00  0.00    -0.148 C  
HETATM   17  O   UNL     1      -8.781  11.058  69.029  1.00  0.00    -0.147 OA 
BRANCH  16  18
HETATM   18  C   UNL     1      -7.290  12.673  68.160  1.00  0.00    -0.112 A  
HETATM   19  C   UNL     1      -7.439  13.987  67.688  1.00  0.00    -0.186 A  
HETATM   20  C   UNL     1      -6.476  14.955  67.981  1.00  0.00    -0.161 A  
HETATM   21  C   UNL     1      -5.337  14.606  68.705  1.00  0.00    -0.095 A  
HETATM   22  C   UNL     1      -5.146  13.283  69.106  1.00  0.00    -0.073 A  
HETATM   23  C   UNL     1      -6.116  12.316  68.829  1.00  0.00    -0.068 A  
ENDBRANCH  16  18
ENDBRANCH  11  16
ENDBRANCH   6   7
ENDBRANCH   4   6
TORSDOF 4
ENDMDL
MODEL      189
REMARK 921   NORMALIZED FREE ENERGY PREDICTED BY IDOCK:   -3.77 KCAL/MOL
REMARK 922        TOTAL FREE ENERGY PREDICTED BY IDOCK:   -5.36 KCAL/MOL
REMARK 923 INTER-LIGAND FREE ENERGY PREDICTED BY IDOCK:   -4.96 KCAL/MOL
REMARK 924 INTRA-LIGAND FREE ENERGY PREDICTED BY IDOCK:   -0.39 KCAL/MOL
REMARK 927      BINDING AFFINITY PREDICTED BY RF-SCORE:    0.00 PKD
ROOT
HETATM    1  N   UNL     1     -12.070  14.883  72.415  1.00  0.00    -0.330 N  
HETATM    2  H2  UNL     1     -12.306  15.720  72.948  1.00  0.00     0.000 HD 
HETATM    3  H1  UNL     1     -11.592  14.110  72.879  1.00  0.00     0.000 HD 
HETATM    4  C   UNL     1     -12.399  14.814  71.092  1.00  0.00    -0.331 C  
HETATM    5  O   UNL     1     -12.972  15.741  70.536  1.00  0.00    -0.454 OA 
ENDROOT
BRANCH   4   6
HETATM    6  C   UNL     1     -12.008  13.535  70.388  1.00  0.00    -0.367 C  
BRANCH   6   7
HETATM    7  C   UNL     1     -11.374  13.787  69.038  1.00  0.00    -0.333 A  
HETATM    8  C   UNL     1     -12.090  13.394  67.892  1.00  0.00    -0.289 A  
HETATM    9  C   UNL     1     -11.558  13.572  66.623  1.00  0.00    -0.396 A  
HETATM   10  C   UNL     1     -10.274  14.084  66.486  1.00  0.00    -0.279 A  
HETATM   11  C   UNL     1      -9.511  14.419  67.619  1.00  0.00    -0.214 A  
HETATM   12  C   UNL     1     -10.107  14.398  68.901  1.00  0.00    -0.200 A  
HETATM   13  H2  UNL     1      -9.285  13.950  70.656  1.00  0.00     0.000 HD 
HETATM   14  N   UNL     1      -9.382  14.770  70.056  1.00  0.00    -0.191 NA 
HETATM   15  H1  UNL     1      -8.468  15.211  69.957  1.00  0.00     0.000 HD 
BRANCH  11  16
HETATM   16  C   UNL     1      -8.081  14.824  67.422  1.00  0.00    -0.198 C  
HETATM   17  O   UNL     1      -7.219  13.979  67.207  1.00  0.00    -0.143 OA 
BRANCH  16  18
HETATM   18  C   UNL     1      -7.693  16.272  67.533  1.00  0.00    -0.169 A  
HETATM   19  C   UNL     1      -6.350  16.685  67.491  1.00  0.00    -0.188 A  
HETATM   20  C   UNL     1      -6.033  18.043  67.415  1.00  0.00    -0.160 A  
HETATM   21  C   UNL     1      -7.049  18.997  67.429  1.00  0.00    -0.226 A  
HETATM   22  C   UNL     1      -8.379  18.594  67.552  1.00  0.00    -0.279 A  
HETATM   23  C   UNL     1      -8.702  17.235  67.611  1.00  0.00    -0.219 A  
ENDBRANCH  16  18
ENDBRANCH  11  16
ENDBRANCH   6   7
ENDBRANCH   4   6
TORSDOF 4
ENDMDL
MODEL      190
REMARK 921   NORMALIZED FREE ENERGY PREDICTED BY IDOCK:   -3.74 KCAL/MOL
REMARK 922        TOTAL FREE ENERGY PREDICTED BY IDOCK:   -5.32 KCAL/MOL
REMARK 923 INTER-LIGAND FREE ENERGY PREDICTED BY IDOCK:   -4.35 KCAL/MOL
REMARK 924 INTRA-LIGAND FREE ENERGY PREDICTED BY IDOCK:   -0.97 KCAL/MOL
REMARK 927      BINDING AFFINITY PREDICTED BY RF-SCORE:    0.00 PKD
ROOT
HETATM    1  N   UNL     1      -9.000  11.327  67.832  1.00  0.00    -0.142 N  
HETATM    2  H2  UNL     1      -8.238  11.871  67.428  1.00  0.00     0.000 HD 
HETATM    3  H1  UNL     1      -9.249  11.461  68.812  1.00  0.00     0.000 HD 
HETATM    4  C   UNL     1      -9.672  10.430  67.052  1.00  0.00    -0.178 C  
HETATM    5  O   UNL     1      -9.374  10.269  65.876  1.00  0.00    -0.164 OA 
ENDROOT
BRANCH   4   6
HETATM    6  C   UNL     1     -10.785   9.672  67.739  1.00  0.00    -0.316 C  
BRANCH   6   7
HETATM    7  C   UNL     1     -10.429   8.224  67.993  1.00  0.00    -0.239 A  
HETATM    8  C   UNL     1     -10.906   7.261  67.084  1.00  0.00    -0.378 A  
HETATM    9  C   UNL     1     -10.638   5.912  67.269  1.00  0.00    -0.365 A  
HETATM   10  C   UNL     1      -9.948   5.502  68.403  1.00  0.00    -0.210 A  
HETATM   11  C   UNL     1      -9.522   6.438  69.361  1.00  0.00    -0.146 A  
HETATM   12  C   UNL     1      -9.643   7.822  69.097  1.00  0.00    -0.155 A  
HETATM   13  H2  UNL     1      -9.991   9.313  70.366  1.00  0.00     0.000 HD 
HETATM   14  N   UNL     1      -9.186   8.791  70.019  1.00  0.00    -0.162 NA 
HETATM   15  H1  UNL     1      -8.619   8.501  70.815  1.00  0.00     0.000 HD 
BRANCH  11  16
HETATM   16  C   UNL     1      -8.915   5.931  70.634  1.00  0.00    -0.145 C  
HETATM   17  O   UNL     1      -7.787   6.277  70.966  1.00  0.00    -0.106 OA 
BRANCH  16  18
HETATM   18  C   UNL     1      -9.675   4.956  71.489  1.00  0.00    -0.233 A  
HETATM   19  C   UNL     1      -9.494   3.568  71.371  1.00  0.00    -0.226 A  
HETATM   20  C   UNL     1     -10.077   2.700  72.297  1.00  0.00    -0.230 A  
HETATM   21  C   UNL     1     -10.882   3.208  73.316  1.00  0.00    -0.283 A  
HETATM   22  C   UNL     1     -11.129   4.579  73.389  1.00  0.00    -0.408 A  
HETATM   23  C   UNL     1     -10.534   5.452  72.473  1.00  0.00    -0.262 A  
ENDBRANCH  16  18
ENDBRANCH  11  16
ENDBRANCH   6   7
ENDBRANCH   4   6
TORSDOF 4
ENDMDL
MODEL      191
REMARK 921   NORMALIZED FREE ENERGY PREDICTED BY IDOCK:   -3.73 KCAL/MOL
REMARK 922        TOTAL FREE ENERGY PREDICTED BY IDOCK:   -5.31 KCAL/MOL
REMARK 923 INTER-LIGAND FREE ENERGY PREDICTED BY IDOCK:   -4.46 KCAL/MOL
REMARK 924 INTRA-LIGAND FREE ENERGY PREDICTED BY IDOCK:   -0.85 KCAL/MOL
REMARK 927      BINDING AFFINITY PREDICTED BY RF-SCORE:    0.00 PKD
ROOT
HETATM    1  N   UNL     1     -11.180   7.282  71.724  1.00  0.00    -0.242 N  
HETATM    2  H2  UNL     1     -11.557   7.302  72.672  1.00  0.00     0.000 HD 
HETATM    3  H1  UNL     1     -11.570   7.903  71.015  1.00  0.00     0.000 HD 
HETATM    4  C   UNL     1     -10.162   6.423  71.424  1.00  0.00    -0.199 C  
HETATM    5  O   UNL     1      -9.694   5.678  72.275  1.00  0.00    -0.154 OA 
ENDROOT
BRANCH   4   6
HETATM    6  C   UNL     1      -9.672   6.466  69.996  1.00  0.00    -0.183 C  
BRANCH   6   7
HETATM    7  C   UNL     1      -9.269   7.859  69.562  1.00  0.00    -0.152 A  
HETATM    8  C   UNL     1      -8.271   8.515  70.307  1.00  0.00    -0.115 A  
HETATM    9  C   UNL     1      -7.870   9.802  69.981  1.00  0.00    -0.188 A  
HETATM   10  C   UNL     1      -8.508  10.476  68.947  1.00  0.00    -0.152 A  
HETATM   11  C   UNL     1      -9.555   9.867  68.233  1.00  0.00    -0.151 A  
HETATM   12  C   UNL     1      -9.854   8.501  68.448  1.00  0.00    -0.173 A  
HETATM   13  H2  UNL     1     -11.613   7.577  68.365  1.00  0.00     0.000 HD 
HETATM   14  N   UNL     1     -10.871   7.846  67.718  1.00  0.00    -0.493 NA 
HETATM   15  H1  UNL     1     -11.294   8.310  66.914  1.00  0.00     0.000 HD 
BRANCH  11  16
HETATM   16  C   UNL     1     -10.308  10.688  67.230  1.00  0.00    -0.220 C  
HETATM   17  O   UNL     1     -10.610  10.215  66.140  1.00  0.00    -0.146 OA 
BRANCH  16  18
HETATM   18  C   UNL     1     -10.658  12.116  67.544  1.00  0.00    -0.240 A  
HETATM   19  C   UNL     1     -10.209  13.182  66.747  1.00  0.00    -0.252 A  
HETATM   20  C   UNL     1     -10.697  14.473  66.958  1.00  0.00    -0.291 A  
HETATM   21  C   UNL     1     -11.597  14.717  67.994  1.00  0.00    -0.366 A  
HETATM   22  C   UNL     1     -11.983  13.676  68.839  1.00  0.00    -0.392 A  
HETATM   23  C   UNL     1     -11.510  12.379  68.620  1.00  0.00    -0.348 A  
ENDBRANCH  16  18
ENDBRANCH  11  16
ENDBRANCH   6   7
ENDBRANCH   4   6
TORSDOF 4
ENDMDL
MODEL      192
REMARK 921   NORMALIZED FREE ENERGY PREDICTED BY IDOCK:   -3.65 KCAL/MOL
REMARK 922        TOTAL FREE ENERGY PREDICTED BY IDOCK:   -5.21 KCAL/MOL
REMARK 923 INTER-LIGAND FREE ENERGY PREDICTED BY IDOCK:   -6.70 KCAL/MOL
REMARK 924 INTRA-LIGAND FREE ENERGY PREDICTED BY IDOCK:    1.49 KCAL/MOL
REMARK 927      BINDING AFFINITY PREDICTED BY RF-SCORE:    0.00 PKD
ROOT
HETATM    1  N   UNL     1     -12.996  15.913  74.519  1.00  0.00    -0.844 N  
HETATM    2  H2  UNL     1     -12.366  16.428  75.135  1.00  0.00     0.000 HD 
HETATM    3  H1  UNL     1     -13.719  15.317  74.923  1.00  0.00     0.000 HD 
HETATM    4  C   UNL     1     -12.858  16.032  73.165  1.00  0.00    -0.519 C  
HETATM    5  O   UNL     1     -11.991  16.747  72.680  1.00  0.00    -0.400 OA 
ENDROOT
BRANCH   4   6
HETATM    6  C   UNL     1     -13.836  15.232  72.337  1.00  0.00    -0.641 C  
BRANCH   6   7
HETATM    7  C   UNL     1     -13.151  14.208  71.459  1.00  0.00    -0.424 A  
HETATM    8  C   UNL     1     -13.215  12.858  71.851  1.00  0.00    -0.521 A  
HETATM    9  C   UNL     1     -12.589  11.869  71.106  1.00  0.00    -0.390 A  
HETATM   10  C   UNL     1     -11.834  12.226  69.996  1.00  0.00    -0.372 A  
HETATM   11  C   UNL     1     -11.698  13.574  69.623  1.00  0.00    -0.378 A  
HETATM   12  C   UNL     1     -12.466  14.567  70.275  1.00  0.00    -0.348 A  
HETATM   13  H2  UNL     1     -11.991  16.455  70.676  1.00  0.00     0.000 HD 
HETATM   14  N   UNL     1     -12.386  15.926  69.899  1.00  0.00    -0.405 NA 
HETATM   15  H1  UNL     1     -11.892  16.184  69.045  1.00  0.00     0.000 HD 
BRANCH  11  16
HETATM   16  C   UNL     1     -10.754  13.916  68.510  1.00  0.00    -0.257 C  
HETATM   17  O   UNL     1     -10.213  13.029  67.860  1.00  0.00    -0.222 OA 
BRANCH  16  18
HETATM   18  C   UNL     1     -10.432  15.354  68.218  1.00  0.00    -0.241 A  
HETATM   19  C   UNL     1     -11.299  16.171  67.472  1.00  0.00     0.002 A  
HETATM   20  C   UNL     1     -11.061  17.544  67.371  1.00  0.00     0.097 A  
HETATM   21  C   UNL     1      -9.932  18.100  67.971  1.00  0.00    -0.353 A  
HETATM   22  C   UNL     1      -9.026  17.280  68.644  1.00  0.00    -0.265 A  
HETATM   23  C   UNL     1      -9.270  15.908  68.762  1.00  0.00    -0.218 A  
ENDBRANCH  16  18
ENDBRANCH  11  16
ENDBRANCH   6   7
ENDBRANCH   4   6
TORSDOF 4
ENDMDL
MODEL      193
REMARK 921   NORMALIZED FREE ENERGY PREDICTED BY IDOCK:   -3.64 KCAL/MOL
REMARK 922        TOTAL FREE ENERGY PREDICTED BY IDOCK:   -5.20 KCAL/MOL
REMARK 923 INTER-LIGAND FREE ENERGY PREDICTED BY IDOCK:   -4.39 KCAL/MOL
REMARK 924 INTRA-LIGAND FREE ENERGY PREDICTED BY IDOCK:   -0.81 KCAL/MOL
REMARK 927      BINDING AFFINITY PREDICTED BY RF-SCORE:    0.00 PKD
ROOT
HETATM    1  N   UNL     1     -12.472   6.448  72.538  1.00  0.00    -0.522 N  
HETATM    2  H2  UNL     1     -12.944   6.806  73.368  1.00  0.00     0.000 HD 
HETATM    3  H1  UNL     1     -12.880   6.612  71.617  1.00  0.00     0.000 HD 
HETATM    4  C   UNL     1     -11.303   5.757  72.675  1.00  0.00    -0.300 C  
HETATM    5  O   UNL     1     -10.812   5.561  73.779  1.00  0.00    -0.282 OA 
ENDROOT
BRANCH   4   6
HETATM    6  C   UNL     1     -10.678   5.267  71.389  1.00  0.00    -0.203 C  
BRANCH   6   7
HETATM    7  C   UNL     1      -9.745   6.286  70.773  1.00  0.00    -0.202 A  
HETATM    8  C   UNL     1      -8.385   6.233  71.132  1.00  0.00    -0.124 A  
HETATM    9  C   UNL     1      -7.478   7.151  70.624  1.00  0.00    -0.081 A  
HETATM   10  C   UNL     1      -7.930   8.176  69.803  1.00  0.00    -0.111 A  
HETATM   11  C   UNL     1      -9.294   8.292  69.485  1.00  0.00    -0.158 A  
HETATM   12  C   UNL     1     -10.195   7.267  69.860  1.00  0.00    -0.205 A  
HETATM   13  H2  UNL     1     -12.109   7.412  70.380  1.00  0.00     0.000 HD 
HETATM   14  N   UNL     1     -11.565   7.330  69.521  1.00  0.00    -0.455 NA 
HETATM   15  H1  UNL     1     -11.889   8.038  68.862  1.00  0.00     0.000 HD 
BRANCH  11  16
HETATM   16  C   UNL     1      -9.750   9.498  68.720  1.00  0.00    -0.159 C  
HETATM   17  O   UNL     1     -10.426  10.362  69.267  1.00  0.00    -0.206 OA 
BRANCH  16  18
HETATM   18  C   UNL     1      -9.416   9.628  67.261  1.00  0.00    -0.175 A  
HETATM   19  C   UNL     1      -8.417   8.847  66.656  1.00  0.00    -0.122 A  
HETATM   20  C   UNL     1      -8.254   8.862  65.269  1.00  0.00    -0.139 A  
HETATM   21  C   UNL     1      -9.053   9.691  64.483  1.00  0.00    -0.287 A  
HETATM   22  C   UNL     1      -9.991  10.529  65.087  1.00  0.00    -0.375 A  
HETATM   23  C   UNL     1     -10.168  10.504  66.474  1.00  0.00    -0.288 A  
ENDBRANCH  16  18
ENDBRANCH  11  16
ENDBRANCH   6   7
ENDBRANCH   4   6
TORSDOF 4
ENDMDL
MODEL      194
REMARK 921   NORMALIZED FREE ENERGY PREDICTED BY IDOCK:   -3.63 KCAL/MOL
REMARK 922        TOTAL FREE ENERGY PREDICTED BY IDOCK:   -5.19 KCAL/MOL
REMARK 923 INTER-LIGAND FREE ENERGY PREDICTED BY IDOCK:   -4.37 KCAL/MOL
REMARK 924 INTRA-LIGAND FREE ENERGY PREDICTED BY IDOCK:   -0.82 KCAL/MOL
REMARK 927      BINDING AFFINITY PREDICTED BY RF-SCORE:    0.00 PKD
ROOT
HETATM    1  N   UNL     1     -13.671   8.963  72.981  1.00  0.00    -0.894 N  
HETATM    2  H2  UNL     1     -13.738   9.939  73.267  1.00  0.00     0.000 HD 
HETATM    3  H1  UNL     1     -13.701   8.228  73.689  1.00  0.00     0.000 HD 
HETATM    4  C   UNL     1     -13.542   8.657  71.656  1.00  0.00    -0.371 C  
HETATM    5  O   UNL     1     -13.506   9.538  70.807  1.00  0.00    -0.150 OA 
ENDROOT
BRANCH   4   6
HETATM    6  C   UNL     1     -13.450   7.184  71.332  1.00  0.00    -0.374 C  
BRANCH   6   7
HETATM    7  C   UNL     1     -12.049   6.639  71.503  1.00  0.00    -0.406 A  
HETATM    8  C   UNL     1     -11.695   6.123  72.764  1.00  0.00    -0.110 A  
HETATM    9  C   UNL     1     -10.419   5.629  72.998  1.00  0.00    -0.246 A  
HETATM   10  C   UNL     1      -9.461   5.707  71.995  1.00  0.00    -0.169 A  
HETATM   11  C   UNL     1      -9.771   6.281  70.750  1.00  0.00    -0.202 A  
HETATM   12  C   UNL     1     -11.108   6.632  70.449  1.00  0.00    -0.322 A  
HETATM   13  H2  UNL     1     -11.788   8.129  69.330  1.00  0.00     0.000 HD 
HETATM   14  N   UNL     1     -11.462   7.172  69.192  1.00  0.00    -0.446 NA 
HETATM   15  H1  UNL     1     -10.783   7.166  68.431  1.00  0.00     0.000 HD 
BRANCH  11  16
HETATM   16  C   UNL     1      -8.664   6.476  69.758  1.00  0.00    -0.143 C  
HETATM   17  O   UNL     1      -8.452   5.636  68.891  1.00  0.00    -0.102 OA 
BRANCH  16  18
HETATM   18  C   UNL     1      -7.779   7.687  69.853  1.00  0.00    -0.097 A  
HETATM   19  C   UNL     1      -6.424   7.590  70.208  1.00  0.00    -0.038 A  
HETATM   20  C   UNL     1      -5.588   8.704  70.112  1.00  0.00    -0.024 A  
HETATM   21  C   UNL     1      -6.109   9.932  69.708  1.00  0.00    -0.045 A  
HETATM   22  C   UNL     1      -7.472  10.052  69.432  1.00  0.00    -0.113 A  
HETATM   23  C   UNL     1      -8.308   8.935  69.511  1.00  0.00    -0.119 A  
ENDBRANCH  16  18
ENDBRANCH  11  16
ENDBRANCH   6   7
ENDBRANCH   4   6
TORSDOF 4
ENDMDL
MODEL      195
REMARK 921   NORMALIZED FREE ENERGY PREDICTED BY IDOCK:   -3.62 KCAL/MOL
REMARK 922        TOTAL FREE ENERGY PREDICTED BY IDOCK:   -5.17 KCAL/MOL
REMARK 923 INTER-LIGAND FREE ENERGY PREDICTED BY IDOCK:   -4.48 KCAL/MOL
REMARK 924 INTRA-LIGAND FREE ENERGY PREDICTED BY IDOCK:   -0.69 KCAL/MOL
REMARK 927      BINDING AFFINITY PREDICTED BY RF-SCORE:    0.00 PKD
ROOT
HETATM    1  N   UNL     1     -10.123   7.419  72.379  1.00  0.00    -0.180 N  
HETATM    2  H2  UNL     1      -9.585   7.553  73.235  1.00  0.00     0.000 HD 
HETATM    3  H1  UNL     1     -10.652   6.556  72.248  1.00  0.00     0.000 HD 
HETATM    4  C   UNL     1     -10.124   8.395  71.425  1.00  0.00    -0.215 C  
HETATM    5  O   UNL     1      -9.489   9.430  71.581  1.00  0.00    -0.262 OA 
ENDROOT
BRANCH   4   6
HETATM    6  C   UNL     1     -10.950   8.105  70.194  1.00  0.00    -0.223 C  
BRANCH   6   7
HETATM    7  C   UNL     1     -10.253   8.520  68.916  1.00  0.00    -0.221 A  
HETATM    8  C   UNL     1      -9.026   7.904  68.607  1.00  0.00    -0.134 A  
HETATM    9  C   UNL     1      -8.321   8.254  67.465  1.00  0.00    -0.130 A  
HETATM   10  C   UNL     1      -8.801   9.273  66.651  1.00  0.00    -0.146 A  
HETATM   11  C   UNL     1      -9.988   9.951  66.976  1.00  0.00    -0.254 A  
HETATM   12  C   UNL     1     -10.796   9.489  68.041  1.00  0.00    -0.168 A  
HETATM   13  H2  UNL     1     -11.930  10.533  69.297  1.00  0.00     0.000 HD 
HETATM   14  N   UNL     1     -12.016  10.120  68.369  1.00  0.00    -0.457 NA 
HETATM   15  H1  UNL     1     -12.408  10.819  67.737  1.00  0.00     0.000 HD 
BRANCH  11  16
HETATM   16  C   UNL     1     -10.382  11.138  66.150  1.00  0.00    -0.250 C  
HETATM   17  O   UNL     1     -10.756  10.993  64.991  1.00  0.00    -0.274 OA 
BRANCH  16  18
HETATM   18  C   UNL     1     -10.275  12.521  66.729  1.00  0.00    -0.243 A  
HETATM   19  C   UNL     1     -11.390  13.370  66.832  1.00  0.00    -0.351 A  
HETATM   20  C   UNL     1     -11.297  14.573  67.536  1.00  0.00    -0.355 A  
HETATM   21  C   UNL     1     -10.081  14.958  68.098  1.00  0.00    -0.222 A  
HETATM   22  C   UNL     1      -8.952  14.156  67.929  1.00  0.00    -0.185 A  
HETATM   23  C   UNL     1      -9.045  12.944  67.239  1.00  0.00    -0.208 A  
ENDBRANCH  16  18
ENDBRANCH  11  16
ENDBRANCH   6   7
ENDBRANCH   4   6
TORSDOF 4
ENDMDL
MODEL      196
REMARK 921   NORMALIZED FREE ENERGY PREDICTED BY IDOCK:   -3.59 KCAL/MOL
REMARK 922        TOTAL FREE ENERGY PREDICTED BY IDOCK:   -5.14 KCAL/MOL
REMARK 923 INTER-LIGAND FREE ENERGY PREDICTED BY IDOCK:   -4.15 KCAL/MOL
REMARK 924 INTRA-LIGAND FREE ENERGY PREDICTED BY IDOCK:   -1.00 KCAL/MOL
REMARK 927      BINDING AFFINITY PREDICTED BY RF-SCORE:    0.00 PKD
ROOT
HETATM    1  N   UNL     1      -8.624  12.026  66.480  1.00  0.00    -0.340 N  
HETATM    2  H2  UNL     1      -7.917  12.369  65.830  1.00  0.00     0.000 HD 
HETATM    3  H1  UNL     1      -8.713  12.457  67.400  1.00  0.00     0.000 HD 
HETATM    4  C   UNL     1      -9.438  10.996  66.105  1.00  0.00    -0.203 C  
HETATM    5  O   UNL     1      -9.332  10.478  65.001  1.00  0.00    -0.188 OA 
ENDROOT
BRANCH   4   6
HETATM    6  C   UNL     1     -10.453  10.558  67.135  1.00  0.00    -0.302 C  
BRANCH   6   7
HETATM    7  C   UNL     1     -10.012   9.329  67.899  1.00  0.00    -0.228 A  
HETATM    8  C   UNL     1     -10.423   8.073  67.416  1.00  0.00    -0.357 A  
HETATM    9  C   UNL     1     -10.074   6.905  68.081  1.00  0.00    -0.187 A  
HETATM   10  C   UNL     1      -9.368   6.983  69.274  1.00  0.00    -0.145 A  
HETATM   11  C   UNL     1      -9.006   8.230  69.814  1.00  0.00    -0.146 A  
HETATM   12  C   UNL     1      -9.209   9.410  69.060  1.00  0.00    -0.145 A  
HETATM   13  H2  UNL     1      -9.656  11.240  69.697  1.00  0.00     0.000 HD 
HETATM   14  N   UNL     1      -8.819  10.675  69.553  1.00  0.00    -0.398 NA 
HETATM   15  H1  UNL     1      -8.240  10.733  70.391  1.00  0.00     0.000 HD 
BRANCH  11  16
HETATM   16  C   UNL     1      -8.378   8.264  71.174  1.00  0.00    -0.129 C  
HETATM   17  O   UNL     1      -7.416   8.992  71.396  1.00  0.00    -0.219 OA 
BRANCH  16  18
HETATM   18  C   UNL     1      -8.901   7.370  72.262  1.00  0.00    -0.148 A  
HETATM   19  C   UNL     1      -8.274   6.156  72.590  1.00  0.00    -0.107 A  
HETATM   20  C   UNL     1      -8.674   5.438  73.719  1.00  0.00    -0.115 A  
HETATM   21  C   UNL     1      -9.732   5.901  74.499  1.00  0.00    -0.241 A  
HETATM   22  C   UNL     1     -10.410   7.064  74.132  1.00  0.00    -0.193 A  
HETATM   23  C   UNL     1     -10.001   7.794  73.012  1.00  0.00    -0.356 A  
ENDBRANCH  16  18
ENDBRANCH  11  16
ENDBRANCH   6   7
ENDBRANCH   4   6
TORSDOF 4
ENDMDL
MODEL      197
REMARK 921   NORMALIZED FREE ENERGY PREDICTED BY IDOCK:   -3.55 KCAL/MOL
REMARK 922        TOTAL FREE ENERGY PREDICTED BY IDOCK:   -5.08 KCAL/MOL
REMARK 923 INTER-LIGAND FREE ENERGY PREDICTED BY IDOCK:   -3.97 KCAL/MOL
REMARK 924 INTRA-LIGAND FREE ENERGY PREDICTED BY IDOCK:   -1.12 KCAL/MOL
REMARK 927      BINDING AFFINITY PREDICTED BY RF-SCORE:    0.00 PKD
ROOT
HETATM    1  N   UNL     1      -7.891  13.075  66.863  1.00  0.00    -0.401 N  
HETATM    2  H2  UNL     1      -7.947  13.986  67.319  1.00  0.00     0.000 HD 
HETATM    3  H1  UNL     1      -8.657  12.766  66.264  1.00  0.00     0.000 HD 
HETATM    4  C   UNL     1      -6.794  12.288  67.065  1.00  0.00    -0.031 C  
HETATM    5  O   UNL     1      -5.876  12.659  67.784  1.00  0.00    -0.095 OA 
ENDROOT
BRANCH   4   6
HETATM    6  C   UNL     1      -6.804  10.958  66.347  1.00  0.00    -0.135 C  
BRANCH   6   7
HETATM    7  C   UNL     1      -7.199   9.813  67.254  1.00  0.00    -0.086 A  
HETATM    8  C   UNL     1      -6.168   9.076  67.867  1.00  0.00    -0.051 A  
HETATM    9  C   UNL     1      -6.457   7.998  68.692  1.00  0.00    -0.053 A  
HETATM   10  C   UNL     1      -7.778   7.601  68.860  1.00  0.00    -0.117 A  
HETATM   11  C   UNL     1      -8.819   8.278  68.202  1.00  0.00    -0.139 A  
HETATM   12  C   UNL     1      -8.549   9.475  67.499  1.00  0.00    -0.126 A  
HETATM   13  H2  UNL     1      -9.415  10.184  65.856  1.00  0.00     0.000 HD 
HETATM   14  N   UNL     1      -9.578  10.204  66.863  1.00  0.00    -0.172 NA 
HETATM   15  H1  UNL     1     -10.553   9.960  67.039  1.00  0.00     0.000 HD 
BRANCH  11  16
HETATM   16  C   UNL     1     -10.207   7.719  68.298  1.00  0.00    -0.201 C  
HETATM   17  O   UNL     1     -10.766   7.269  67.304  1.00  0.00    -0.297 OA 
BRANCH  16  18
HETATM   18  C   UNL     1     -10.937   7.750  69.611  1.00  0.00    -0.128 A  
HETATM   19  C   UNL     1     -11.477   6.588  70.187  1.00  0.00    -0.477 A  
HETATM   20  C   UNL     1     -11.988   6.617  71.487  1.00  0.00    -0.402 A  
HETATM   21  C   UNL     1     -12.007   7.815  72.200  1.00  0.00    -0.362 A  
HETATM   22  C   UNL     1     -11.545   8.988  71.602  1.00  0.00    -0.426 A  
HETATM   23  C   UNL     1     -11.018   8.959  70.308  1.00  0.00    -0.266 A  
ENDBRANCH  16  18
ENDBRANCH  11  16
ENDBRANCH   6   7
ENDBRANCH   4   6
TORSDOF 4
ENDMDL
MODEL      198
REMARK 921   NORMALIZED FREE ENERGY PREDICTED BY IDOCK:   -3.53 KCAL/MOL
REMARK 922        TOTAL FREE ENERGY PREDICTED BY IDOCK:   -5.07 KCAL/MOL
REMARK 923 INTER-LIGAND FREE ENERGY PREDICTED BY IDOCK:   -4.24 KCAL/MOL
REMARK 924 INTRA-LIGAND FREE ENERGY PREDICTED BY IDOCK:   -0.83 KCAL/MOL
REMARK 927      BINDING AFFINITY PREDICTED BY RF-SCORE:    0.00 PKD
ROOT
HETATM    1  N   UNL     1      -7.179  10.614  64.220  1.00  0.00    -0.347 N  
HETATM    2  H2  UNL     1      -7.263   9.971  63.432  1.00  0.00     0.000 HD 
HETATM    3  H1  UNL     1      -7.158  11.620  64.048  1.00  0.00     0.000 HD 
HETATM    4  C   UNL     1      -7.096  10.116  65.489  1.00  0.00    -0.138 C  
HETATM    5  O   UNL     1      -7.121   8.910  65.695  1.00  0.00    -0.082 OA 
ENDROOT
BRANCH   4   6
HETATM    6  C   UNL     1      -6.975  11.146  66.587  1.00  0.00    -0.142 C  
BRANCH   6   7
HETATM    7  C   UNL     1      -7.363  10.596  67.943  1.00  0.00    -0.089 A  
HETATM    8  C   UNL     1      -6.366   9.958  68.703  1.00  0.00    -0.045 A  
HETATM    9  C   UNL     1      -6.657   9.409  69.943  1.00  0.00    -0.055 A  
HETATM   10  C   UNL     1      -7.965   9.433  70.411  1.00  0.00    -0.190 A  
HETATM   11  C   UNL     1      -8.992  10.003  69.639  1.00  0.00    -0.221 A  
HETATM   12  C   UNL     1      -8.676  10.710  68.456  1.00  0.00    -0.141 A  
HETATM   13  H2  UNL     1      -9.723  10.866  66.772  1.00  0.00     0.000 HD 
HETATM   14  N   UNL     1      -9.678  11.332  67.679  1.00  0.00    -0.170 NA 
HETATM   15  H1  UNL     1     -10.625  11.415  68.049  1.00  0.00     0.000 HD 
BRANCH  11  16
HETATM   16  C   UNL     1     -10.406   9.870  70.121  1.00  0.00    -0.282 C  
HETATM   17  O   UNL     1     -11.184  10.812  70.030  1.00  0.00    -0.280 OA 
BRANCH  16  18
HETATM   18  C   UNL     1     -10.860   8.588  70.760  1.00  0.00    -0.268 A  
HETATM   19  C   UNL     1     -10.943   7.387  70.036  1.00  0.00    -0.264 A  
HETATM   20  C   UNL     1     -11.194   6.182  70.696  1.00  0.00    -0.387 A  
HETATM   21  C   UNL     1     -11.411   6.175  72.073  1.00  0.00    -0.348 A  
HETATM   22  C   UNL     1     -11.409   7.376  72.784  1.00  0.00    -0.356 A  
HETATM   23  C   UNL     1     -11.142   8.582  72.129  1.00  0.00    -0.436 A  
ENDBRANCH  16  18
ENDBRANCH  11  16
ENDBRANCH   6   7
ENDBRANCH   4   6
TORSDOF 4
ENDMDL
MODEL      199
REMARK 921   NORMALIZED FREE ENERGY PREDICTED BY IDOCK:   -3.52 KCAL/MOL
REMARK 922        TOTAL FREE ENERGY PREDICTED BY IDOCK:   -5.05 KCAL/MOL
REMARK 923 INTER-LIGAND FREE ENERGY PREDICTED BY IDOCK:   -4.27 KCAL/MOL
REMARK 924 INTRA-LIGAND FREE ENERGY PREDICTED BY IDOCK:   -0.78 KCAL/MOL
REMARK 927      BINDING AFFINITY PREDICTED BY RF-SCORE:    0.00 PKD
ROOT
HETATM    1  N   UNL     1      -6.934  13.998  68.083  1.00  0.00    -0.104 N  
HETATM    2  H2  UNL     1      -7.256  14.832  68.574  1.00  0.00     0.000 HD 
HETATM    3  H1  UNL     1      -5.977  13.960  67.731  1.00  0.00     0.000 HD 
HETATM    4  C   UNL     1      -7.790  12.949  67.906  1.00  0.00    -0.151 C  
HETATM    5  O   UNL     1      -8.938  12.994  68.328  1.00  0.00    -0.194 OA 
ENDROOT
BRANCH   4   6
HETATM    6  C   UNL     1      -7.221  11.760  67.167  1.00  0.00    -0.147 C  
BRANCH   6   7
HETATM    7  C   UNL     1      -8.242  10.662  66.963  1.00  0.00    -0.124 A  
HETATM    8  C   UNL     1      -9.151  10.801  65.897  1.00  0.00    -0.208 A  
HETATM    9  C   UNL     1     -10.129   9.844  65.666  1.00  0.00    -0.307 A  
HETATM   10  C   UNL     1     -10.254   8.770  66.538  1.00  0.00    -0.314 A  
HETATM   11  C   UNL     1      -9.402   8.646  67.650  1.00  0.00    -0.157 A  
HETATM   12  C   UNL     1      -8.301   9.521  67.795  1.00  0.00    -0.118 A  
HETATM   13  H2  UNL     1      -7.478  10.232  69.461  1.00  0.00     0.000 HD 
HETATM   14  N   UNL     1      -7.400   9.399  68.877  1.00  0.00    -0.072 NA 
HETATM   15  H1  UNL     1      -7.443   8.575  69.478  1.00  0.00     0.000 HD 
BRANCH  11  16
HETATM   16  C   UNL     1      -9.674   7.553  68.639  1.00  0.00    -0.154 C  
HETATM   17  O   UNL     1      -9.139   6.457  68.517  1.00  0.00    -0.127 OA 
BRANCH  16  18
HETATM   18  C   UNL     1     -10.642   7.787  69.764  1.00  0.00    -0.241 A  
HETATM   19  C   UNL     1     -10.967   9.080  70.207  1.00  0.00    -0.274 A  
HETATM   20  C   UNL     1     -12.000   9.271  71.127  1.00  0.00    -0.394 A  
HETATM   21  C   UNL     1     -12.682   8.172  71.646  1.00  0.00    -0.343 A  
HETATM   22  C   UNL     1     -12.309   6.881  71.271  1.00  0.00    -0.422 A  
HETATM   23  C   UNL     1     -11.286   6.687  70.337  1.00  0.00    -0.421 A  
ENDBRANCH  16  18
ENDBRANCH  11  16
ENDBRANCH   6   7
ENDBRANCH   4   6
TORSDOF 4
ENDMDL
MODEL      200
REMARK 921   NORMALIZED FREE ENERGY PREDICTED BY IDOCK:   -3.48 KCAL/MOL
REMARK 922        TOTAL FREE ENERGY PREDICTED BY IDOCK:   -5.00 KCAL/MOL
REMARK 923 INTER-LIGAND FREE ENERGY PREDICTED BY IDOCK:   -4.37 KCAL/MOL
REMARK 924 INTRA-LIGAND FREE ENERGY PREDICTED BY IDOCK:   -0.63 KCAL/MOL
REMARK 927      BINDING AFFINITY PREDICTED BY RF-SCORE:    0.00 PKD
ROOT
HETATM    1  N   UNL     1      -8.073   8.778  67.775  1.00  0.00    -0.106 N  
HETATM    2  H2  UNL     1      -7.303   8.174  67.488  1.00  0.00     0.000 HD 
HETATM    3  H1  UNL     1      -8.681   8.487  68.541  1.00  0.00     0.000 HD 
HETATM    4  C   UNL     1      -8.276   9.962  67.127  1.00  0.00    -0.121 C  
HETATM    5  O   UNL     1      -7.547  10.311  66.207  1.00  0.00    -0.106 OA 
ENDROOT
BRANCH   4   6
HETATM    6  C   UNL     1      -9.441  10.787  67.624  1.00  0.00    -0.166 C  
BRANCH   6   7
HETATM    7  C   UNL     1      -9.580  12.099  66.883  1.00  0.00    -0.210 A  
HETATM    8  C   UNL     1     -10.332  12.105  65.694  1.00  0.00    -0.289 A  
HETATM    9  C   UNL     1     -10.481  13.268  64.951  1.00  0.00    -0.387 A  
HETATM   10  C   UNL     1      -9.824  14.424  65.353  1.00  0.00    -0.265 A  
HETATM   11  C   UNL     1      -9.011  14.425  66.499  1.00  0.00    -0.191 A  
HETATM   12  C   UNL     1      -8.989  13.295  67.350  1.00  0.00    -0.215 A  
HETATM   13  H2  UNL     1      -7.487  12.572  68.433  1.00  0.00     0.000 HD 
HETATM   14  N   UNL     1      -8.217  13.278  68.532  1.00  0.00    -0.278 NA 
HETATM   15  H1  UNL     1      -7.790  14.141  68.869  1.00  0.00     0.000 HD 
BRANCH  11  16
HETATM   16  C   UNL     1      -8.207  15.654  66.804  1.00  0.00    -0.265 C  
HETATM   17  O   UNL     1      -6.987  15.644  66.685  1.00  0.00    -0.135 OA 
BRANCH  16  18
HETATM   18  C   UNL     1      -8.896  16.893  67.300  1.00  0.00    -0.206 A  
HETATM   19  C   UNL     1      -9.914  17.522  66.564  1.00  0.00    -0.323 A  
HETATM   20  C   UNL     1     -10.655  18.561  67.131  1.00  0.00    -0.439 A  
HETATM   21  C   UNL     1     -10.354  19.010  68.415  1.00  0.00    -0.382 A  
HETATM   22  C   UNL     1      -9.292  18.442  69.120  1.00  0.00    -0.020 A  
HETATM   23  C   UNL     1      -8.559  17.391  68.562  1.00  0.00    -0.270 A  
ENDBRANCH  16  18
ENDBRANCH  11  16
ENDBRANCH   6   7
ENDBRANCH   4   6
TORSDOF 4
ENDMDL
MODEL      201
REMARK 921   NORMALIZED FREE ENERGY PREDICTED BY IDOCK:   -3.48 KCAL/MOL
REMARK 922        TOTAL FREE ENERGY PREDICTED BY IDOCK:   -5.00 KCAL/MOL
REMARK 923 INTER-LIGAND FREE ENERGY PREDICTED BY IDOCK:   -4.13 KCAL/MOL
REMARK 924 INTRA-LIGAND FREE ENERGY PREDICTED BY IDOCK:   -0.87 KCAL/MOL
REMARK 927      BINDING AFFINITY PREDICTED BY RF-SCORE:    0.00 PKD
ROOT
HETATM    1  N   UNL     1     -10.093   5.882  67.655  1.00  0.00    -0.148 N  
HETATM    2  H2  UNL     1     -10.438   5.395  66.828  1.00  0.00     0.000 HD 
HETATM    3  H1  UNL     1     -10.052   6.901  67.658  1.00  0.00     0.000 HD 
HETATM    4  C   UNL     1      -9.690   5.159  68.741  1.00  0.00    -0.154 C  
HETATM    5  O   UNL     1      -9.739   3.936  68.738  1.00  0.00    -0.150 OA 
ENDROOT
BRANCH   4   6
HETATM    6  C   UNL     1      -9.194   5.968  69.917  1.00  0.00    -0.159 C  
BRANCH   6   7
HETATM    7  C   UNL     1      -9.807   7.351  69.969  1.00  0.00    -0.179 A  
HETATM    8  C   UNL     1     -11.046   7.496  70.619  1.00  0.00    -0.280 A  
HETATM    9  C   UNL     1     -11.677   8.730  70.684  1.00  0.00    -0.194 A  
HETATM   10  C   UNL     1     -11.108   9.822  70.040  1.00  0.00    -0.311 A  
HETATM   11  C   UNL     1      -9.906   9.687  69.325  1.00  0.00    -0.195 A  
HETATM   12  C   UNL     1      -9.175   8.478  69.396  1.00  0.00    -0.153 A  
HETATM   13  H2  UNL     1      -8.053   7.610  68.003  1.00  0.00     0.000 HD 
HETATM   14  N   UNL     1      -7.942   8.322  68.725  1.00  0.00    -0.112 NA 
HETATM   15  H1  UNL     1      -7.486   9.135  68.311  1.00  0.00     0.000 HD 
BRANCH  11  16
HETATM   16  C   UNL     1      -9.414  10.857  68.526  1.00  0.00    -0.185 C  
HETATM   17  O   UNL     1      -8.511  11.566  68.955  1.00  0.00    -0.101 OA 
BRANCH  16  18
HETATM   18  C   UNL     1     -10.061  11.190  67.212  1.00  0.00    -0.218 A  
HETATM   19  C   UNL     1      -9.727  10.512  66.027  1.00  0.00    -0.257 A  
HETATM   20  C   UNL     1     -10.470  10.718  64.863  1.00  0.00    -0.324 A  
HETATM   21  C   UNL     1     -11.520  11.636  64.861  1.00  0.00    -0.205 A  
HETATM   22  C   UNL     1     -11.804  12.370  66.013  1.00  0.00    -0.459 A  
HETATM   23  C   UNL     1     -11.072  12.154  67.185  1.00  0.00    -0.345 A  
ENDBRANCH  16  18
ENDBRANCH  11  16
ENDBRANCH   6   7
ENDBRANCH   4   6
TORSDOF 4
ENDMDL
MODEL      202
REMARK 921   NORMALIZED FREE ENERGY PREDICTED BY IDOCK:   -3.43 KCAL/MOL
REMARK 922        TOTAL FREE ENERGY PREDICTED BY IDOCK:   -4.94 KCAL/MOL
REMARK 923 INTER-LIGAND FREE ENERGY PREDICTED BY IDOCK:   -4.33 KCAL/MOL
REMARK 924 INTRA-LIGAND FREE ENERGY PREDICTED BY IDOCK:   -0.61 KCAL/MOL
REMARK 927      BINDING AFFINITY PREDICTED BY RF-SCORE:    0.00 PKD
ROOT
HETATM    1  N   UNL     1      -6.568   3.426  72.634  1.00  0.00    -0.021 N  
HETATM    2  H2  UNL     1      -6.408   2.785  73.410  1.00  0.00     0.000 HD 
HETATM    3  H1  UNL     1      -7.005   3.081  71.779  1.00  0.00     0.000 HD 
HETATM    4  C   UNL     1      -6.195   4.734  72.753  1.00  0.00    -0.026 C  
HETATM    5  O   UNL     1      -5.671   5.149  73.778  1.00  0.00    -0.021 OA 
ENDROOT
BRANCH   4   6
HETATM    6  C   UNL     1      -6.474   5.605  71.550  1.00  0.00    -0.044 C  
BRANCH   6   7
HETATM    7  C   UNL     1      -7.895   5.463  71.049  1.00  0.00    -0.103 A  
HETATM    8  C   UNL     1      -8.084   5.204  69.678  1.00  0.00    -0.089 A  
HETATM    9  C   UNL     1      -9.360   5.086  69.146  1.00  0.00    -0.174 A  
HETATM   10  C   UNL     1     -10.464   5.293  69.963  1.00  0.00    -0.351 A  
HETATM   11  C   UNL     1     -10.300   5.622  71.320  1.00  0.00    -0.289 A  
HETATM   12  C   UNL     1      -9.013   5.578  71.906  1.00  0.00    -0.135 A  
HETATM   13  H2  UNL     1      -8.258   6.711  73.355  1.00  0.00     0.000 HD 
HETATM   14  N   UNL     1      -8.817   5.861  73.276  1.00  0.00    -0.127 NA 
HETATM   15  H1  UNL     1      -9.624   5.944  73.894  1.00  0.00     0.000 HD 
BRANCH  11  16
HETATM   16  C   UNL     1     -11.515   5.981  72.120  1.00  0.00    -0.302 C  
HETATM   17  O   UNL     1     -12.021   5.165  72.882  1.00  0.00    -0.218 OA 
BRANCH  16  18
HETATM   18  C   UNL     1     -12.146   7.336  71.956  1.00  0.00    -0.327 A  
HETATM   19  C   UNL     1     -11.388   8.517  72.001  1.00  0.00    -0.425 A  
HETATM   20  C   UNL     1     -11.970   9.742  71.667  1.00  0.00    -0.454 A  
HETATM   21  C   UNL     1     -13.322   9.801  71.332  1.00  0.00    -0.449 A  
HETATM   22  C   UNL     1     -14.098   8.641  71.364  1.00  0.00    -0.337 A  
HETATM   23  C   UNL     1     -13.514   7.412  71.682  1.00  0.00    -0.437 A  
ENDBRANCH  16  18
ENDBRANCH  11  16
ENDBRANCH   6   7
ENDBRANCH   4   6
TORSDOF 4
ENDMDL
MODEL      203
REMARK 921   NORMALIZED FREE ENERGY PREDICTED BY IDOCK:   -3.40 KCAL/MOL
REMARK 922        TOTAL FREE ENERGY PREDICTED BY IDOCK:   -4.90 KCAL/MOL
REMARK 923 INTER-LIGAND FREE ENERGY PREDICTED BY IDOCK:   -4.12 KCAL/MOL
REMARK 924 INTRA-LIGAND FREE ENERGY PREDICTED BY IDOCK:   -0.78 KCAL/MOL
REMARK 927      BINDING AFFINITY PREDICTED BY RF-SCORE:    0.00 PKD
ROOT
HETATM    1  N   UNL     1     -10.705  11.439  65.547  1.00  0.00    -0.272 N  
HETATM    2  H2  UNL     1     -11.296  11.631  64.737  1.00  0.00     0.000 HD 
HETATM    3  H1  UNL     1      -9.790  11.010  65.410  1.00  0.00     0.000 HD 
HETATM    4  C   UNL     1     -11.152  11.760  66.796  1.00  0.00    -0.306 C  
HETATM    5  O   UNL     1     -12.250  12.275  66.960  1.00  0.00    -0.522 OA 
ENDROOT
BRANCH   4   6
HETATM    6  C   UNL     1     -10.207  11.438  67.930  1.00  0.00    -0.201 C  
BRANCH   6   7
HETATM    7  C   UNL     1      -8.874  12.140  67.792  1.00  0.00    -0.172 A  
HETATM    8  C   UNL     1      -7.802  11.413  67.240  1.00  0.00    -0.149 A  
HETATM    9  C   UNL     1      -6.546  11.987  67.107  1.00  0.00    -0.143 A  
HETATM   10  C   UNL     1      -6.328  13.273  67.584  1.00  0.00    -0.161 A  
HETATM   11  C   UNL     1      -7.365  13.994  68.202  1.00  0.00    -0.128 A  
HETATM   12  C   UNL     1      -8.683  13.483  68.190  1.00  0.00    -0.174 A  
HETATM   13  H2  UNL     1     -10.111  13.672  69.561  1.00  0.00     0.000 HD 
HETATM   14  N   UNL     1      -9.757  14.200  68.763  1.00  0.00    -0.349 NA 
HETATM   15  H1  UNL     1      -9.619  15.170  69.051  1.00  0.00     0.000 HD 
BRANCH  11  16
HETATM   16  C   UNL     1      -7.039  15.315  68.831  1.00  0.00    -0.130 C  
HETATM   17  O   UNL     1      -7.042  15.439  70.051  1.00  0.00    -0.121 OA 
BRANCH  16  18
HETATM   18  C   UNL     1      -6.751  16.507  67.963  1.00  0.00    -0.147 A  
HETATM   19  C   UNL     1      -7.394  16.698  66.729  1.00  0.00    -0.283 A  
HETATM   20  C   UNL     1      -7.241  17.899  66.033  1.00  0.00    -0.325 A  
HETATM   21  C   UNL     1      -6.409  18.896  66.540  1.00  0.00    -0.208 A  
HETATM   22  C   UNL     1      -5.705  18.679  67.725  1.00  0.00    -0.174 A  
HETATM   23  C   UNL     1      -5.869  17.484  68.432  1.00  0.00    -0.160 A  
ENDBRANCH  16  18
ENDBRANCH  11  16
ENDBRANCH   6   7
ENDBRANCH   4   6
TORSDOF 4
ENDMDL
MODEL      204
REMARK 921   NORMALIZED FREE ENERGY PREDICTED BY IDOCK:   -3.37 KCAL/MOL
REMARK 922        TOTAL FREE ENERGY PREDICTED BY IDOCK:   -4.87 KCAL/MOL
REMARK 923 INTER-LIGAND FREE ENERGY PREDICTED BY IDOCK:   -3.89 KCAL/MOL
REMARK 924 INTRA-LIGAND FREE ENERGY PREDICTED BY IDOCK:   -0.98 KCAL/MOL
REMARK 927      BINDING AFFINITY PREDICTED BY RF-SCORE:    0.00 PKD
ROOT
HETATM    1  N   UNL     1      -9.915   4.710  62.830  1.00  0.00    -0.371 N  
HETATM    2  H2  UNL     1     -10.247   5.202  62.000  1.00  0.00     0.000 HD 
HETATM    3  H1  UNL     1     -10.486   3.969  63.236  1.00  0.00     0.000 HD 
HETATM    4  C   UNL     1      -8.713   5.053  63.379  1.00  0.00    -0.078 C  
HETATM    5  O   UNL     1      -8.027   5.942  62.891  1.00  0.00    -0.098 OA 
ENDROOT
BRANCH   4   6
HETATM    6  C   UNL     1      -8.307   4.267  64.604  1.00  0.00    -0.106 C  
BRANCH   6   7
HETATM    7  C   UNL     1      -8.249   5.124  65.850  1.00  0.00    -0.115 A  
HETATM    8  C   UNL     1      -6.987   5.359  66.426  1.00  0.00    -0.064 A  
HETATM    9  C   UNL     1      -6.862   6.116  67.583  1.00  0.00    -0.060 A  
HETATM   10  C   UNL     1      -8.005   6.590  68.215  1.00  0.00    -0.110 A  
HETATM   11  C   UNL     1      -9.281   6.309  67.697  1.00  0.00    -0.111 A  
HETATM   12  C   UNL     1      -9.407   5.685  66.434  1.00  0.00    -0.154 A  
HETATM   13  H2  UNL     1     -10.799   4.416  65.798  1.00  0.00     0.000 HD 
HETATM   14  N   UNL     1     -10.673   5.426  65.863  1.00  0.00    -0.606 NA 
HETATM   15  H1  UNL     1     -11.509   5.832  66.285  1.00  0.00     0.000 HD 
BRANCH  11  16
HETATM   16  C   UNL     1     -10.482   6.715  68.497  1.00  0.00    -0.213 C  
HETATM   17  O   UNL     1     -11.260   5.869  68.922  1.00  0.00    -0.291 OA 
BRANCH  16  18
HETATM   18  C   UNL     1     -10.760   8.171  68.742  1.00  0.00    -0.074 A  
HETATM   19  C   UNL     1     -10.991   8.676  70.032  1.00  0.00    -0.208 A  
HETATM   20  C   UNL     1     -11.066  10.054  70.247  1.00  0.00    -0.381 A  
HETATM   21  C   UNL     1     -10.960  10.933  69.171  1.00  0.00    -0.290 A  
HETATM   22  C   UNL     1     -10.812  10.433  67.876  1.00  0.00    -0.331 A  
HETATM   23  C   UNL     1     -10.719   9.055  67.660  1.00  0.00    -0.232 A  
ENDBRANCH  16  18
ENDBRANCH  11  16
ENDBRANCH   6   7
ENDBRANCH   4   6
TORSDOF 4
ENDMDL
MODEL      205
REMARK 921   NORMALIZED FREE ENERGY PREDICTED BY IDOCK:   -3.37 KCAL/MOL
REMARK 922        TOTAL FREE ENERGY PREDICTED BY IDOCK:   -4.87 KCAL/MOL
REMARK 923 INTER-LIGAND FREE ENERGY PREDICTED BY IDOCK:   -4.35 KCAL/MOL
REMARK 924 INTRA-LIGAND FREE ENERGY PREDICTED BY IDOCK:   -0.52 KCAL/MOL
REMARK 927      BINDING AFFINITY PREDICTED BY RF-SCORE:    0.00 PKD
ROOT
HETATM    1  N   UNL     1      -9.102   7.615  72.131  1.00  0.00    -0.135 N  
HETATM    2  H2  UNL     1      -8.573   6.767  71.930  1.00  0.00     0.000 HD 
HETATM    3  H1  UNL     1      -8.861   8.175  72.949  1.00  0.00     0.000 HD 
HETATM    4  C   UNL     1     -10.123   7.984  71.303  1.00  0.00    -0.185 C  
HETATM    5  O   UNL     1     -10.412   7.312  70.321  1.00  0.00    -0.211 OA 
ENDROOT
BRANCH   4   6
HETATM    6  C   UNL     1     -10.846   9.254  71.684  1.00  0.00    -0.418 C  
BRANCH   6   7
HETATM    7  C   UNL     1     -10.952  10.230  70.531  1.00  0.00    -0.343 A  
HETATM    8  C   UNL     1     -12.198  10.842  70.302  1.00  0.00    -0.432 A  
HETATM    9  C   UNL     1     -12.373  11.728  69.249  1.00  0.00    -0.047 A  
HETATM   10  C   UNL     1     -11.322  11.961  68.370  1.00  0.00    -0.331 A  
HETATM   11  C   UNL     1     -10.089  11.308  68.538  1.00  0.00    -0.210 A  
HETATM   12  C   UNL     1      -9.851  10.537  69.700  1.00  0.00    -0.080 A  
HETATM   13  H2  UNL     1      -8.754   8.892  69.908  1.00  0.00     0.000 HD 
HETATM   14  N   UNL     1      -8.609   9.902  69.921  1.00  0.00    -0.251 NA 
HETATM   15  H1  UNL     1      -7.815  10.124  69.321  1.00  0.00     0.000 HD 
BRANCH  11  16
HETATM   16  C   UNL     1      -9.040  11.479  67.480  1.00  0.00    -0.166 C  
HETATM   17  O   UNL     1      -8.044  12.160  67.697  1.00  0.00    -0.138 OA 
BRANCH  16  18
HETATM   18  C   UNL     1      -9.231  10.850  66.129  1.00  0.00    -0.205 A  
HETATM   19  C   UNL     1      -9.973  11.479  65.116  1.00  0.00    -0.304 A  
HETATM   20  C   UNL     1      -9.981  10.956  63.820  1.00  0.00    -0.408 A  
HETATM   21  C   UNL     1      -9.289   9.780  63.540  1.00  0.00    -0.139 A  
HETATM   22  C   UNL     1      -8.616   9.108  64.562  1.00  0.00    -0.198 A  
HETATM   23  C   UNL     1      -8.593   9.637  65.856  1.00  0.00    -0.146 A  
ENDBRANCH  16  18
ENDBRANCH  11  16
ENDBRANCH   6   7
ENDBRANCH   4   6
TORSDOF 4
ENDMDL
MODEL      206
REMARK 921   NORMALIZED FREE ENERGY PREDICTED BY IDOCK:   -3.36 KCAL/MOL
REMARK 922        TOTAL FREE ENERGY PREDICTED BY IDOCK:   -4.86 KCAL/MOL
REMARK 923 INTER-LIGAND FREE ENERGY PREDICTED BY IDOCK:   -4.17 KCAL/MOL
REMARK 924 INTRA-LIGAND FREE ENERGY PREDICTED BY IDOCK:   -0.68 KCAL/MOL
REMARK 927      BINDING AFFINITY PREDICTED BY RF-SCORE:    0.00 PKD
ROOT
HETATM    1  N   UNL     1      -8.404   2.912  71.731  1.00  0.00    -0.057 N  
HETATM    2  H2  UNL     1      -8.515   1.899  71.790  1.00  0.00     0.000 HD 
HETATM    3  H1  UNL     1      -8.113   3.336  70.850  1.00  0.00     0.000 HD 
HETATM    4  C   UNL     1      -8.648   3.679  72.834  1.00  0.00    -0.094 C  
HETATM    5  O   UNL     1      -8.997   3.171  73.891  1.00  0.00    -0.079 OA 
ENDROOT
BRANCH   4   6
HETATM    6  C   UNL     1      -8.457   5.166  72.649  1.00  0.00    -0.117 C  
BRANCH   6   7
HETATM    7  C   UNL     1      -9.618   5.814  71.926  1.00  0.00    -0.172 A  
HETATM    8  C   UNL     1     -10.859   5.861  72.587  1.00  0.00    -0.290 A  
HETATM    9  C   UNL     1     -11.972   6.419  71.974  1.00  0.00    -0.375 A  
HETATM   10  C   UNL     1     -11.874   6.876  70.666  1.00  0.00    -0.418 A  
HETATM   11  C   UNL     1     -10.663   6.776  69.960  1.00  0.00    -0.287 A  
HETATM   12  C   UNL     1      -9.487   6.366  70.631  1.00  0.00    -0.165 A  
HETATM   13  H2  UNL     1      -7.947   5.320  69.933  1.00  0.00     0.000 HD 
HETATM   14  N   UNL     1      -8.244   6.295  69.964  1.00  0.00    -0.123 NA 
HETATM   15  H1  UNL     1      -8.150   6.693  69.030  1.00  0.00     0.000 HD 
BRANCH  11  16
HETATM   16  C   UNL     1     -10.650   7.145  68.507  1.00  0.00    -0.187 C  
HETATM   17  O   UNL     1     -10.865   6.296  67.649  1.00  0.00    -0.280 OA 
BRANCH  16  18
HETATM   18  C   UNL     1     -10.329   8.554  68.096  1.00  0.00    -0.258 A  
HETATM   19  C   UNL     1     -10.180   8.918  66.747  1.00  0.00    -0.348 A  
HETATM   20  C   UNL     1     -10.061  10.262  66.388  1.00  0.00    -0.296 A  
HETATM   21  C   UNL     1     -10.041  11.246  67.375  1.00  0.00    -0.214 A  
HETATM   22  C   UNL     1     -10.108  10.883  68.721  1.00  0.00    -0.205 A  
HETATM   23  C   UNL     1     -10.244   9.540  69.082  1.00  0.00    -0.209 A  
ENDBRANCH  16  18
ENDBRANCH  11  16
ENDBRANCH   6   7
ENDBRANCH   4   6
TORSDOF 4
ENDMDL
MODEL      207
REMARK 921   NORMALIZED FREE ENERGY PREDICTED BY IDOCK:   -3.32 KCAL/MOL
REMARK 922        TOTAL FREE ENERGY PREDICTED BY IDOCK:   -4.81 KCAL/MOL
REMARK 923 INTER-LIGAND FREE ENERGY PREDICTED BY IDOCK:   -4.37 KCAL/MOL
REMARK 924 INTRA-LIGAND FREE ENERGY PREDICTED BY IDOCK:   -0.44 KCAL/MOL
REMARK 927      BINDING AFFINITY PREDICTED BY RF-SCORE:    0.00 PKD
ROOT
HETATM    1  N   UNL     1     -11.886  13.614  63.187  1.00  0.00    -0.620 N  
HETATM    2  H2  UNL     1     -12.561  14.374  63.101  1.00  0.00     0.000 HD 
HETATM    3  H1  UNL     1     -11.006  13.663  62.674  1.00  0.00     0.000 HD 
HETATM    4  C   UNL     1     -12.174  12.546  63.987  1.00  0.00    -0.480 C  
HETATM    5  O   UNL     1     -13.230  12.487  64.604  1.00  0.00    -0.848 OA 
ENDROOT
BRANCH   4   6
HETATM    6  C   UNL     1     -11.113  11.472  64.050  1.00  0.00    -0.441 C  
BRANCH   6   7
HETATM    7  C   UNL     1     -10.140  11.684  65.189  1.00  0.00    -0.304 A  
HETATM    8  C   UNL     1     -10.456  12.664  66.149  1.00  0.00    -0.278 A  
HETATM    9  C   UNL     1      -9.597  12.928  67.206  1.00  0.00    -0.220 A  
HETATM   10  C   UNL     1      -8.379  12.264  67.280  1.00  0.00    -0.182 A  
HETATM   11  C   UNL     1      -8.010  11.332  66.294  1.00  0.00    -0.086 A  
HETATM   12  C   UNL     1      -8.947  10.936  65.312  1.00  0.00    -0.186 A  
HETATM   13  H2  UNL     1      -8.633  10.421  63.417  1.00  0.00     0.000 HD 
HETATM   14  N   UNL     1      -8.625   9.970  64.333  1.00  0.00    -0.175 NA 
HETATM   15  H1  UNL     1      -7.764   9.430  64.421  1.00  0.00     0.000 HD 
BRANCH  11  16
HETATM   16  C   UNL     1      -6.627  10.756  66.339  1.00  0.00    -0.128 C  
HETATM   17  O   UNL     1      -5.698  11.324  65.774  1.00  0.00    -0.145 OA 
BRANCH  16  18
HETATM   18  C   UNL     1      -6.382   9.450  67.041  1.00  0.00    -0.066 A  
HETATM   19  C   UNL     1      -6.669   9.276  68.405  1.00  0.00    -0.059 A  
HETATM   20  C   UNL     1      -6.601   8.007  68.984  1.00  0.00    -0.048 A  
HETATM   21  C   UNL     1      -6.202   6.913  68.217  1.00  0.00    -0.034 A  
HETATM   22  C   UNL     1      -5.840   7.095  66.882  1.00  0.00    -0.026 A  
HETATM   23  C   UNL     1      -5.922   8.361  66.296  1.00  0.00    -0.045 A  
ENDBRANCH  16  18
ENDBRANCH  11  16
ENDBRANCH   6   7
ENDBRANCH   4   6
TORSDOF 4
ENDMDL
MODEL      208
REMARK 921   NORMALIZED FREE ENERGY PREDICTED BY IDOCK:   -3.32 KCAL/MOL
REMARK 922        TOTAL FREE ENERGY PREDICTED BY IDOCK:   -4.80 KCAL/MOL
REMARK 923 INTER-LIGAND FREE ENERGY PREDICTED BY IDOCK:   -3.81 KCAL/MOL
REMARK 924 INTRA-LIGAND FREE ENERGY PREDICTED BY IDOCK:   -1.00 KCAL/MOL
REMARK 927      BINDING AFFINITY PREDICTED BY RF-SCORE:    0.00 PKD
ROOT
HETATM    1  N   UNL     1      -7.490   3.680  72.638  1.00  0.00    -0.058 N  
HETATM    2  H2  UNL     1      -7.567   2.672  72.776  1.00  0.00     0.000 HD 
HETATM    3  H1  UNL     1      -6.566   4.114  72.613  1.00  0.00     0.000 HD 
HETATM    4  C   UNL     1      -8.622   4.428  72.492  1.00  0.00    -0.109 C  
HETATM    5  O   UNL     1      -9.730   3.907  72.523  1.00  0.00    -0.131 OA 
ENDROOT
BRANCH   4   6
HETATM    6  C   UNL     1      -8.405   5.910  72.293  1.00  0.00    -0.118 C  
BRANCH   6   7
HETATM    7  C   UNL     1      -8.287   6.287  70.832  1.00  0.00    -0.127 A  
HETATM    8  C   UNL     1      -6.995   6.440  70.296  1.00  0.00    -0.063 A  
HETATM    9  C   UNL     1      -6.812   6.808  68.971  1.00  0.00    -0.069 A  
HETATM   10  C   UNL     1      -7.920   7.096  68.183  1.00  0.00    -0.119 A  
HETATM   11  C   UNL     1      -9.219   7.018  68.715  1.00  0.00    -0.132 A  
HETATM   12  C   UNL     1      -9.419   6.483  70.009  1.00  0.00    -0.156 A  
HETATM   13  H2  UNL     1     -10.788   6.970  71.367  1.00  0.00     0.000 HD 
HETATM   14  N   UNL     1     -10.714   6.351  70.560  1.00  0.00    -0.240 NA 
HETATM   15  H1  UNL     1     -11.531   6.492  69.966  1.00  0.00     0.000 HD 
BRANCH  11  16
HETATM   16  C   UNL     1     -10.367   7.481  67.870  1.00  0.00    -0.210 C  
HETATM   17  O   UNL     1     -11.233   6.692  67.512  1.00  0.00    -0.319 OA 
BRANCH  16  18
HETATM   18  C   UNL     1     -10.434   8.913  67.419  1.00  0.00    -0.347 A  
HETATM   19  C   UNL     1     -10.013   9.308  66.138  1.00  0.00    -0.348 A  
HETATM   20  C   UNL     1     -10.254  10.608  65.687  1.00  0.00    -0.319 A  
HETATM   21  C   UNL     1     -10.873  11.533  66.526  1.00  0.00    -0.335 A  
HETATM   22  C   UNL     1     -11.219  11.167  67.828  1.00  0.00    -0.359 A  
HETATM   23  C   UNL     1     -10.994   9.863  68.277  1.00  0.00    -0.248 A  
ENDBRANCH  16  18
ENDBRANCH  11  16
ENDBRANCH   6   7
ENDBRANCH   4   6
TORSDOF 4
ENDMDL
MODEL      209
REMARK 921   NORMALIZED FREE ENERGY PREDICTED BY IDOCK:   -3.32 KCAL/MOL
REMARK 922        TOTAL FREE ENERGY PREDICTED BY IDOCK:   -4.80 KCAL/MOL
REMARK 923 INTER-LIGAND FREE ENERGY PREDICTED BY IDOCK:   -4.32 KCAL/MOL
REMARK 924 INTRA-LIGAND FREE ENERGY PREDICTED BY IDOCK:   -0.48 KCAL/MOL
REMARK 927      BINDING AFFINITY PREDICTED BY RF-SCORE:    0.00 PKD
ROOT
HETATM    1  N   UNL     1      -7.743   5.584  69.671  1.00  0.00    -0.077 N  
HETATM    2  H2  UNL     1      -7.627   4.827  68.997  1.00  0.00     0.000 HD 
HETATM    3  H1  UNL     1      -7.048   6.331  69.712  1.00  0.00     0.000 HD 
HETATM    4  C   UNL     1      -8.824   5.584  70.504  1.00  0.00    -0.136 C  
HETATM    5  O   UNL     1      -9.658   4.688  70.454  1.00  0.00    -0.164 OA 
ENDROOT
BRANCH   4   6
HETATM    6  C   UNL     1      -8.909   6.746  71.465  1.00  0.00    -0.137 C  
BRANCH   6   7
HETATM    7  C   UNL     1      -9.951   7.764  71.055  1.00  0.00    -0.191 A  
HETATM    8  C   UNL     1     -11.139   7.826  71.806  1.00  0.00    -0.287 A  
HETATM    9  C   UNL     1     -12.148   8.718  71.471  1.00  0.00    -0.388 A  
HETATM   10  C   UNL     1     -12.009   9.513  70.340  1.00  0.00    -0.123 A  
HETATM   11  C   UNL     1     -10.861   9.420  69.534  1.00  0.00    -0.231 A  
HETATM   12  C   UNL     1      -9.762   8.639  69.961  1.00  0.00    -0.171 A  
HETATM   13  H2  UNL     1      -8.468   7.596  68.868  1.00  0.00     0.000 HD 
HETATM   14  N   UNL     1      -8.577   8.556  69.197  1.00  0.00    -0.132 NA 
HETATM   15  H1  UNL     1      -8.440   9.187  68.407  1.00  0.00     0.000 HD 
BRANCH  11  16
HETATM   16  C   UNL     1     -10.827  10.188  68.248  1.00  0.00    -0.252 C  
HETATM   17  O   UNL     1     -10.745   9.601  67.175  1.00  0.00    -0.250 OA 
BRANCH  16  18
HETATM   18  C   UNL     1     -10.850  11.691  68.273  1.00  0.00    -0.260 A  
HETATM   19  C   UNL     1     -10.285  12.459  67.242  1.00  0.00    -0.224 A  
HETATM   20  C   UNL     1     -10.480  13.841  67.204  1.00  0.00    -0.272 A  
HETATM   21  C   UNL     1     -11.198  14.471  68.220  1.00  0.00    -0.295 A  
HETATM   22  C   UNL     1     -11.692  13.722  69.289  1.00  0.00    -0.376 A  
HETATM   23  C   UNL     1     -11.513  12.336  69.321  1.00  0.00    -0.352 A  
ENDBRANCH  16  18
ENDBRANCH  11  16
ENDBRANCH   6   7
ENDBRANCH   4   6
TORSDOF 4
ENDMDL
MODEL      210
REMARK 921   NORMALIZED FREE ENERGY PREDICTED BY IDOCK:   -3.30 KCAL/MOL
REMARK 922        TOTAL FREE ENERGY PREDICTED BY IDOCK:   -4.78 KCAL/MOL
REMARK 923 INTER-LIGAND FREE ENERGY PREDICTED BY IDOCK:   -4.09 KCAL/MOL
REMARK 924 INTRA-LIGAND FREE ENERGY PREDICTED BY IDOCK:   -0.69 KCAL/MOL
REMARK 927      BINDING AFFINITY PREDICTED BY RF-SCORE:    0.00 PKD
ROOT
HETATM    1  N   UNL     1      -9.306   5.175  63.440  1.00  0.00    -0.319 N  
HETATM    2  H2  UNL     1      -8.718   5.797  62.884  1.00  0.00     0.000 HD 
HETATM    3  H1  UNL     1     -10.170   4.809  63.039  1.00  0.00     0.000 HD 
HETATM    4  C   UNL     1      -8.926   4.846  64.709  1.00  0.00    -0.125 C  
HETATM    5  O   UNL     1      -7.890   5.285  65.191  1.00  0.00    -0.086 OA 
ENDROOT
BRANCH   4   6
HETATM    6  C   UNL     1      -9.862   3.921  65.452  1.00  0.00    -0.167 C  
BRANCH   6   7
HETATM    7  C   UNL     1      -9.783   4.099  66.952  1.00  0.00    -0.232 A  
HETATM    8  C   UNL     1      -9.333   3.008  67.720  1.00  0.00    -0.251 A  
HETATM    9  C   UNL     1      -9.259   3.093  69.103  1.00  0.00    -0.222 A  
HETATM   10  C   UNL     1      -9.698   4.246  69.741  1.00  0.00    -0.290 A  
HETATM   11  C   UNL     1     -10.217   5.323  69.001  1.00  0.00    -0.269 A  
HETATM   12  C   UNL     1     -10.139   5.310  67.589  1.00  0.00    -0.171 A  
HETATM   13  H2  UNL     1     -11.404   6.073  66.258  1.00  0.00     0.000 HD 
HETATM   14  N   UNL     1     -10.611   6.393  66.815  1.00  0.00    -0.420 NA 
HETATM   15  H1  UNL     1     -10.868   7.267  67.274  1.00  0.00     0.000 HD 
BRANCH  11  16
HETATM   16  C   UNL     1     -10.813   6.480  69.744  1.00  0.00    -0.295 C  
HETATM   17  O   UNL     1     -11.888   6.954  69.396  1.00  0.00     0.018 OA 
BRANCH  16  18
HETATM   18  C   UNL     1     -10.068   7.091  70.897  1.00  0.00    -0.204 A  
HETATM   19  C   UNL     1     -10.403   6.806  72.232  1.00  0.00    -0.219 A  
HETATM   20  C   UNL     1      -9.583   7.245  73.273  1.00  0.00    -0.257 A  
HETATM   21  C   UNL     1      -8.452   8.011  72.993  1.00  0.00    -0.252 A  
HETATM   22  C   UNL     1      -8.160   8.364  71.675  1.00  0.00    -0.184 A  
HETATM   23  C   UNL     1      -8.970   7.913  70.629  1.00  0.00    -0.148 A  
ENDBRANCH  16  18
ENDBRANCH  11  16
ENDBRANCH   6   7
ENDBRANCH   4   6
TORSDOF 4
ENDMDL
MODEL      211
REMARK 921   NORMALIZED FREE ENERGY PREDICTED BY IDOCK:   -3.29 KCAL/MOL
REMARK 922        TOTAL FREE ENERGY PREDICTED BY IDOCK:   -4.77 KCAL/MOL
REMARK 923 INTER-LIGAND FREE ENERGY PREDICTED BY IDOCK:   -3.90 KCAL/MOL
REMARK 924 INTRA-LIGAND FREE ENERGY PREDICTED BY IDOCK:   -0.87 KCAL/MOL
REMARK 927      BINDING AFFINITY PREDICTED BY RF-SCORE:    0.00 PKD
ROOT
HETATM    1  N   UNL     1     -10.990  14.447  69.908  1.00  0.00    -0.451 N  
HETATM    2  H2  UNL     1     -11.737  14.835  70.484  1.00  0.00     0.000 HD 
HETATM    3  H1  UNL     1     -10.620  13.521  70.122  1.00  0.00     0.000 HD 
HETATM    4  C   UNL     1     -10.499  15.177  68.864  1.00  0.00    -0.241 C  
HETATM    5  O   UNL     1     -10.942  16.288  68.607  1.00  0.00    -0.303 OA 
ENDROOT
BRANCH   4   6
HETATM    6  C   UNL     1      -9.394  14.519  68.070  1.00  0.00    -0.201 C  
BRANCH   6   7
HETATM    7  C   UNL     1      -9.812  13.186  67.488  1.00  0.00    -0.216 A  
HETATM    8  C   UNL     1     -10.785  13.190  66.472  1.00  0.00    -0.288 A  
HETATM    9  C   UNL     1     -11.233  12.003  65.910  1.00  0.00    -0.385 A  
HETATM   10  C   UNL     1     -10.763  10.793  66.405  1.00  0.00    -0.228 A  
HETATM   11  C   UNL     1      -9.843  10.761  67.467  1.00  0.00    -0.197 A  
HETATM   12  C   UNL     1      -9.258  11.963  67.929  1.00  0.00    -0.187 A  
HETATM   13  H2  UNL     1      -8.690  12.451  69.771  1.00  0.00     0.000 HD 
HETATM   14  N   UNL     1      -8.298  11.964  68.965  1.00  0.00    -0.362 NA 
HETATM   15  H1  UNL     1      -7.898  11.081  69.283  1.00  0.00     0.000 HD 
BRANCH  11  16
HETATM   16  C   UNL     1      -9.483   9.432  68.060  1.00  0.00    -0.133 C  
HETATM   17  O   UNL     1      -9.991   9.064  69.114  1.00  0.00    -0.175 OA 
BRANCH  16  18
HETATM   18  C   UNL     1      -8.460   8.564  67.384  1.00  0.00    -0.127 A  
HETATM   19  C   UNL     1      -7.290   9.099  66.819  1.00  0.00    -0.086 A  
HETATM   20  C   UNL     1      -6.278   8.252  66.360  1.00  0.00    -0.049 A  
HETATM   21  C   UNL     1      -6.447   6.870  66.420  1.00  0.00    -0.051 A  
HETATM   22  C   UNL     1      -7.641   6.335  66.907  1.00  0.00    -0.099 A  
HETATM   23  C   UNL     1      -8.649   7.179  67.381  1.00  0.00    -0.121 A  
ENDBRANCH  16  18
ENDBRANCH  11  16
ENDBRANCH   6   7
ENDBRANCH   4   6
TORSDOF 4
ENDMDL
MODEL      212
REMARK 921   NORMALIZED FREE ENERGY PREDICTED BY IDOCK:   -3.29 KCAL/MOL
REMARK 922        TOTAL FREE ENERGY PREDICTED BY IDOCK:   -4.76 KCAL/MOL
REMARK 923 INTER-LIGAND FREE ENERGY PREDICTED BY IDOCK:   -4.13 KCAL/MOL
REMARK 924 INTRA-LIGAND FREE ENERGY PREDICTED BY IDOCK:   -0.63 KCAL/MOL
REMARK 927      BINDING AFFINITY PREDICTED BY RF-SCORE:    0.00 PKD
ROOT
HETATM    1  N   UNL     1     -10.963   6.203  71.649  1.00  0.00    -0.257 N  
HETATM    2  H2  UNL     1     -11.608   5.542  71.215  1.00  0.00     0.000 HD 
HETATM    3  H1  UNL     1     -10.016   5.903  71.878  1.00  0.00     0.000 HD 
HETATM    4  C   UNL     1     -11.382   7.475  71.913  1.00  0.00    -0.260 C  
HETATM    5  O   UNL     1     -12.519   7.835  71.638  1.00  0.00    -0.306 OA 
ENDROOT
BRANCH   4   6
HETATM    6  C   UNL     1     -10.356   8.379  72.555  1.00  0.00    -0.371 C  
BRANCH   6   7
HETATM    7  C   UNL     1      -9.277   8.812  71.587  1.00  0.00    -0.333 A  
HETATM    8  C   UNL     1      -7.964   8.361  71.822  1.00  0.00    -0.173 A  
HETATM    9  C   UNL     1      -6.921   8.739  70.988  1.00  0.00    -0.077 A  
HETATM   10  C   UNL     1      -7.166   9.627  69.948  1.00  0.00    -0.106 A  
HETATM   11  C   UNL     1      -8.455  10.145  69.735  1.00  0.00    -0.147 A  
HETATM   12  C   UNL     1      -9.550   9.637  70.472  1.00  0.00    -0.199 A  
HETATM   13  H2  UNL     1     -11.184  10.582  71.098  1.00  0.00     0.000 HD 
HETATM   14  N   UNL     1     -10.865  10.104  70.255  1.00  0.00    -0.300 NA 
HETATM   15  H1  UNL     1     -11.062  10.700  69.450  1.00  0.00     0.000 HD 
BRANCH  11  16
HETATM   16  C   UNL     1      -8.634  11.210  68.696  1.00  0.00    -0.151 C  
HETATM   17  O   UNL     1      -8.332  12.373  68.939  1.00  0.00     0.058 OA 
BRANCH  16  18
HETATM   18  C   UNL     1      -9.228  10.861  67.360  1.00  0.00    -0.155 A  
HETATM   19  C   UNL     1      -9.810  11.833  66.530  1.00  0.00    -0.228 A  
HETATM   20  C   UNL     1     -10.190  11.510  65.225  1.00  0.00    -0.315 A  
HETATM   21  C   UNL     1     -10.035  10.206  64.758  1.00  0.00    -0.334 A  
HETATM   22  C   UNL     1      -9.532   9.218  65.607  1.00  0.00    -0.324 A  
HETATM   23  C   UNL     1      -9.136   9.542  66.908  1.00  0.00    -0.158 A  
ENDBRANCH  16  18
ENDBRANCH  11  16
ENDBRANCH   6   7
ENDBRANCH   4   6
TORSDOF 4
ENDMDL
MODEL      213
REMARK 921   NORMALIZED FREE ENERGY PREDICTED BY IDOCK:   -3.25 KCAL/MOL
REMARK 922        TOTAL FREE ENERGY PREDICTED BY IDOCK:   -4.72 KCAL/MOL
REMARK 923 INTER-LIGAND FREE ENERGY PREDICTED BY IDOCK:   -4.65 KCAL/MOL
REMARK 924 INTRA-LIGAND FREE ENERGY PREDICTED BY IDOCK:   -0.07 KCAL/MOL
REMARK 927      BINDING AFFINITY PREDICTED BY RF-SCORE:    0.00 PKD
ROOT
HETATM    1  N   UNL     1     -13.319   7.657  72.567  1.00  0.00    -0.341 N  
HETATM    2  H2  UNL     1     -13.861   6.803  72.701  1.00  0.00     0.000 HD 
HETATM    3  H1  UNL     1     -13.203   8.305  73.347  1.00  0.00     0.000 HD 
HETATM    4  C   UNL     1     -12.760   7.915  71.349  1.00  0.00    -0.292 C  
HETATM    5  O   UNL     1     -12.899   7.137  70.414  1.00  0.00     0.063 OA 
ENDROOT
BRANCH   4   6
HETATM    6  C   UNL     1     -11.977   9.203  71.250  1.00  0.00    -0.394 C  
BRANCH   6   7
HETATM    7  C   UNL     1     -10.958   9.178  70.131  1.00  0.00    -0.267 A  
HETATM    8  C   UNL     1      -9.811   8.381  70.306  1.00  0.00    -0.188 A  
HETATM    9  C   UNL     1      -8.824   8.330  69.331  1.00  0.00    -0.146 A  
HETATM   10  C   UNL     1      -8.940   9.127  68.199  1.00  0.00    -0.129 A  
HETATM   11  C   UNL     1     -10.042   9.984  68.035  1.00  0.00    -0.197 A  
HETATM   12  C   UNL     1     -11.129   9.916  68.938  1.00  0.00    -0.140 A  
HETATM   13  H2  UNL     1     -12.324  11.375  69.569  1.00  0.00     0.000 HD 
HETATM   14  N   UNL     1     -12.271  10.732  68.779  1.00  0.00    -0.814 NA 
HETATM   15  H1  UNL     1     -12.394  11.265  67.918  1.00  0.00     0.000 HD 
BRANCH  11  16
HETATM   16  C   UNL     1     -10.045  10.930  66.872  1.00  0.00    -0.212 C  
HETATM   17  O   UNL     1     -10.731  11.945  66.898  1.00  0.00    -0.228 OA 
BRANCH  16  18
HETATM   18  C   UNL     1      -9.236  10.610  65.647  1.00  0.00    -0.227 A  
HETATM   19  C   UNL     1      -7.885  10.231  65.727  1.00  0.00    -0.145 A  
HETATM   20  C   UNL     1      -7.214   9.768  64.593  1.00  0.00    -0.131 A  
HETATM   21  C   UNL     1      -7.871   9.727  63.365  1.00  0.00    -0.145 A  
HETATM   22  C   UNL     1      -9.187  10.179  63.264  1.00  0.00    -0.320 A  
HETATM   23  C   UNL     1      -9.867  10.627  64.400  1.00  0.00    -0.395 A  
ENDBRANCH  16  18
ENDBRANCH  11  16
ENDBRANCH   6   7
ENDBRANCH   4   6
TORSDOF 4
ENDMDL
MODEL      214
REMARK 921   NORMALIZED FREE ENERGY PREDICTED BY IDOCK:   -3.22 KCAL/MOL
REMARK 922        TOTAL FREE ENERGY PREDICTED BY IDOCK:   -4.68 KCAL/MOL
REMARK 923 INTER-LIGAND FREE ENERGY PREDICTED BY IDOCK:   -3.80 KCAL/MOL
REMARK 924 INTRA-LIGAND FREE ENERGY PREDICTED BY IDOCK:   -0.88 KCAL/MOL
REMARK 927      BINDING AFFINITY PREDICTED BY RF-SCORE:    0.00 PKD
ROOT
HETATM    1  N   UNL     1      -7.975   4.473  62.362  1.00  0.00    -0.065 N  
HETATM    2  H2  UNL     1      -8.410   4.699  61.467  1.00  0.00     0.000 HD 
HETATM    3  H1  UNL     1      -7.059   4.861  62.588  1.00  0.00     0.000 HD 
HETATM    4  C   UNL     1      -8.628   3.655  63.239  1.00  0.00    -0.091 C  
HETATM    5  O   UNL     1      -9.727   3.190  62.968  1.00  0.00    -0.093 OA 
ENDROOT
BRANCH   4   6
HETATM    6  C   UNL     1      -7.905   3.379  64.536  1.00  0.00    -0.082 C  
BRANCH   6   7
HETATM    7  C   UNL     1      -8.039   4.514  65.528  1.00  0.00    -0.109 A  
HETATM    8  C   UNL     1      -6.872   5.212  65.888  1.00  0.00    -0.061 A  
HETATM    9  C   UNL     1      -6.918   6.248  66.811  1.00  0.00    -0.068 A  
HETATM   10  C   UNL     1      -8.121   6.553  67.436  1.00  0.00    -0.121 A  
HETATM   11  C   UNL     1      -9.286   5.824  67.144  1.00  0.00    -0.116 A  
HETATM   12  C   UNL     1      -9.284   4.884  66.087  1.00  0.00    -0.146 A  
HETATM   13  H2  UNL     1     -10.287   3.174  65.930  1.00  0.00     0.000 HD 
HETATM   14  N   UNL     1     -10.448   4.163  65.739  1.00  0.00    -0.473 NA 
HETATM   15  H1  UNL     1     -11.346   4.431  66.142  1.00  0.00     0.000 HD 
BRANCH  11  16
HETATM   16  C   UNL     1     -10.519   6.094  67.952  1.00  0.00    -0.229 C  
HETATM   17  O   UNL     1     -11.463   6.704  67.462  1.00  0.00    -0.161 OA 
BRANCH  16  18
HETATM   18  C   UNL     1     -10.584   5.654  69.388  1.00  0.00    -0.374 A  
HETATM   19  C   UNL     1      -9.908   4.510  69.844  1.00  0.00    -0.298 A  
HETATM   20  C   UNL     1      -9.840   4.230  71.211  1.00  0.00    -0.257 A  
HETATM   21  C   UNL     1     -10.486   5.061  72.124  1.00  0.00    -0.274 A  
HETATM   22  C   UNL     1     -11.226   6.153  71.669  1.00  0.00    -0.342 A  
HETATM   23  C   UNL     1     -11.282   6.446  70.303  1.00  0.00    -0.445 A  
ENDBRANCH  16  18
ENDBRANCH  11  16
ENDBRANCH   6   7
ENDBRANCH   4   6
TORSDOF 4
ENDMDL
MODEL      215
REMARK 921   NORMALIZED FREE ENERGY PREDICTED BY IDOCK:   -3.17 KCAL/MOL
REMARK 922        TOTAL FREE ENERGY PREDICTED BY IDOCK:   -4.62 KCAL/MOL
REMARK 923 INTER-LIGAND FREE ENERGY PREDICTED BY IDOCK:   -4.10 KCAL/MOL
REMARK 924 INTRA-LIGAND FREE ENERGY PREDICTED BY IDOCK:   -0.53 KCAL/MOL
REMARK 927      BINDING AFFINITY PREDICTED BY RF-SCORE:    0.00 PKD
ROOT
HETATM    1  N   UNL     1     -12.928  14.324  66.103  1.00  0.00    -0.338 N  
HETATM    2  H2  UNL     1     -13.612  14.281  65.347  1.00  0.00     0.000 HD 
HETATM    3  H1  UNL     1     -12.765  15.209  66.584  1.00  0.00     0.000 HD 
HETATM    4  C   UNL     1     -12.245  13.195  66.457  1.00  0.00    -0.291 C  
HETATM    5  O   UNL     1     -12.441  12.133  65.880  1.00  0.00    -0.453 OA 
ENDROOT
BRANCH   4   6
HETATM    6  C   UNL     1     -11.256  13.359  67.587  1.00  0.00    -0.302 C  
BRANCH   6   7
HETATM    7  C   UNL     1     -10.859  12.036  68.206  1.00  0.00    -0.263 A  
HETATM    8  C   UNL     1     -11.474  11.669  69.418  1.00  0.00    -0.372 A  
HETATM    9  C   UNL     1     -11.141  10.481  70.054  1.00  0.00    -0.376 A  
HETATM   10  C   UNL     1     -10.140   9.678  69.522  1.00  0.00    -0.223 A  
HETATM   11  C   UNL     1      -9.462  10.058  68.350  1.00  0.00    -0.146 A  
HETATM   12  C   UNL     1      -9.910  11.177  67.608  1.00  0.00    -0.174 A  
HETATM   13  H2  UNL     1      -8.850  12.476  66.540  1.00  0.00     0.000 HD 
HETATM   14  N   UNL     1      -9.280  11.562  66.404  1.00  0.00    -0.203 NA 
HETATM   15  H1  UNL     1      -8.595  10.941  65.972  1.00  0.00     0.000 HD 
BRANCH  11  16
HETATM   16  C   UNL     1      -8.293   9.235  67.902  1.00  0.00    -0.116 C  
HETATM   17  O   UNL     1      -7.160   9.704  67.917  1.00  0.00    -0.079 OA 
BRANCH  16  18
HETATM   18  C   UNL     1      -8.513   7.840  67.387  1.00  0.00    -0.119 A  
HETATM   19  C   UNL     1      -9.639   7.083  67.754  1.00  0.00    -0.138 A  
HETATM   20  C   UNL     1      -9.907   5.867  67.122  1.00  0.00    -0.162 A  
HETATM   21  C   UNL     1      -9.030   5.377  66.156  1.00  0.00    -0.142 A  
HETATM   22  C   UNL     1      -7.869   6.087  65.845  1.00  0.00    -0.106 A  
HETATM   23  C   UNL     1      -7.606   7.312  66.464  1.00  0.00    -0.092 A  
ENDBRANCH  16  18
ENDBRANCH  11  16
ENDBRANCH   6   7
ENDBRANCH   4   6
TORSDOF 4
ENDMDL
MODEL      216
REMARK 921   NORMALIZED FREE ENERGY PREDICTED BY IDOCK:   -3.17 KCAL/MOL
REMARK 922        TOTAL FREE ENERGY PREDICTED BY IDOCK:   -4.62 KCAL/MOL
REMARK 923 INTER-LIGAND FREE ENERGY PREDICTED BY IDOCK:   -4.33 KCAL/MOL
REMARK 924 INTRA-LIGAND FREE ENERGY PREDICTED BY IDOCK:   -0.29 KCAL/MOL
REMARK 927      BINDING AFFINITY PREDICTED BY RF-SCORE:    0.00 PKD
ROOT
HETATM    1  N   UNL     1     -10.048  12.358  63.772  1.00  0.00    -0.550 N  
HETATM    2  H2  UNL     1     -10.637  13.048  63.305  1.00  0.00     0.000 HD 
HETATM    3  H1  UNL     1      -9.082  12.234  63.467  1.00  0.00     0.000 HD 
HETATM    4  C   UNL     1     -10.563  11.615  64.794  1.00  0.00    -0.304 C  
HETATM    5  O   UNL     1     -11.722  11.764  65.160  1.00  0.00    -0.230 OA 
ENDROOT
BRANCH   4   6
HETATM    6  C   UNL     1      -9.614  10.621  65.422  1.00  0.00    -0.282 C  
BRANCH   6   7
HETATM    7  C   UNL     1      -9.906  10.388  66.889  1.00  0.00    -0.236 A  
HETATM    8  C   UNL     1      -9.733  11.470  67.772  1.00  0.00    -0.180 A  
HETATM    9  C   UNL     1      -9.958  11.321  69.133  1.00  0.00    -0.058 A  
HETATM   10  C   UNL     1     -10.294  10.071  69.637  1.00  0.00    -0.274 A  
HETATM   11  C   UNL     1     -10.405   8.959  68.784  1.00  0.00    -0.232 A  
HETATM   12  C   UNL     1     -10.342   9.138  67.382  1.00  0.00    -0.264 A  
HETATM   13  H2  UNL     1      -9.612   7.914  65.996  1.00  0.00     0.000 HD 
HETATM   14  N   UNL     1     -10.492   8.050  66.493  1.00  0.00    -0.430 NA 
HETATM   15  H1  UNL     1     -10.807   7.148  66.849  1.00  0.00     0.000 HD 
BRANCH  11  16
HETATM   16  C   UNL     1     -10.622   7.608  69.395  1.00  0.00    -0.215 C  
HETATM   17  O   UNL     1     -11.535   7.426  70.193  1.00  0.00    -0.232 OA 
BRANCH  16  18
HETATM   18  C   UNL     1      -9.689   6.478  69.063  1.00  0.00    -0.140 A  
HETATM   19  C   UNL     1      -8.321   6.529  69.378  1.00  0.00    -0.123 A  
HETATM   20  C   UNL     1      -7.518   5.397  69.221  1.00  0.00    -0.073 A  
HETATM   21  C   UNL     1      -8.065   4.223  68.705  1.00  0.00    -0.077 A  
HETATM   22  C   UNL     1      -9.405   4.192  68.315  1.00  0.00    -0.214 A  
HETATM   23  C   UNL     1     -10.214   5.319  68.487  1.00  0.00    -0.214 A  
ENDBRANCH  16  18
ENDBRANCH  11  16
ENDBRANCH   6   7
ENDBRANCH   4   6
TORSDOF 4
ENDMDL
MODEL      217
REMARK 921   NORMALIZED FREE ENERGY PREDICTED BY IDOCK:   -3.17 KCAL/MOL
REMARK 922        TOTAL FREE ENERGY PREDICTED BY IDOCK:   -4.62 KCAL/MOL
REMARK 923 INTER-LIGAND FREE ENERGY PREDICTED BY IDOCK:   -3.74 KCAL/MOL
REMARK 924 INTRA-LIGAND FREE ENERGY PREDICTED BY IDOCK:   -0.88 KCAL/MOL
REMARK 927      BINDING AFFINITY PREDICTED BY RF-SCORE:    0.00 PKD
ROOT
HETATM    1  N   UNL     1     -10.328   2.852  62.591  1.00  0.00    -0.117 N  
HETATM    2  H2  UNL     1     -10.266   3.052  61.592  1.00  0.00     0.000 HD 
HETATM    3  H1  UNL     1     -11.214   2.992  63.077  1.00  0.00     0.000 HD 
HETATM    4  C   UNL     1      -9.225   2.400  63.256  1.00  0.00    -0.092 C  
HETATM    5  O   UNL     1      -8.162   2.231  62.672  1.00  0.00    -0.067 OA 
ENDROOT
BRANCH   4   6
HETATM    6  C   UNL     1      -9.416   2.131  64.730  1.00  0.00    -0.065 C  
BRANCH   6   7
HETATM    7  C   UNL     1      -8.985   3.298  65.593  1.00  0.00    -0.144 A  
HETATM    8  C   UNL     1      -7.727   3.223  66.218  1.00  0.00    -0.078 A  
HETATM    9  C   UNL     1      -7.278   4.245  67.042  1.00  0.00    -0.068 A  
HETATM   10  C   UNL     1      -8.112   5.325  67.306  1.00  0.00    -0.101 A  
HETATM   11  C   UNL     1      -9.401   5.390  66.749  1.00  0.00    -0.136 A  
HETATM   12  C   UNL     1      -9.798   4.439  65.779  1.00  0.00    -0.225 A  
HETATM   13  H2  UNL     1     -11.601   3.673  65.443  1.00  0.00     0.000 HD 
HETATM   14  N   UNL     1     -11.069   4.499  65.167  1.00  0.00    -0.934 NA 
HETATM   15  H1  UNL     1     -11.656   5.323  65.301  1.00  0.00     0.000 HD 
BRANCH  11  16
HETATM   16  C   UNL     1     -10.312   6.498  67.182  1.00  0.00    -0.247 C  
HETATM   17  O   UNL     1     -11.227   6.279  67.968  1.00  0.00    -0.323 OA 
BRANCH  16  18
HETATM   18  C   UNL     1     -10.131   7.879  66.617  1.00  0.00    -0.310 A  
HETATM   19  C   UNL     1     -10.876   8.975  67.085  1.00  0.00    -0.079 A  
HETATM   20  C   UNL     1     -10.560  10.270  66.670  1.00  0.00    -0.232 A  
HETATM   21  C   UNL     1      -9.533  10.475  65.750  1.00  0.00    -0.249 A  
HETATM   22  C   UNL     1      -8.844   9.382  65.221  1.00  0.00    -0.227 A  
HETATM   23  C   UNL     1      -9.147   8.086  65.648  1.00  0.00    -0.049 A  
ENDBRANCH  16  18
ENDBRANCH  11  16
ENDBRANCH   6   7
ENDBRANCH   4   6
TORSDOF 4
ENDMDL
MODEL      218
REMARK 921   NORMALIZED FREE ENERGY PREDICTED BY IDOCK:   -3.08 KCAL/MOL
REMARK 922        TOTAL FREE ENERGY PREDICTED BY IDOCK:   -4.51 KCAL/MOL
REMARK 923 INTER-LIGAND FREE ENERGY PREDICTED BY IDOCK:   -3.93 KCAL/MOL
REMARK 924 INTRA-LIGAND FREE ENERGY PREDICTED BY IDOCK:   -0.57 KCAL/MOL
REMARK 927      BINDING AFFINITY PREDICTED BY RF-SCORE:    0.00 PKD
ROOT
HETATM    1  N   UNL     1      -8.760  10.232  69.628  1.00  0.00    -0.340 N  
HETATM    2  H2  UNL     1      -7.806  10.549  69.452  1.00  0.00     0.000 HD 
HETATM    3  H1  UNL     1      -9.187  10.406  70.538  1.00  0.00     0.000 HD 
HETATM    4  C   UNL     1      -9.445   9.579  68.644  1.00  0.00    -0.142 C  
HETATM    5  O   UNL     1      -8.932   9.370  67.552  1.00  0.00    -0.122 OA 
ENDROOT
BRANCH   4   6
HETATM    6  C   UNL     1     -10.848   9.149  69.000  1.00  0.00    -0.115 C  
BRANCH   6   7
HETATM    7  C   UNL     1     -10.926   8.488  70.359  1.00  0.00    -0.254 A  
HETATM    8  C   UNL     1     -11.905   8.948  71.258  1.00  0.00    -0.371 A  
HETATM    9  C   UNL     1     -12.017   8.404  72.529  1.00  0.00    -0.418 A  
HETATM   10  C   UNL     1     -11.107   7.439  72.942  1.00  0.00    -0.397 A  
HETATM   11  C   UNL     1     -10.076   7.013  72.086  1.00  0.00    -0.198 A  
HETATM   12  C   UNL     1     -10.058   7.438  70.737  1.00  0.00    -0.189 A  
HETATM   13  H2  UNL     1      -8.498   7.799  69.559  1.00  0.00     0.000 HD 
HETATM   14  N   UNL     1      -9.062   6.996  69.839  1.00  0.00    -0.142 NA 
HETATM   15  H1  UNL     1      -8.436   6.238  70.112  1.00  0.00     0.000 HD 
BRANCH  11  16
HETATM   16  C   UNL     1      -9.034   6.083  72.631  1.00  0.00    -0.127 C  
HETATM   17  O   UNL     1      -7.880   6.465  72.786  1.00  0.00    -0.103 OA 
BRANCH  16  18
HETATM   18  C   UNL     1      -9.395   4.659  72.947  1.00  0.00    -0.144 A  
HETATM   19  C   UNL     1      -9.292   4.139  74.249  1.00  0.00    -0.120 A  
HETATM   20  C   UNL     1      -9.802   2.873  74.544  1.00  0.00    -0.156 A  
HETATM   21  C   UNL     1     -10.374   2.100  73.535  1.00  0.00    -0.200 A  
HETATM   22  C   UNL     1     -10.406   2.580  72.225  1.00  0.00    -0.145 A  
HETATM   23  C   UNL     1      -9.911   3.853  71.929  1.00  0.00    -0.248 A  
ENDBRANCH  16  18
ENDBRANCH  11  16
ENDBRANCH   6   7
ENDBRANCH   4   6
TORSDOF 4
ENDMDL
MODEL      219
REMARK 921   NORMALIZED FREE ENERGY PREDICTED BY IDOCK:   -3.08 KCAL/MOL
REMARK 922        TOTAL FREE ENERGY PREDICTED BY IDOCK:   -4.51 KCAL/MOL
REMARK 923 INTER-LIGAND FREE ENERGY PREDICTED BY IDOCK:   -3.68 KCAL/MOL
REMARK 924 INTRA-LIGAND FREE ENERGY PREDICTED BY IDOCK:   -0.82 KCAL/MOL
REMARK 927      BINDING AFFINITY PREDICTED BY RF-SCORE:    0.00 PKD
ROOT
HETATM    1  N   UNL     1      -8.151   3.308  72.326  1.00  0.00    -0.063 N  
HETATM    2  H2  UNL     1      -8.330   2.612  73.049  1.00  0.00     0.000 HD 
HETATM    3  H1  UNL     1      -7.883   3.003  71.390  1.00  0.00     0.000 HD 
HETATM    4  C   UNL     1      -8.275   4.635  72.624  1.00  0.00    -0.107 C  
HETATM    5  O   UNL     1      -8.597   5.001  73.747  1.00  0.00    -0.108 OA 
ENDROOT
BRANCH   4   6
HETATM    6  C   UNL     1      -7.990   5.589  71.488  1.00  0.00    -0.116 C  
BRANCH   6   7
HETATM    7  C   UNL     1      -9.238   6.281  70.985  1.00  0.00    -0.160 A  
HETATM    8  C   UNL     1     -10.392   5.498  70.796  1.00  0.00    -0.321 A  
HETATM    9  C   UNL     1     -11.564   6.062  70.314  1.00  0.00    -0.110 A  
HETATM   10  C   UNL     1     -11.578   7.403  69.951  1.00  0.00     0.053 A  
HETATM   11  C   UNL     1     -10.419   8.190  70.066  1.00  0.00    -0.231 A  
HETATM   12  C   UNL     1      -9.274   7.667  70.711  1.00  0.00    -0.157 A  
HETATM   13  H2  UNL     1      -7.354   8.023  70.335  1.00  0.00     0.000 HD 
HETATM   14  N   UNL     1      -8.106   8.443  70.881  1.00  0.00    -0.100 NA 
HETATM   15  H1  UNL     1      -8.132   9.444  70.683  1.00  0.00     0.000 HD 
BRANCH  11  16
HETATM   16  C   UNL     1     -10.447   9.587  69.523  1.00  0.00    -0.220 C  
HETATM   17  O   UNL     1     -10.562  10.545  70.279  1.00  0.00    -0.212 OA 
BRANCH  16  18
HETATM   18  C   UNL     1     -10.378   9.814  68.039  1.00  0.00    -0.250 A  
HETATM   19  C   UNL     1     -10.900  10.973  67.441  1.00  0.00    -0.327 A  
HETATM   20  C   UNL     1     -10.662  11.238  66.091  1.00  0.00    -0.307 A  
HETATM   21  C   UNL     1      -9.943  10.326  65.319  1.00  0.00    -0.387 A  
HETATM   22  C   UNL     1      -9.491   9.136  65.890  1.00  0.00    -0.326 A  
HETATM   23  C   UNL     1      -9.714   8.875  67.245  1.00  0.00    -0.235 A  
ENDBRANCH  16  18
ENDBRANCH  11  16
ENDBRANCH   6   7
ENDBRANCH   4   6
TORSDOF 4
ENDMDL
MODEL      220
REMARK 921   NORMALIZED FREE ENERGY PREDICTED BY IDOCK:   -3.05 KCAL/MOL
REMARK 922        TOTAL FREE ENERGY PREDICTED BY IDOCK:   -4.48 KCAL/MOL
REMARK 923 INTER-LIGAND FREE ENERGY PREDICTED BY IDOCK:   -3.79 KCAL/MOL
REMARK 924 INTRA-LIGAND FREE ENERGY PREDICTED BY IDOCK:   -0.69 KCAL/MOL
REMARK 927      BINDING AFFINITY PREDICTED BY RF-SCORE:    0.00 PKD
ROOT
HETATM    1  N   UNL     1      -7.742  11.214  62.627  1.00  0.00    -0.404 N  
HETATM    2  H2  UNL     1      -8.147  11.550  61.753  1.00  0.00     0.000 HD 
HETATM    3  H1  UNL     1      -6.775  11.445  62.854  1.00  0.00     0.000 HD 
HETATM    4  C   UNL     1      -8.503  10.461  63.475  1.00  0.00    -0.171 C  
HETATM    5  O   UNL     1      -9.663  10.184  63.202  1.00  0.00    -0.261 OA 
ENDROOT
BRANCH   4   6
HETATM    6  C   UNL     1      -7.815  10.011  64.743  1.00  0.00    -0.145 C  
BRANCH   6   7
HETATM    7  C   UNL     1      -8.796   9.606  65.822  1.00  0.00    -0.186 A  
HETATM    8  C   UNL     1      -9.312  10.617  66.653  1.00  0.00    -0.189 A  
HETATM    9  C   UNL     1     -10.196  10.314  67.679  1.00  0.00    -0.247 A  
HETATM   10  C   UNL     1     -10.524   8.987  67.928  1.00  0.00    -0.291 A  
HETATM   11  C   UNL     1      -9.968   7.953  67.155  1.00  0.00    -0.298 A  
HETATM   12  C   UNL     1      -9.202   8.265  66.008  1.00  0.00    -0.166 A  
HETATM   13  H2  UNL     1      -7.645   7.294  65.240  1.00  0.00     0.000 HD 
HETATM   14  N   UNL     1      -8.663   7.251  65.184  1.00  0.00    -0.357 NA 
HETATM   15  H1  UNL     1      -8.956   6.283  65.318  1.00  0.00     0.000 HD 
BRANCH  11  16
HETATM   16  C   UNL     1     -10.237   6.535  67.559  1.00  0.00    -0.176 C  
HETATM   17  O   UNL     1     -11.264   5.970  67.200  1.00  0.00    -0.236 OA 
BRANCH  16  18
HETATM   18  C   UNL     1      -9.264   5.813  68.448  1.00  0.00    -0.121 A  
HETATM   19  C   UNL     1      -8.566   6.472  69.474  1.00  0.00    -0.134 A  
HETATM   20  C   UNL     1      -7.809   5.743  70.393  1.00  0.00    -0.104 A  
HETATM   21  C   UNL     1      -7.705   4.358  70.266  1.00  0.00    -0.052 A  
HETATM   22  C   UNL     1      -8.331   3.709  69.201  1.00  0.00    -0.085 A  
HETATM   23  C   UNL     1      -9.102   4.434  68.289  1.00  0.00    -0.165 A  
ENDBRANCH  16  18
ENDBRANCH  11  16
ENDBRANCH   6   7
ENDBRANCH   4   6
TORSDOF 4
ENDMDL
MODEL      221
REMARK 921   NORMALIZED FREE ENERGY PREDICTED BY IDOCK:   -3.05 KCAL/MOL
REMARK 922        TOTAL FREE ENERGY PREDICTED BY IDOCK:   -4.47 KCAL/MOL
REMARK 923 INTER-LIGAND FREE ENERGY PREDICTED BY IDOCK:   -3.50 KCAL/MOL
REMARK 924 INTRA-LIGAND FREE ENERGY PREDICTED BY IDOCK:   -0.97 KCAL/MOL
REMARK 927      BINDING AFFINITY PREDICTED BY RF-SCORE:    0.00 PKD
ROOT
HETATM    1  N   UNL     1      -8.997  12.031  66.183  1.00  0.00    -0.378 N  
HETATM    2  H2  UNL     1      -8.146  12.332  65.708  1.00  0.00     0.000 HD 
HETATM    3  H1  UNL     1      -9.458  12.664  66.836  1.00  0.00     0.000 HD 
HETATM    4  C   UNL     1      -9.501  10.786  65.936  1.00  0.00    -0.197 C  
HETATM    5  O   UNL     1      -8.947  10.026  65.153  1.00  0.00    -0.165 OA 
ENDROOT
BRANCH   4   6
HETATM    6  C   UNL     1     -10.763  10.432  66.687  1.00  0.00    -0.198 C  
BRANCH   6   7
HETATM    7  C   UNL     1     -10.481   9.749  68.007  1.00  0.00    -0.271 A  
HETATM    8  C   UNL     1     -10.163  10.562  69.112  1.00  0.00    -0.241 A  
HETATM    9  C   UNL     1      -9.870  10.001  70.347  1.00  0.00    -0.071 A  
HETATM   10  C   UNL     1      -9.824   8.619  70.476  1.00  0.00    -0.210 A  
HETATM   11  C   UNL     1     -10.069   7.786  69.371  1.00  0.00    -0.195 A  
HETATM   12  C   UNL     1     -10.532   8.345  68.156  1.00  0.00    -0.174 A  
HETATM   13  H2  UNL     1     -10.172   7.758  66.291  1.00  0.00     0.000 HD 
HETATM   14  N   UNL     1     -10.829   7.534  67.038  1.00  0.00    -0.524 NA 
HETATM   15  H1  UNL     1     -10.865   6.520  67.146  1.00  0.00     0.000 HD 
BRANCH  11  16
HETATM   16  C   UNL     1      -9.861   6.310  69.528  1.00  0.00    -0.154 C  
HETATM   17  O   UNL     1     -10.795   5.531  69.377  1.00  0.00    -0.298 OA 
BRANCH  16  18
HETATM   18  C   UNL     1      -8.508   5.783  69.917  1.00  0.00    -0.123 A  
HETATM   19  C   UNL     1      -7.387   5.927  69.082  1.00  0.00    -0.083 A  
HETATM   20  C   UNL     1      -6.114   5.590  69.547  1.00  0.00    -0.021 A  
HETATM   21  C   UNL     1      -5.958   5.062  70.827  1.00  0.00    -0.018 A  
HETATM   22  C   UNL     1      -7.078   4.842  71.630  1.00  0.00    -0.060 A  
HETATM   23  C   UNL     1      -8.352   5.194  71.175  1.00  0.00    -0.121 A  
ENDBRANCH  16  18
ENDBRANCH  11  16
ENDBRANCH   6   7
ENDBRANCH   4   6
TORSDOF 4
ENDMDL
MODEL      222
REMARK 921   NORMALIZED FREE ENERGY PREDICTED BY IDOCK:   -3.05 KCAL/MOL
REMARK 922        TOTAL FREE ENERGY PREDICTED BY IDOCK:   -4.47 KCAL/MOL
REMARK 923 INTER-LIGAND FREE ENERGY PREDICTED BY IDOCK:   -3.89 KCAL/MOL
REMARK 924 INTRA-LIGAND FREE ENERGY PREDICTED BY IDOCK:   -0.58 KCAL/MOL
REMARK 927      BINDING AFFINITY PREDICTED BY RF-SCORE:    0.00 PKD
ROOT
HETATM    1  N   UNL     1     -13.075   6.962  71.724  1.00  0.00    -0.473 N  
HETATM    2  H2  UNL     1     -13.818   7.512  72.154  1.00  0.00     0.000 HD 
HETATM    3  H1  UNL     1     -13.313   6.122  71.194  1.00  0.00     0.000 HD 
HETATM    4  C   UNL     1     -11.776   7.359  71.865  1.00  0.00    -0.288 C  
HETATM    5  O   UNL     1     -11.491   8.366  72.500  1.00  0.00    -0.380 OA 
ENDROOT
BRANCH   4   6
HETATM    6  C   UNL     1     -10.748   6.480  71.192  1.00  0.00    -0.285 C  
BRANCH   6   7
HETATM    7  C   UNL     1     -10.519   6.860  69.745  1.00  0.00    -0.240 A  
HETATM    8  C   UNL     1     -10.614   8.221  69.400  1.00  0.00    -0.203 A  
HETATM    9  C   UNL     1     -10.440   8.637  68.088  1.00  0.00    -0.241 A  
HETATM   10  C   UNL     1     -10.236   7.690  67.092  1.00  0.00    -0.360 A  
HETATM   11  C   UNL     1     -10.207   6.319  67.401  1.00  0.00    -0.223 A  
HETATM   12  C   UNL     1     -10.215   5.900  68.752  1.00  0.00    -0.189 A  
HETATM   13  H2  UNL     1     -11.019   4.267  69.552  1.00  0.00     0.000 HD 
HETATM   14  N   UNL     1     -10.143   4.533  69.101  1.00  0.00    -0.101 NA 
HETATM   15  H1  UNL     1      -9.924   3.841  68.384  1.00  0.00     0.000 HD 
BRANCH  11  16
HETATM   16  C   UNL     1     -10.133   5.334  66.274  1.00  0.00    -0.207 C  
HETATM   17  O   UNL     1     -11.155   4.831  65.820  1.00  0.00    -0.183 OA 
BRANCH  16  18
HETATM   18  C   UNL     1      -8.796   4.924  65.725  1.00  0.00    -0.135 A  
HETATM   19  C   UNL     1      -8.193   3.704  66.074  1.00  0.00    -0.101 A  
HETATM   20  C   UNL     1      -7.042   3.272  65.412  1.00  0.00    -0.062 A  
HETATM   21  C   UNL     1      -6.460   4.074  64.432  1.00  0.00    -0.042 A  
HETATM   22  C   UNL     1      -7.010   5.323  64.138  1.00  0.00    -0.048 A  
HETATM   23  C   UNL     1      -8.171   5.751  64.788  1.00  0.00    -0.135 A  
ENDBRANCH  16  18
ENDBRANCH  11  16
ENDBRANCH   6   7
ENDBRANCH   4   6
TORSDOF 4
ENDMDL
MODEL      223
REMARK 921   NORMALIZED FREE ENERGY PREDICTED BY IDOCK:   -3.00 KCAL/MOL
REMARK 922        TOTAL FREE ENERGY PREDICTED BY IDOCK:   -4.41 KCAL/MOL
REMARK 923 INTER-LIGAND FREE ENERGY PREDICTED BY IDOCK:   -3.44 KCAL/MOL
REMARK 924 INTRA-LIGAND FREE ENERGY PREDICTED BY IDOCK:   -0.97 KCAL/MOL
REMARK 927      BINDING AFFINITY PREDICTED BY RF-SCORE:    0.00 PKD
ROOT
HETATM    1  N   UNL     1      -7.953  15.060  67.076  1.00  0.00    -0.282 N  
HETATM    2  H2  UNL     1      -7.044  15.478  66.875  1.00  0.00     0.000 HD 
HETATM    3  H1  UNL     1      -8.804  15.582  66.864  1.00  0.00     0.000 HD 
HETATM    4  C   UNL     1      -8.013  13.811  67.624  1.00  0.00    -0.174 C  
HETATM    5  O   UNL     1      -6.992  13.185  67.878  1.00  0.00    -0.099 OA 
ENDROOT
BRANCH   4   6
HETATM    6  C   UNL     1      -9.402  13.278  67.885  1.00  0.00    -0.214 C  
BRANCH   6   7
HETATM    7  C   UNL     1      -9.608  11.891  67.317  1.00  0.00    -0.181 A  
HETATM    8  C   UNL     1     -10.073  11.786  65.993  1.00  0.00    -0.263 A  
HETATM    9  C   UNL     1     -10.307  10.546  65.416  1.00  0.00    -0.292 A  
HETATM   10  C   UNL     1     -10.142   9.396  66.178  1.00  0.00    -0.324 A  
HETATM   11  C   UNL     1      -9.745   9.478  67.524  1.00  0.00    -0.194 A  
HETATM   12  C   UNL     1      -9.344  10.722  68.066  1.00  0.00    -0.150 A  
HETATM   13  H2  UNL     1      -9.565  11.409  69.919  1.00  0.00     0.000 HD 
HETATM   14  N   UNL     1      -8.899  10.834  69.402  1.00  0.00    -0.387 NA 
HETATM   15  H1  UNL     1      -8.709   9.990  69.943  1.00  0.00     0.000 HD 
BRANCH  11  16
HETATM   16  C   UNL     1      -9.727   8.222  68.342  1.00  0.00    -0.158 C  
HETATM   17  O   UNL     1     -10.613   8.000  69.160  1.00  0.00    -0.219 OA 
BRANCH  16  18
HETATM   18  C   UNL     1      -8.592   7.248  68.192  1.00  0.00    -0.122 A  
HETATM   19  C   UNL     1      -8.803   5.921  67.781  1.00  0.00    -0.109 A  
HETATM   20  C   UNL     1      -7.718   5.096  67.478  1.00  0.00    -0.092 A  
HETATM   21  C   UNL     1      -6.417   5.574  67.629  1.00  0.00    -0.051 A  
HETATM   22  C   UNL     1      -6.202   6.865  68.113  1.00  0.00    -0.034 A  
HETATM   23  C   UNL     1      -7.286   7.699  68.401  1.00  0.00    -0.095 A  
ENDBRANCH  16  18
ENDBRANCH  11  16
ENDBRANCH   6   7
ENDBRANCH   4   6
TORSDOF 4
ENDMDL
MODEL      224
REMARK 921   NORMALIZED FREE ENERGY PREDICTED BY IDOCK:   -2.99 KCAL/MOL
REMARK 922        TOTAL FREE ENERGY PREDICTED BY IDOCK:   -4.40 KCAL/MOL
REMARK 923 INTER-LIGAND FREE ENERGY PREDICTED BY IDOCK:   -3.50 KCAL/MOL
REMARK 924 INTRA-LIGAND FREE ENERGY PREDICTED BY IDOCK:   -0.90 KCAL/MOL
REMARK 927      BINDING AFFINITY PREDICTED BY RF-SCORE:    0.00 PKD
ROOT
HETATM    1  N   UNL     1     -10.506   5.887  70.006  1.00  0.00    -0.240 N  
HETATM    2  H2  UNL     1     -11.285   6.218  70.576  1.00  0.00     0.000 HD 
HETATM    3  H1  UNL     1     -10.221   6.423  69.186  1.00  0.00     0.000 HD 
HETATM    4  C   UNL     1      -9.862   4.734  70.352  1.00  0.00    -0.239 C  
HETATM    5  O   UNL     1     -10.204   4.091  71.336  1.00  0.00    -0.125 OA 
ENDROOT
BRANCH   4   6
HETATM    6  C   UNL     1      -8.722   4.327  69.448  1.00  0.00    -0.124 C  
BRANCH   6   7
HETATM    7  C   UNL     1      -8.906   4.815  68.027  1.00  0.00    -0.115 A  
HETATM    8  C   UNL     1      -9.628   3.995  67.140  1.00  0.00    -0.231 A  
HETATM    9  C   UNL     1      -9.814   4.369  65.816  1.00  0.00    -0.232 A  
HETATM   10  C   UNL     1      -9.223   5.535  65.346  1.00  0.00    -0.012 A  
HETATM   11  C   UNL     1      -8.439   6.335  66.196  1.00  0.00    -0.138 A  
HETATM   12  C   UNL     1      -8.385   6.050  67.580  1.00  0.00    -0.108 A  
HETATM   13  H2  UNL     1      -6.876   6.301  68.851  1.00  0.00     0.000 HD 
HETATM   14  N   UNL     1      -7.641   6.858  68.470  1.00  0.00    -0.109 NA 
HETATM   15  H1  UNL     1      -7.265   7.749  68.147  1.00  0.00     0.000 HD 
BRANCH  11  16
HETATM   16  C   UNL     1      -7.703   7.499  65.603  1.00  0.00    -0.100 C  
HETATM   17  O   UNL     1      -6.478   7.508  65.570  1.00  0.00    -0.041 OA 
BRANCH  16  18
HETATM   18  C   UNL     1      -8.470   8.683  65.086  1.00  0.00    -0.197 A  
HETATM   19  C   UNL     1      -8.290   9.171  63.780  1.00  0.00    -0.183 A  
HETATM   20  C   UNL     1      -9.141  10.154  63.272  1.00  0.00    -0.293 A  
HETATM   21  C   UNL     1     -10.145  10.689  64.077  1.00  0.00    -0.378 A  
HETATM   22  C   UNL     1     -10.276  10.265  65.400  1.00  0.00    -0.312 A  
HETATM   23  C   UNL     1      -9.436   9.270  65.907  1.00  0.00    -0.325 A  
ENDBRANCH  16  18
ENDBRANCH  11  16
ENDBRANCH   6   7
ENDBRANCH   4   6
TORSDOF 4
ENDMDL
MODEL      225
REMARK 921   NORMALIZED FREE ENERGY PREDICTED BY IDOCK:   -2.98 KCAL/MOL
REMARK 922        TOTAL FREE ENERGY PREDICTED BY IDOCK:   -4.38 KCAL/MOL
REMARK 923 INTER-LIGAND FREE ENERGY PREDICTED BY IDOCK:   -3.47 KCAL/MOL
REMARK 924 INTRA-LIGAND FREE ENERGY PREDICTED BY IDOCK:   -0.91 KCAL/MOL
REMARK 927      BINDING AFFINITY PREDICTED BY RF-SCORE:    0.00 PKD
ROOT
HETATM    1  N   UNL     1     -10.090   7.336  72.265  1.00  0.00    -0.186 N  
HETATM    2  H2  UNL     1      -9.499   7.586  73.058  1.00  0.00     0.000 HD 
HETATM    3  H1  UNL     1     -10.699   6.520  72.330  1.00  0.00     0.000 HD 
HETATM    4  C   UNL     1     -10.054   8.097  71.132  1.00  0.00    -0.184 C  
HETATM    5  O   UNL     1      -9.323   9.076  71.054  1.00  0.00    -0.229 OA 
ENDROOT
BRANCH   4   6
HETATM    6  C   UNL     1     -10.964   7.647  70.013  1.00  0.00    -0.237 C  
BRANCH   6   7
HETATM    7  C   UNL     1     -10.274   7.654  68.666  1.00  0.00    -0.214 A  
HETATM    8  C   UNL     1     -10.475   8.769  67.832  1.00  0.00    -0.275 A  
HETATM    9  C   UNL     1      -9.893   8.831  66.574  1.00  0.00    -0.349 A  
HETATM   10  C   UNL     1      -9.158   7.748  66.107  1.00  0.00    -0.199 A  
HETATM   11  C   UNL     1      -9.002   6.594  66.894  1.00  0.00    -0.131 A  
HETATM   12  C   UNL     1      -9.448   6.591  68.236  1.00  0.00    -0.118 A  
HETATM   13  H2  UNL     1     -10.187   5.086  69.306  1.00  0.00     0.000 HD 
HETATM   14  N   UNL     1      -9.269   5.464  69.069  1.00  0.00    -0.117 NA 
HETATM   15  H1  UNL     1      -8.673   4.697  68.758  1.00  0.00     0.000 HD 
BRANCH  11  16
HETATM   16  C   UNL     1      -8.329   5.401  66.286  1.00  0.00    -0.115 C  
HETATM   17  O   UNL     1      -7.284   4.969  66.759  1.00  0.00    -0.074 OA 
BRANCH  16  18
HETATM   18  C   UNL     1      -8.914   4.755  65.062  1.00  0.00    -0.153 A  
HETATM   19  C   UNL     1     -10.178   4.141  65.079  1.00  0.00    -0.218 A  
HETATM   20  C   UNL     1     -10.769   3.711  63.889  1.00  0.00    -0.266 A  
HETATM   21  C   UNL     1     -10.084   3.848  62.683  1.00  0.00    -0.173 A  
HETATM   22  C   UNL     1      -8.796   4.383  62.672  1.00  0.00    -0.115 A  
HETATM   23  C   UNL     1      -8.208   4.829  63.859  1.00  0.00    -0.119 A  
ENDBRANCH  16  18
ENDBRANCH  11  16
ENDBRANCH   6   7
ENDBRANCH   4   6
TORSDOF 4
ENDMDL
MODEL      226
REMARK 921   NORMALIZED FREE ENERGY PREDICTED BY IDOCK:   -2.91 KCAL/MOL
REMARK 922        TOTAL FREE ENERGY PREDICTED BY IDOCK:   -4.30 KCAL/MOL
REMARK 923 INTER-LIGAND FREE ENERGY PREDICTED BY IDOCK:   -4.07 KCAL/MOL
REMARK 924 INTRA-LIGAND FREE ENERGY PREDICTED BY IDOCK:   -0.22 KCAL/MOL
REMARK 927      BINDING AFFINITY PREDICTED BY RF-SCORE:    0.00 PKD
ROOT
HETATM    1  N   UNL     1     -11.578  13.906  63.765  1.00  0.00    -0.617 N  
HETATM    2  H2  UNL     1     -12.260  14.534  63.338  1.00  0.00     0.000 HD 
HETATM    3  H1  UNL     1     -10.631  13.862  63.388  1.00  0.00     0.000 HD 
HETATM    4  C   UNL     1     -11.947  13.137  64.831  1.00  0.00    -0.388 C  
HETATM    5  O   UNL     1     -13.083  13.190  65.284  1.00  0.00    -0.678 OA 
ENDROOT
BRANCH   4   6
HETATM    6  C   UNL     1     -10.868  12.241  65.394  1.00  0.00    -0.324 C  
BRANCH   6   7
HETATM    7  C   UNL     1     -10.302  12.762  66.697  1.00  0.00    -0.252 A  
HETATM    8  C   UNL     1     -11.145  13.536  67.516  1.00  0.00    -0.293 A  
HETATM    9  C   UNL     1     -10.685  14.066  68.713  1.00  0.00    -0.272 A  
HETATM   10  C   UNL     1      -9.355  13.884  69.074  1.00  0.00     0.179 A  
HETATM   11  C   UNL     1      -8.476  13.174  68.239  1.00  0.00    -0.161 A  
HETATM   12  C   UNL     1      -8.976  12.491  67.105  1.00  0.00    -0.200 A  
HETATM   13  H2  UNL     1      -8.102  12.173  65.348  1.00  0.00     0.000 HD 
HETATM   14  N   UNL     1      -8.129  11.733  66.268  1.00  0.00    -0.382 NA 
HETATM   15  H1  UNL     1      -7.172  11.537  66.563  1.00  0.00     0.000 HD 
BRANCH  11  16
HETATM   16  C   UNL     1      -7.022  13.135  68.601  1.00  0.00    -0.102 C  
HETATM   17  O   UNL     1      -6.248  13.977  68.158  1.00  0.00    -0.105 OA 
BRANCH  16  18
HETATM   18  C   UNL     1      -6.498  12.032  69.476  1.00  0.00    -0.109 A  
HETATM   19  C   UNL     1      -6.653  10.678  69.135  1.00  0.00    -0.061 A  
HETATM   20  C   UNL     1      -6.002   9.686  69.873  1.00  0.00    -0.041 A  
HETATM   21  C   UNL     1      -5.232  10.036  70.981  1.00  0.00    -0.067 A  
HETATM   22  C   UNL     1      -5.141  11.373  71.371  1.00  0.00    -0.063 A  
HETATM   23  C   UNL     1      -5.778  12.369  70.625  1.00  0.00    -0.138 A  
ENDBRANCH  16  18
ENDBRANCH  11  16
ENDBRANCH   6   7
ENDBRANCH   4   6
TORSDOF 4
ENDMDL
MODEL      227
REMARK 921   NORMALIZED FREE ENERGY PREDICTED BY IDOCK:   -2.91 KCAL/MOL
REMARK 922        TOTAL FREE ENERGY PREDICTED BY IDOCK:   -4.29 KCAL/MOL
REMARK 923 INTER-LIGAND FREE ENERGY PREDICTED BY IDOCK:   -3.62 KCAL/MOL
REMARK 924 INTRA-LIGAND FREE ENERGY PREDICTED BY IDOCK:   -0.68 KCAL/MOL
REMARK 927      BINDING AFFINITY PREDICTED BY RF-SCORE:    0.00 PKD
ROOT
HETATM    1  N   UNL     1      -7.770   6.938  73.346  1.00  0.00    -0.090 N  
HETATM    2  H2  UNL     1      -7.088   6.541  73.992  1.00  0.00     0.000 HD 
HETATM    3  H1  UNL     1      -8.529   6.353  72.994  1.00  0.00     0.000 HD 
HETATM    4  C   UNL     1      -7.655   8.243  72.963  1.00  0.00    -0.110 C  
HETATM    5  O   UNL     1      -6.744   8.945  73.384  1.00  0.00    -0.326 OA 
ENDROOT
BRANCH   4   6
HETATM    6  C   UNL     1      -8.712   8.739  72.004  1.00  0.00    -0.160 C  
BRANCH   6   7
HETATM    7  C   UNL     1      -8.300   8.586  70.556  1.00  0.00    -0.137 A  
HETATM    8  C   UNL     1      -6.949   8.809  70.231  1.00  0.00    -0.043 A  
HETATM    9  C   UNL     1      -6.506   8.709  68.920  1.00  0.00    -0.049 A  
HETATM   10  C   UNL     1      -7.422   8.452  67.907  1.00  0.00    -0.098 A  
HETATM   11  C   UNL     1      -8.788   8.295  68.199  1.00  0.00    -0.139 A  
HETATM   12  C   UNL     1      -9.219   8.227  69.544  1.00  0.00    -0.158 A  
HETATM   13  H2  UNL     1     -10.924   8.863  70.346  1.00  0.00     0.000 HD 
HETATM   14  N   UNL     1     -10.578   8.027  69.874  1.00  0.00    -0.240 NA 
HETATM   15  H1  UNL     1     -11.241   7.769  69.143  1.00  0.00     0.000 HD 
BRANCH  11  16
HETATM   16  C   UNL     1      -9.752   8.168  67.057  1.00  0.00    -0.212 C  
HETATM   17  O   UNL     1     -10.107   7.063  66.664  1.00  0.00    -0.200 OA 
BRANCH  16  18
HETATM   18  C   UNL     1     -10.253   9.402  66.361  1.00  0.00    -0.300 A  
HETATM   19  C   UNL     1     -10.975  10.396  67.042  1.00  0.00    -0.222 A  
HETATM   20  C   UNL     1     -11.269  11.609  66.413  1.00  0.00    -0.349 A  
HETATM   21  C   UNL     1     -10.886  11.817  65.089  1.00  0.00    -0.351 A  
HETATM   22  C   UNL     1     -10.240  10.801  64.384  1.00  0.00    -0.432 A  
HETATM   23  C   UNL     1      -9.929   9.593  65.015  1.00  0.00    -0.002 A  
ENDBRANCH  16  18
ENDBRANCH  11  16
ENDBRANCH   6   7
ENDBRANCH   4   6
TORSDOF 4
ENDMDL
MODEL      228
REMARK 921   NORMALIZED FREE ENERGY PREDICTED BY IDOCK:   -2.88 KCAL/MOL
REMARK 922        TOTAL FREE ENERGY PREDICTED BY IDOCK:   -4.27 KCAL/MOL
REMARK 923 INTER-LIGAND FREE ENERGY PREDICTED BY IDOCK:   -3.51 KCAL/MOL
REMARK 924 INTRA-LIGAND FREE ENERGY PREDICTED BY IDOCK:   -0.76 KCAL/MOL
REMARK 927      BINDING AFFINITY PREDICTED BY RF-SCORE:    0.00 PKD
ROOT
HETATM    1  N   UNL     1      -8.766   5.345  64.221  1.00  0.00    -0.326 N  
HETATM    2  H2  UNL     1      -9.430   5.593  63.487  1.00  0.00     0.000 HD 
HETATM    3  H1  UNL     1      -7.823   5.733  64.198  1.00  0.00     0.000 HD 
HETATM    4  C   UNL     1      -9.154   4.497  65.219  1.00  0.00    -0.149 C  
HETATM    5  O   UNL     1     -10.286   4.032  65.247  1.00  0.00    -0.196 OA 
ENDROOT
BRANCH   4   6
HETATM    6  C   UNL     1      -8.102   4.190  66.259  1.00  0.00    -0.098 C  
BRANCH   6   7
HETATM    7  C   UNL     1      -7.857   5.352  67.198  1.00  0.00    -0.101 A  
HETATM    8  C   UNL     1      -6.712   6.140  66.981  1.00  0.00    -0.061 A  
HETATM    9  C   UNL     1      -6.413   7.206  67.817  1.00  0.00    -0.048 A  
HETATM   10  C   UNL     1      -7.218   7.456  68.921  1.00  0.00    -0.089 A  
HETATM   11  C   UNL     1      -8.328   6.639  69.198  1.00  0.00    -0.124 A  
HETATM   12  C   UNL     1      -8.735   5.660  68.262  1.00  0.00    -0.106 A  
HETATM   13  H2  UNL     1      -9.564   3.883  68.589  1.00  0.00     0.000 HD 
HETATM   14  N   UNL     1      -9.870   4.851  68.488  1.00  0.00    -0.154 NA 
HETATM   15  H1  UNL     1     -10.504   5.074  69.256  1.00  0.00     0.000 HD 
BRANCH  11  16
HETATM   16  C   UNL     1      -9.074   6.859  70.480  1.00  0.00    -0.156 C  
HETATM   17  O   UNL     1      -8.908   6.105  71.433  1.00  0.00    -0.138 OA 
BRANCH  16  18
HETATM   18  C   UNL     1     -10.066   7.983  70.585  1.00  0.00    -0.203 A  
HETATM   19  C   UNL     1     -10.707   8.296  71.795  1.00  0.00    -0.332 A  
HETATM   20  C   UNL     1     -11.483   9.453  71.903  1.00  0.00    -0.308 A  
HETATM   21  C   UNL     1     -11.662  10.276  70.793  1.00  0.00    -0.453 A  
HETATM   22  C   UNL     1     -11.093   9.926  69.568  1.00  0.00    -0.255 A  
HETATM   23  C   UNL     1     -10.303   8.778  69.460  1.00  0.00    -0.213 A  
ENDBRANCH  16  18
ENDBRANCH  11  16
ENDBRANCH   6   7
ENDBRANCH   4   6
TORSDOF 4
ENDMDL
MODEL      229
REMARK 921   NORMALIZED FREE ENERGY PREDICTED BY IDOCK:   -2.84 KCAL/MOL
REMARK 922        TOTAL FREE ENERGY PREDICTED BY IDOCK:   -4.21 KCAL/MOL
REMARK 923 INTER-LIGAND FREE ENERGY PREDICTED BY IDOCK:   -3.59 KCAL/MOL
REMARK 924 INTRA-LIGAND FREE ENERGY PREDICTED BY IDOCK:   -0.62 KCAL/MOL
REMARK 927      BINDING AFFINITY PREDICTED BY RF-SCORE:    0.00 PKD
ROOT
HETATM    1  N   UNL     1      -9.484   3.467  72.846  1.00  0.00    -0.109 N  
HETATM    2  H2  UNL     1      -9.864   2.589  72.493  1.00  0.00     0.000 HD 
HETATM    3  H1  UNL     1      -8.477   3.628  72.813  1.00  0.00     0.000 HD 
HETATM    4  C   UNL     1     -10.330   4.409  73.357  1.00  0.00    -0.175 C  
HETATM    5  O   UNL     1     -11.538   4.216  73.396  1.00  0.00    -0.231 OA 
ENDROOT
BRANCH   4   6
HETATM    6  C   UNL     1      -9.673   5.676  73.854  1.00  0.00    -0.162 C  
BRANCH   6   7
HETATM    7  C   UNL     1      -9.958   6.865  72.964  1.00  0.00    -0.212 A  
HETATM    8  C   UNL     1     -11.269   7.376  72.949  1.00  0.00    -0.368 A  
HETATM    9  C   UNL     1     -11.606   8.450  72.138  1.00  0.00    -0.442 A  
HETATM   10  C   UNL     1     -10.653   8.984  71.280  1.00  0.00    -0.378 A  
HETATM   11  C   UNL     1      -9.355   8.447  71.226  1.00  0.00    -0.239 A  
HETATM   12  C   UNL     1      -8.958   7.467  72.166  1.00  0.00    -0.129 A  
HETATM   13  H2  UNL     1      -7.700   5.945  71.932  1.00  0.00     0.000 HD 
HETATM   14  N   UNL     1      -7.649   6.936  72.168  1.00  0.00    -0.092 NA 
HETATM   15  H1  UNL     1      -6.928   7.370  71.592  1.00  0.00     0.000 HD 
BRANCH  11  16
HETATM   16  C   UNL     1      -8.412   8.961  70.181  1.00  0.00    -0.146 C  
HETATM   17  O   UNL     1      -7.786   9.999  70.365  1.00  0.00    -0.216 OA 
BRANCH  16  18
HETATM   18  C   UNL     1      -8.265   8.224  68.879  1.00  0.00    -0.116 A  
HETATM   19  C   UNL     1      -9.335   8.086  67.980  1.00  0.00    -0.146 A  
HETATM   20  C   UNL     1      -9.121   7.556  66.705  1.00  0.00    -0.176 A  
HETATM   21  C   UNL     1      -7.850   7.118  66.338  1.00  0.00    -0.109 A  
HETATM   22  C   UNL     1      -6.801   7.180  67.257  1.00  0.00    -0.073 A  
HETATM   23  C   UNL     1      -7.008   7.725  68.527  1.00  0.00    -0.071 A  
ENDBRANCH  16  18
ENDBRANCH  11  16
ENDBRANCH   6   7
ENDBRANCH   4   6
TORSDOF 4
ENDMDL
MODEL      230
REMARK 921   NORMALIZED FREE ENERGY PREDICTED BY IDOCK:   -2.83 KCAL/MOL
REMARK 922        TOTAL FREE ENERGY PREDICTED BY IDOCK:   -4.19 KCAL/MOL
REMARK 923 INTER-LIGAND FREE ENERGY PREDICTED BY IDOCK:   -3.36 KCAL/MOL
REMARK 924 INTRA-LIGAND FREE ENERGY PREDICTED BY IDOCK:   -0.84 KCAL/MOL
REMARK 927      BINDING AFFINITY PREDICTED BY RF-SCORE:    0.00 PKD
ROOT
HETATM    1  N   UNL     1      -9.182   3.612  72.753  1.00  0.00    -0.105 N  
HETATM    2  H2  UNL     1      -9.354   2.611  72.857  1.00  0.00     0.000 HD 
HETATM    3  H1  UNL     1      -8.413   3.931  72.163  1.00  0.00     0.000 HD 
HETATM    4  C   UNL     1      -9.984   4.503  73.406  1.00  0.00    -0.150 C  
HETATM    5  O   UNL     1     -10.907   4.121  74.113  1.00  0.00    -0.236 OA 
ENDROOT
BRANCH   4   6
HETATM    6  C   UNL     1      -9.650   5.961  73.190  1.00  0.00    -0.148 C  
BRANCH   6   7
HETATM    7  C   UNL     1     -10.029   6.444  71.807  1.00  0.00    -0.195 A  
HETATM    8  C   UNL     1     -11.332   6.172  71.350  1.00  0.00    -0.336 A  
HETATM    9  C   UNL     1     -11.739   6.565  70.083  1.00  0.00    -0.419 A  
HETATM   10  C   UNL     1     -10.827   7.174  69.231  1.00  0.00    -0.204 A  
HETATM   11  C   UNL     1      -9.500   7.394  69.639  1.00  0.00    -0.156 A  
HETATM   12  C   UNL     1      -9.125   7.151  70.981  1.00  0.00    -0.151 A  
HETATM   13  H2  UNL     1      -7.385   6.512  71.699  1.00  0.00     0.000 HD 
HETATM   14  N   UNL     1      -7.812   7.400  71.436  1.00  0.00    -0.094 NA 
HETATM   15  H1  UNL     1      -7.160   7.911  70.840  1.00  0.00     0.000 HD 
BRANCH  11  16
HETATM   16  C   UNL     1      -8.520   7.917  68.632  1.00  0.00    -0.128 C  
HETATM   17  O   UNL     1      -7.567   7.232  68.278  1.00  0.00    -0.112 OA 
BRANCH  16  18
HETATM   18  C   UNL     1      -8.680   9.307  68.084  1.00  0.00    -0.125 A  
HETATM   19  C   UNL     1      -9.309  10.326  68.820  1.00  0.00    -0.166 A  
HETATM   20  C   UNL     1      -9.282  11.645  68.361  1.00  0.00    -0.182 A  
HETATM   21  C   UNL     1      -8.672  11.946  67.145  1.00  0.00    -0.176 A  
HETATM   22  C   UNL     1      -8.117  10.925  66.372  1.00  0.00    -0.164 A  
HETATM   23  C   UNL     1      -8.127   9.606  66.836  1.00  0.00    -0.113 A  
ENDBRANCH  16  18
ENDBRANCH  11  16
ENDBRANCH   6   7
ENDBRANCH   4   6
TORSDOF 4
ENDMDL
MODEL      231
REMARK 921   NORMALIZED FREE ENERGY PREDICTED BY IDOCK:   -2.82 KCAL/MOL
REMARK 922        TOTAL FREE ENERGY PREDICTED BY IDOCK:   -4.19 KCAL/MOL
REMARK 923 INTER-LIGAND FREE ENERGY PREDICTED BY IDOCK:   -3.19 KCAL/MOL
REMARK 924 INTRA-LIGAND FREE ENERGY PREDICTED BY IDOCK:   -1.00 KCAL/MOL
REMARK 927      BINDING AFFINITY PREDICTED BY RF-SCORE:    0.00 PKD
ROOT
HETATM    1  N   UNL     1      -8.294  10.469  68.560  1.00  0.00    -0.122 N  
HETATM    2  H2  UNL     1      -7.406  10.850  68.885  1.00  0.00     0.000 HD 
HETATM    3  H1  UNL     1      -9.021  10.238  69.238  1.00  0.00     0.000 HD 
HETATM    4  C   UNL     1      -8.493  10.273  67.223  1.00  0.00    -0.125 C  
HETATM    5  O   UNL     1      -7.622  10.550  66.409  1.00  0.00    -0.119 OA 
ENDROOT
BRANCH   4   6
HETATM    6  C   UNL     1      -9.840   9.705  66.839  1.00  0.00    -0.257 C  
BRANCH   6   7
HETATM    7  C   UNL     1      -9.894   8.199  66.976  1.00  0.00    -0.299 A  
HETATM    8  C   UNL     1     -10.596   7.664  68.072  1.00  0.00    -0.213 A  
HETATM    9  C   UNL     1     -10.666   6.293  68.273  1.00  0.00    -0.356 A  
HETATM   10  C   UNL     1      -9.978   5.441  67.419  1.00  0.00    -0.198 A  
HETATM   11  C   UNL     1      -9.212   5.955  66.358  1.00  0.00    -0.160 A  
HETATM   12  C   UNL     1      -9.272   7.334  66.048  1.00  0.00    -0.029 A  
HETATM   13  H2  UNL     1      -7.846   8.519  65.329  1.00  0.00     0.000 HD 
HETATM   14  N   UNL     1      -8.549   7.877  64.962  1.00  0.00    -0.362 NA 
HETATM   15  H1  UNL     1      -8.101   7.253  64.292  1.00  0.00     0.000 HD 
BRANCH  11  16
HETATM   16  C   UNL     1      -8.370   5.006  65.559  1.00  0.00    -0.126 C  
HETATM   17  O   UNL     1      -7.157   5.165  65.480  1.00  0.00    -0.064 OA 
BRANCH  16  18
HETATM   18  C   UNL     1      -9.022   3.876  64.812  1.00  0.00    -0.131 A  
HETATM   19  C   UNL     1      -8.589   2.547  64.953  1.00  0.00    -0.100 A  
HETATM   20  C   UNL     1      -9.325   1.503  64.389  1.00  0.00    -0.132 A  
HETATM   21  C   UNL     1     -10.468   1.781  63.642  1.00  0.00    -0.083 A  
HETATM   22  C   UNL     1     -10.857   3.105  63.432  1.00  0.00    -0.209 A  
HETATM   23  C   UNL     1     -10.132   4.152  64.009  1.00  0.00    -0.100 A  
ENDBRANCH  16  18
ENDBRANCH  11  16
ENDBRANCH   6   7
ENDBRANCH   4   6
TORSDOF 4
ENDMDL
MODEL      232
REMARK 921   NORMALIZED FREE ENERGY PREDICTED BY IDOCK:   -2.81 KCAL/MOL
REMARK 922        TOTAL FREE ENERGY PREDICTED BY IDOCK:   -4.18 KCAL/MOL
REMARK 923 INTER-LIGAND FREE ENERGY PREDICTED BY IDOCK:   -3.49 KCAL/MOL
REMARK 924 INTRA-LIGAND FREE ENERGY PREDICTED BY IDOCK:   -0.69 KCAL/MOL
REMARK 927      BINDING AFFINITY PREDICTED BY RF-SCORE:    0.00 PKD
ROOT
HETATM    1  N   UNL     1      -9.278   6.494  73.134  1.00  0.00    -0.128 N  
HETATM    2  H2  UNL     1      -8.524   6.483  73.822  1.00  0.00     0.000 HD 
HETATM    3  H1  UNL     1      -9.751   5.624  72.893  1.00  0.00     0.000 HD 
HETATM    4  C   UNL     1      -9.637   7.675  72.551  1.00  0.00    -0.176 C  
HETATM    5  O   UNL     1      -9.069   8.720  72.840  1.00  0.00    -0.311 OA 
ENDROOT
BRANCH   4   6
HETATM    6  C   UNL     1     -10.763   7.591  71.547  1.00  0.00    -0.242 C  
BRANCH   6   7
HETATM    7  C   UNL     1     -10.368   8.122  70.186  1.00  0.00    -0.215 A  
HETATM    8  C   UNL     1     -11.028   9.272  69.714  1.00  0.00    -0.213 A  
HETATM    9  C   UNL     1     -10.733   9.799  68.464  1.00  0.00    -0.252 A  
HETATM   10  C   UNL     1      -9.823   9.145  67.644  1.00  0.00    -0.217 A  
HETATM   11  C   UNL     1      -9.202   7.956  68.066  1.00  0.00    -0.134 A  
HETATM   12  C   UNL     1      -9.370   7.507  69.397  1.00  0.00    -0.152 A  
HETATM   13  H2  UNL     1      -9.439   5.645  70.091  1.00  0.00     0.000 HD 
HETATM   14  N   UNL     1      -8.727   6.341  69.868  1.00  0.00    -0.139 NA 
HETATM   15  H1  UNL     1      -8.007   5.897  69.298  1.00  0.00     0.000 HD 
BRANCH  11  16
HETATM   16  C   UNL     1      -8.345   7.212  67.088  1.00  0.00    -0.118 C  
HETATM   17  O   UNL     1      -7.156   7.486  66.969  1.00  0.00    -0.079 OA 
BRANCH  16  18
HETATM   18  C   UNL     1      -8.954   6.151  66.214  1.00  0.00    -0.162 A  
HETATM   19  C   UNL     1      -8.237   5.551  65.166  1.00  0.00    -0.141 A  
HETATM   20  C   UNL     1      -8.765   4.448  64.491  1.00  0.00    -0.144 A  
HETATM   21  C   UNL     1     -10.030   3.969  64.826  1.00  0.00    -0.210 A  
HETATM   22  C   UNL     1     -10.780   4.612  65.812  1.00  0.00    -0.195 A  
HETATM   23  C   UNL     1     -10.247   5.706  66.500  1.00  0.00    -0.259 A  
ENDBRANCH  16  18
ENDBRANCH  11  16
ENDBRANCH   6   7
ENDBRANCH   4   6
TORSDOF 4
ENDMDL
MODEL      233
REMARK 921   NORMALIZED FREE ENERGY PREDICTED BY IDOCK:   -2.81 KCAL/MOL
REMARK 922        TOTAL FREE ENERGY PREDICTED BY IDOCK:   -4.17 KCAL/MOL
REMARK 923 INTER-LIGAND FREE ENERGY PREDICTED BY IDOCK:   -3.16 KCAL/MOL
REMARK 924 INTRA-LIGAND FREE ENERGY PREDICTED BY IDOCK:   -1.02 KCAL/MOL
REMARK 927      BINDING AFFINITY PREDICTED BY RF-SCORE:    0.00 PKD
ROOT
HETATM    1  N   UNL     1     -10.182   2.953  63.340  1.00  0.00    -0.153 N  
HETATM    2  H2  UNL     1     -10.671   2.758  62.466  1.00  0.00     0.000 HD 
HETATM    3  H1  UNL     1     -10.710   3.281  64.149  1.00  0.00     0.000 HD 
HETATM    4  C   UNL     1      -8.830   2.772  63.409  1.00  0.00    -0.088 C  
HETATM    5  O   UNL     1      -8.197   2.378  62.439  1.00  0.00    -0.069 OA 
ENDROOT
BRANCH   4   6
HETATM    6  C   UNL     1      -8.197   3.087  64.744  1.00  0.00    -0.086 C  
BRANCH   6   7
HETATM    7  C   UNL     1      -8.282   4.557  65.094  1.00  0.00    -0.112 A  
HETATM    8  C   UNL     1      -7.217   5.388  64.699  1.00  0.00    -0.058 A  
HETATM    9  C   UNL     1      -7.217   6.741  65.007  1.00  0.00    -0.074 A  
HETATM   10  C   UNL     1      -8.250   7.267  65.773  1.00  0.00    -0.135 A  
HETATM   11  C   UNL     1      -9.289   6.443  66.239  1.00  0.00    -0.149 A  
HETATM   12  C   UNL     1      -9.384   5.105  65.789  1.00  0.00    -0.154 A  
HETATM   13  H2  UNL     1     -10.047   3.502  66.760  1.00  0.00     0.000 HD 
HETATM   14  N   UNL     1     -10.438   4.261  66.203  1.00  0.00    -0.413 NA 
HETATM   15  H1  UNL     1     -11.234   4.657  66.705  1.00  0.00     0.000 HD 
BRANCH  11  16
HETATM   16  C   UNL     1     -10.296   7.027  67.183  1.00  0.00    -0.281 C  
HETATM   17  O   UNL     1     -11.495   6.838  67.009  1.00  0.00    -0.209 OA 
BRANCH  16  18
HETATM   18  C   UNL     1      -9.838   7.889  68.326  1.00  0.00    -0.187 A  
HETATM   19  C   UNL     1      -9.027   7.385  69.356  1.00  0.00    -0.139 A  
HETATM   20  C   UNL     1      -8.472   8.248  70.303  1.00  0.00    -0.125 A  
HETATM   21  C   UNL     1      -8.760   9.611  70.255  1.00  0.00    -0.248 A  
HETATM   22  C   UNL     1      -9.629  10.105  69.281  1.00  0.00    -0.239 A  
HETATM   23  C   UNL     1     -10.174   9.245  68.322  1.00  0.00    -0.236 A  
ENDBRANCH  16  18
ENDBRANCH  11  16
ENDBRANCH   6   7
ENDBRANCH   4   6
TORSDOF 4
ENDMDL
MODEL      234
REMARK 921   NORMALIZED FREE ENERGY PREDICTED BY IDOCK:   -2.77 KCAL/MOL
REMARK 922        TOTAL FREE ENERGY PREDICTED BY IDOCK:   -4.13 KCAL/MOL
REMARK 923 INTER-LIGAND FREE ENERGY PREDICTED BY IDOCK:   -4.38 KCAL/MOL
REMARK 924 INTRA-LIGAND FREE ENERGY PREDICTED BY IDOCK:    0.25 KCAL/MOL
REMARK 927      BINDING AFFINITY PREDICTED BY RF-SCORE:    0.00 PKD
ROOT
HETATM    1  N   UNL     1     -13.312   8.155  72.052  1.00  0.00    -0.449 N  
HETATM    2  H2  UNL     1     -14.301   8.069  72.287  1.00  0.00     0.000 HD 
HETATM    3  H1  UNL     1     -12.725   7.321  72.034  1.00  0.00     0.000 HD 
HETATM    4  C   UNL     1     -12.793   9.386  71.767  1.00  0.00    -0.399 C  
HETATM    5  O   UNL     1     -13.497  10.387  71.789  1.00  0.00    -0.347 OA 
ENDROOT
BRANCH   4   6
HETATM    6  C   UNL     1     -11.320   9.412  71.432  1.00  0.00    -0.451 C  
BRANCH   6   7
HETATM    7  C   UNL     1     -11.032  10.153  70.144  1.00  0.00    -0.376 A  
HETATM    8  C   UNL     1     -11.518  11.468  70.020  1.00  0.00    -0.304 A  
HETATM    9  C   UNL     1     -11.311  12.197  68.858  1.00  0.00    -0.335 A  
HETATM   10  C   UNL     1     -10.674  11.597  67.779  1.00  0.00    -0.244 A  
HETATM   11  C   UNL     1     -10.241  10.261  67.853  1.00  0.00    -0.217 A  
HETATM   12  C   UNL     1     -10.298   9.570  69.086  1.00  0.00    -0.207 A  
HETATM   13  H2  UNL     1     -10.626   7.638  69.424  1.00  0.00     0.000 HD 
HETATM   14  N   UNL     1      -9.832   8.241  69.208  1.00  0.00    -0.182 NA 
HETATM   15  H1  UNL     1      -9.303   7.821  68.444  1.00  0.00     0.000 HD 
BRANCH  11  16
HETATM   16  C   UNL     1      -9.696   9.617  66.615  1.00  0.00    -0.209 C  
HETATM   17  O   UNL     1     -10.355   9.601  65.581  1.00  0.00    -0.173 OA 
BRANCH  16  18
HETATM   18  C   UNL     1      -8.352   8.946  66.650  1.00  0.00    -0.111 A  
HETATM   19  C   UNL     1      -8.195   7.584  66.344  1.00  0.00    -0.122 A  
HETATM   20  C   UNL     1      -6.917   7.035  66.210  1.00  0.00    -0.069 A  
HETATM   21  C   UNL     1      -5.792   7.828  66.428  1.00  0.00    -0.040 A  
HETATM   22  C   UNL     1      -5.945   9.161  66.811  1.00  0.00    -0.056 A  
HETATM   23  C   UNL     1      -7.222   9.718  66.930  1.00  0.00    -0.090 A  
ENDBRANCH  16  18
ENDBRANCH  11  16
ENDBRANCH   6   7
ENDBRANCH   4   6
TORSDOF 4
ENDMDL
MODEL      235
REMARK 921   NORMALIZED FREE ENERGY PREDICTED BY IDOCK:   -2.72 KCAL/MOL
REMARK 922        TOTAL FREE ENERGY PREDICTED BY IDOCK:   -4.06 KCAL/MOL
REMARK 923 INTER-LIGAND FREE ENERGY PREDICTED BY IDOCK:   -3.40 KCAL/MOL
REMARK 924 INTRA-LIGAND FREE ENERGY PREDICTED BY IDOCK:   -0.66 KCAL/MOL
REMARK 927      BINDING AFFINITY PREDICTED BY RF-SCORE:    0.00 PKD
ROOT
HETATM    1  N   UNL     1      -5.824   3.041  64.075  1.00  0.00    -0.010 N  
HETATM    2  H2  UNL     1      -5.757   2.993  63.059  1.00  0.00     0.000 HD 
HETATM    3  H1  UNL     1      -5.244   2.426  64.647  1.00  0.00     0.000 HD 
HETATM    4  C   UNL     1      -6.688   3.928  64.651  1.00  0.00    -0.044 C  
HETATM    5  O   UNL     1      -7.383   4.666  63.966  1.00  0.00    -0.056 OA 
ENDROOT
BRANCH   4   6
HETATM    6  C   UNL     1      -6.715   3.925  66.162  1.00  0.00    -0.049 C  
BRANCH   6   7
HETATM    7  C   UNL     1      -7.201   5.239  66.735  1.00  0.00    -0.078 A  
HETATM    8  C   UNL     1      -6.233   6.183  67.126  1.00  0.00    -0.029 A  
HETATM    9  C   UNL     1      -6.607   7.398  67.682  1.00  0.00    -0.061 A  
HETATM   10  C   UNL     1      -7.952   7.657  67.917  1.00  0.00    -0.118 A  
HETATM   11  C   UNL     1      -8.933   6.701  67.600  1.00  0.00    -0.111 A  
HETATM   12  C   UNL     1      -8.575   5.535  66.882  1.00  0.00    -0.110 A  
HETATM   13  H2  UNL     1      -9.342   3.705  67.005  1.00  0.00     0.000 HD 
HETATM   14  N   UNL     1      -9.541   4.574  66.509  1.00  0.00    -0.172 NA 
HETATM   15  H1  UNL     1     -10.533   4.789  66.615  1.00  0.00     0.000 HD 
BRANCH  11  16
HETATM   16  C   UNL     1     -10.350   6.967  68.010  1.00  0.00    -0.193 C  
HETATM   17  O   UNL     1     -11.252   6.941  67.181  1.00  0.00    -0.352 OA 
BRANCH  16  18
HETATM   18  C   UNL     1     -10.662   7.314  69.439  1.00  0.00    -0.236 A  
HETATM   19  C   UNL     1     -10.379   8.582  69.974  1.00  0.00    -0.213 A  
HETATM   20  C   UNL     1     -10.843   8.930  71.244  1.00  0.00    -0.360 A  
HETATM   21  C   UNL     1     -11.549   8.001  72.006  1.00  0.00    -0.369 A  
HETATM   22  C   UNL     1     -11.764   6.714  71.511  1.00  0.00    -0.369 A  
HETATM   23  C   UNL     1     -11.315   6.367  70.233  1.00  0.00    -0.468 A  
ENDBRANCH  16  18
ENDBRANCH  11  16
ENDBRANCH   6   7
ENDBRANCH   4   6
TORSDOF 4
ENDMDL
MODEL      236
REMARK 921   NORMALIZED FREE ENERGY PREDICTED BY IDOCK:   -2.69 KCAL/MOL
REMARK 922        TOTAL FREE ENERGY PREDICTED BY IDOCK:   -4.03 KCAL/MOL
REMARK 923 INTER-LIGAND FREE ENERGY PREDICTED BY IDOCK:   -3.15 KCAL/MOL
REMARK 924 INTRA-LIGAND FREE ENERGY PREDICTED BY IDOCK:   -0.88 KCAL/MOL
REMARK 927      BINDING AFFINITY PREDICTED BY RF-SCORE:    0.00 PKD
ROOT
HETATM    1  N   UNL     1     -10.193   3.611  65.093  1.00  0.00    -0.412 N  
HETATM    2  H2  UNL     1     -10.720   3.281  64.284  1.00  0.00     0.000 HD 
HETATM    3  H1  UNL     1     -10.651   3.664  66.003  1.00  0.00     0.000 HD 
HETATM    4  C   UNL     1      -8.886   3.975  64.940  1.00  0.00    -0.129 C  
HETATM    5  O   UNL     1      -8.337   3.911  63.848  1.00  0.00    -0.090 OA 
ENDROOT
BRANCH   4   6
HETATM    6  C   UNL     1      -8.190   4.449  66.194  1.00  0.00    -0.102 C  
BRANCH   6   7
HETATM    7  C   UNL     1      -8.944   5.561  66.891  1.00  0.00    -0.111 A  
HETATM    8  C   UNL     1      -8.872   6.852  66.335  1.00  0.00    -0.155 A  
HETATM    9  C   UNL     1      -9.519   7.922  66.936  1.00  0.00    -0.243 A  
HETATM   10  C   UNL     1     -10.191   7.729  68.136  1.00  0.00    -0.244 A  
HETATM   11  C   UNL     1     -10.218   6.464  68.747  1.00  0.00    -0.206 A  
HETATM   12  C   UNL     1      -9.707   5.338  68.060  1.00  0.00    -0.141 A  
HETATM   13  H2  UNL     1      -8.802   3.727  68.795  1.00  0.00     0.000 HD 
HETATM   14  N   UNL     1      -9.756   4.044  68.626  1.00  0.00    -0.117 NA 
HETATM   15  H1  UNL     1     -10.307   3.883  69.470  1.00  0.00     0.000 HD 
BRANCH  11  16
HETATM   16  C   UNL     1     -10.827   6.342  70.112  1.00  0.00    -0.313 C  
HETATM   17  O   UNL     1     -11.878   5.732  70.271  1.00  0.00     0.290 OA 
BRANCH  16  18
HETATM   18  C   UNL     1     -10.169   7.009  71.287  1.00  0.00    -0.203 A  
HETATM   19  C   UNL     1     -10.898   7.401  72.422  1.00  0.00    -0.305 A  
HETATM   20  C   UNL     1     -10.234   7.852  73.565  1.00  0.00    -0.080 A  
HETATM   21  C   UNL     1      -8.845   7.960  73.566  1.00  0.00    -0.333 A  
HETATM   22  C   UNL     1      -8.122   7.648  72.413  1.00  0.00    -0.132 A  
HETATM   23  C   UNL     1      -8.782   7.181  71.273  1.00  0.00    -0.128 A  
ENDBRANCH  16  18
ENDBRANCH  11  16
ENDBRANCH   6   7
ENDBRANCH   4   6
TORSDOF 4
ENDMDL
MODEL      237
REMARK 921   NORMALIZED FREE ENERGY PREDICTED BY IDOCK:   -2.49 KCAL/MOL
REMARK 922        TOTAL FREE ENERGY PREDICTED BY IDOCK:   -3.78 KCAL/MOL
REMARK 923 INTER-LIGAND FREE ENERGY PREDICTED BY IDOCK:   -3.69 KCAL/MOL
REMARK 924 INTRA-LIGAND FREE ENERGY PREDICTED BY IDOCK:   -0.09 KCAL/MOL
REMARK 927      BINDING AFFINITY PREDICTED BY RF-SCORE:    0.00 PKD
ROOT
HETATM    1  N   UNL     1      -5.142  15.716  71.050  1.00  0.00    -0.166 N  
HETATM    2  H2  UNL     1      -4.989  16.698  71.278  1.00  0.00     0.000 HD 
HETATM    3  H1  UNL     1      -5.216  15.031  71.803  1.00  0.00     0.000 HD 
HETATM    4  C   UNL     1      -5.244  15.336  69.743  1.00  0.00    -0.097 C  
HETATM    5  O   UNL     1      -5.155  16.157  68.839  1.00  0.00    -0.099 OA 
ENDROOT
BRANCH   4   6
HETATM    6  C   UNL     1      -5.470  13.861  69.507  1.00  0.00    -0.086 C  
BRANCH   6   7
HETATM    7  C   UNL     1      -6.671  13.592  68.627  1.00  0.00    -0.094 A  
HETATM    8  C   UNL     1      -6.524  12.659  67.584  1.00  0.00    -0.146 A  
HETATM    9  C   UNL     1      -7.577  12.381  66.723  1.00  0.00     0.143 A  
HETATM   10  C   UNL     1      -8.769  13.083  66.853  1.00  0.00    -0.158 A  
HETATM   11  C   UNL     1      -8.916  14.069  67.843  1.00  0.00    -0.188 A  
HETATM   12  C   UNL     1      -7.912  14.238  68.826  1.00  0.00    -0.119 A  
HETATM   13  H2  UNL     1      -7.325  15.901  69.743  1.00  0.00     0.000 HD 
HETATM   14  N   UNL     1      -8.047  15.190  69.861  1.00  0.00    -0.337 NA 
HETATM   15  H1  UNL     1      -8.943  15.656  70.004  1.00  0.00     0.000 HD 
BRANCH  11  16
HETATM   16  C   UNL     1     -10.165  14.898  67.845  1.00  0.00    -0.228 C  
HETATM   17  O   UNL     1     -10.431  15.624  66.894  1.00  0.00    -0.295 OA 
BRANCH  16  18
HETATM   18  C   UNL     1     -11.076  14.875  69.040  1.00  0.00    -0.260 A  
HETATM   19  C   UNL     1     -11.324  16.026  69.807  1.00  0.00    -0.331 A  
HETATM   20  C   UNL     1     -12.309  16.015  70.796  1.00  0.00    -0.199 A  
HETATM   21  C   UNL     1     -13.020  14.845  71.058  1.00  0.00    -0.437 A  
HETATM   22  C   UNL     1     -12.722  13.678  70.354  1.00  0.00    -0.210 A  
HETATM   23  C   UNL     1     -11.747  13.689  69.351  1.00  0.00    -0.379 A  
ENDBRANCH  16  18
ENDBRANCH  11  16
ENDBRANCH   6   7
ENDBRANCH   4   6
TORSDOF 4
ENDMDL
MODEL      238
REMARK 921   NORMALIZED FREE ENERGY PREDICTED BY IDOCK:   -2.26 KCAL/MOL
REMARK 922        TOTAL FREE ENERGY PREDICTED BY IDOCK:   -3.49 KCAL/MOL
REMARK 923 INTER-LIGAND FREE ENERGY PREDICTED BY IDOCK:   -3.08 KCAL/MOL
REMARK 924 INTRA-LIGAND FREE ENERGY PREDICTED BY IDOCK:   -0.41 KCAL/MOL
REMARK 927      BINDING AFFINITY PREDICTED BY RF-SCORE:    0.00 PKD
ROOT
HETATM    1  N   UNL     1     -11.074  16.026  72.170  1.00  0.00     0.225 N  
HETATM    2  H2  UNL     1     -10.534  15.785  73.002  1.00  0.00     0.000 HD 
HETATM    3  H1  UNL     1     -11.215  17.008  71.930  1.00  0.00     0.000 HD 
HETATM    4  C   UNL     1     -11.599  15.031  71.397  1.00  0.00    -0.346 C  
HETATM    5  O   UNL     1     -11.431  13.853  71.686  1.00  0.00     0.705 OA 
ENDROOT
BRANCH   4   6
HETATM    6  C   UNL     1     -12.383  15.487  70.189  1.00  0.00    -0.384 C  
BRANCH   6   7
HETATM    7  C   UNL     1     -11.621  15.291  68.896  1.00  0.00    -0.365 A  
HETATM    8  C   UNL     1     -11.352  13.972  68.486  1.00  0.00    -0.308 A  
HETATM    9  C   UNL     1     -10.638  13.719  67.324  1.00  0.00    -0.275 A  
HETATM   10  C   UNL     1     -10.125  14.783  66.592  1.00  0.00    -0.269 A  
HETATM   11  C   UNL     1     -10.320  16.108  67.019  1.00  0.00    -0.290 A  
HETATM   12  C   UNL     1     -11.186  16.378  68.104  1.00  0.00    -0.273 A  
HETATM   13  H2  UNL     1     -11.064  17.814  69.475  1.00  0.00     0.000 HD 
HETATM   14  N   UNL     1     -11.439  17.700  68.533  1.00  0.00     0.354 NA 
HETATM   15  H1  UNL     1     -11.125  18.485  67.961  1.00  0.00     0.000 HD 
BRANCH  11  16
HETATM   16  C   UNL     1      -9.621  17.208  66.278  1.00  0.00    -0.252 C  
HETATM   17  O   UNL     1      -9.981  17.523  65.149  1.00  0.00    -0.023 OA 
BRANCH  16  18
HETATM   18  C   UNL     1      -8.442  17.899  66.903  1.00  0.00    -0.260 A  
HETATM   19  C   UNL     1      -8.590  19.058  67.683  1.00  0.00    -0.317 A  
HETATM   20  C   UNL     1      -7.504  19.571  68.395  1.00  0.00    -0.359 A  
HETATM   21  C   UNL     1      -6.255  18.960  68.296  1.00  0.00    -0.228 A  
HETATM   22  C   UNL     1      -6.086  17.857  67.459  1.00  0.00    -0.166 A  
HETATM   23  C   UNL     1      -7.174  17.330  66.757  1.00  0.00    -0.249 A  
ENDBRANCH  16  18
ENDBRANCH  11  16
ENDBRANCH   6   7
ENDBRANCH   4   6
TORSDOF 4
ENDMDL
MODEL      239
REMARK 921   NORMALIZED FREE ENERGY PREDICTED BY IDOCK:   -2.22 KCAL/MOL
REMARK 922        TOTAL FREE ENERGY PREDICTED BY IDOCK:   -3.45 KCAL/MOL
REMARK 923 INTER-LIGAND FREE ENERGY PREDICTED BY IDOCK:   -2.56 KCAL/MOL
REMARK 924 INTRA-LIGAND FREE ENERGY PREDICTED BY IDOCK:   -0.89 KCAL/MOL
REMARK 927      BINDING AFFINITY PREDICTED BY RF-SCORE:    0.00 PKD
ROOT
HETATM    1  N   UNL     1      -8.771   3.057  71.154  1.00  0.00    -0.067 N  
HETATM    2  H2  UNL     1      -9.114   2.105  71.278  1.00  0.00     0.000 HD 
HETATM    3  H1  UNL     1      -8.204   3.285  70.337  1.00  0.00     0.000 HD 
HETATM    4  C   UNL     1      -9.075   4.008  72.086  1.00  0.00    -0.119 C  
HETATM    5  O   UNL     1      -9.754   3.736  73.067  1.00  0.00    -0.120 OA 
ENDROOT
BRANCH   4   6
HETATM    6  C   UNL     1      -8.521   5.388  71.815  1.00  0.00    -0.127 C  
BRANCH   6   7
HETATM    7  C   UNL     1      -9.189   6.060  70.635  1.00  0.00    -0.161 A  
HETATM    8  C   UNL     1     -10.563   6.349  70.736  1.00  0.00    -0.288 A  
HETATM    9  C   UNL     1     -11.245   6.942  69.683  1.00  0.00    -0.289 A  
HETATM   10  C   UNL     1     -10.577   7.193  68.491  1.00  0.00    -0.219 A  
HETATM   11  C   UNL     1      -9.222   6.849  68.342  1.00  0.00    -0.124 A  
HETATM   12  C   UNL     1      -8.481   6.402  69.461  1.00  0.00    -0.133 A  
HETATM   13  H2  UNL     1      -6.988   5.090  69.530  1.00  0.00     0.000 HD 
HETATM   14  N   UNL     1      -7.108   6.088  69.357  1.00  0.00    -0.064 NA 
HETATM   15  H1  UNL     1      -6.597   6.335  68.509  1.00  0.00     0.000 HD 
BRANCH  11  16
HETATM   16  C   UNL     1      -8.591   7.003  66.991  1.00  0.00    -0.122 C  
HETATM   17  O   UNL     1      -7.913   7.991  66.731  1.00  0.00    -0.100 OA 
BRANCH  16  18
HETATM   18  C   UNL     1      -8.826   5.962  65.933  1.00  0.00    -0.154 A  
HETATM   19  C   UNL     1      -9.534   4.779  66.201  1.00  0.00    -0.164 A  
HETATM   20  C   UNL     1      -9.890   3.919  65.159  1.00  0.00    -0.184 A  
HETATM   21  C   UNL     1      -9.501   4.211  63.853  1.00  0.00    -0.149 A  
HETATM   22  C   UNL     1      -8.728   5.343  63.594  1.00  0.00     0.071 A  
HETATM   23  C   UNL     1      -8.384   6.214  64.632  1.00  0.00    -0.044 A  
ENDBRANCH  16  18
ENDBRANCH  11  16
ENDBRANCH   6   7
ENDBRANCH   4   6
TORSDOF 4
ENDMDL
MODEL      240
REMARK 921   NORMALIZED FREE ENERGY PREDICTED BY IDOCK:   -2.11 KCAL/MOL
REMARK 922        TOTAL FREE ENERGY PREDICTED BY IDOCK:   -3.31 KCAL/MOL
REMARK 923 INTER-LIGAND FREE ENERGY PREDICTED BY IDOCK:   -4.64 KCAL/MOL
REMARK 924 INTRA-LIGAND FREE ENERGY PREDICTED BY IDOCK:    1.33 KCAL/MOL
REMARK 927      BINDING AFFINITY PREDICTED BY RF-SCORE:    0.00 PKD
ROOT
HETATM    1  N   UNL     1     -10.011  11.927  66.556  1.00  0.00    -0.199 N  
HETATM    2  H2  UNL     1     -10.090  10.922  66.400  1.00  0.00     0.000 HD 
HETATM    3  H1  UNL     1      -9.086  12.355  66.612  1.00  0.00     0.000 HD 
HETATM    4  C   UNL     1     -11.143  12.678  66.688  1.00  0.00    -0.274 C  
HETATM    5  O   UNL     1     -12.252  12.164  66.621  1.00  0.00    -0.566 OA 
ENDROOT
BRANCH   4   6
HETATM    6  C   UNL     1     -10.923  14.155  66.917  1.00  0.00    -0.302 C  
BRANCH   6   7
HETATM    7  C   UNL     1      -9.470  14.493  67.173  1.00  0.00    -0.236 A  
HETATM    8  C   UNL     1      -8.557  13.427  67.275  1.00  0.00    -0.216 A  
HETATM    9  C   UNL     1      -7.214  13.662  67.533  1.00  0.00    -0.169 A  
HETATM   10  C   UNL     1      -6.779  14.962  67.759  1.00  0.00    -0.191 A  
HETATM   11  C   UNL     1      -7.685  16.037  67.730  1.00  0.00    -0.154 A  
HETATM   12  C   UNL     1      -9.017  15.825  67.304  1.00  0.00    -0.196 A  
HETATM   13  H2  UNL     1     -10.682  16.729  67.906  1.00  0.00     0.000 HD 
HETATM   14  N   UNL     1      -9.942  16.889  67.223  1.00  0.00    -0.270 NA 
HETATM   15  H1  UNL     1      -9.615  17.851  67.318  1.00  0.00     0.000 HD 
BRANCH  11  16
HETATM   16  C   UNL     1      -7.193  17.396  68.127  1.00  0.00    -0.199 C  
HETATM   17  O   UNL     1      -7.025  17.676  69.308  1.00  0.00    -0.243 OA 
BRANCH  16  18
HETATM   18  C   UNL     1      -6.945  18.438  67.073  1.00  0.00    -0.209 A  
HETATM   19  C   UNL     1      -7.577  19.693  67.107  1.00  0.00    -0.282 A  
HETATM   20  C   UNL     1      -7.192  20.700  66.220  1.00  0.00    -0.166 A  
HETATM   21  C   UNL     1      -6.209  20.448  65.264  1.00  0.00    -0.294 A  
HETATM   22  C   UNL     1      -5.635  19.179  65.175  1.00  0.00    -0.234 A  
HETATM   23  C   UNL     1      -6.007  18.173  66.072  1.00  0.00    -0.243 A  
ENDBRANCH  16  18
ENDBRANCH  11  16
ENDBRANCH   6   7
ENDBRANCH   4   6
TORSDOF 4
ENDMDL
MODEL      241
REMARK 921   NORMALIZED FREE ENERGY PREDICTED BY IDOCK:    0.58 KCAL/MOL
REMARK 922        TOTAL FREE ENERGY PREDICTED BY IDOCK:    0.00 KCAL/MOL
REMARK 923 INTER-LIGAND FREE ENERGY PREDICTED BY IDOCK:   -1.98 KCAL/MOL
REMARK 924 INTRA-LIGAND FREE ENERGY PREDICTED BY IDOCK:    1.99 KCAL/MOL
REMARK 927      BINDING AFFINITY PREDICTED BY RF-SCORE:    0.00 PKD
ROOT
HETATM    1  N   UNL     1     -13.701   6.716  71.436  1.00  0.00     0.058 N  
HETATM    2  H2  UNL     1     -14.485   6.989  70.843  1.00  0.00     0.000 HD 
HETATM    3  H1  UNL     1     -13.855   6.563  72.433  1.00  0.00     0.000 HD 
HETATM    4  C   UNL     1     -12.462   6.562  70.884  1.00  0.00     0.018 C  
HETATM    5  O   UNL     1     -12.277   6.745  69.688  1.00  0.00     0.084 OA 
ENDROOT
BRANCH   4   6
HETATM    6  C   UNL     1     -11.367   6.155  71.842  1.00  0.00    -0.350 C  
BRANCH   6   7
HETATM    7  C   UNL     1      -9.992   6.214  71.211  1.00  0.00    -0.215 A  
HETATM    8  C   UNL     1      -9.024   5.296  71.659  1.00  0.00    -0.148 A  
HETATM    9  C   UNL     1      -7.737   5.310  71.142  1.00  0.00    -0.101 A  
HETATM   10  C   UNL     1      -7.382   6.284  70.218  1.00  0.00    -0.089 A  
HETATM   11  C   UNL     1      -8.311   7.255  69.806  1.00  0.00    -0.135 A  
HETATM   12  C   UNL     1      -9.666   7.146  70.200  1.00  0.00    -0.171 A  
HETATM   13  H2  UNL     1     -10.978   8.590  70.584  1.00  0.00     0.000 HD 
HETATM   14  N   UNL     1     -10.635   8.079  69.770  1.00  0.00    -0.238 NA 
HETATM   15  H1  UNL     1     -10.399   8.752  69.040  1.00  0.00     0.000 HD 
BRANCH  11  16
HETATM   16  C   UNL     1      -7.837   8.371  68.924  1.00  0.00    -0.113 C  
HETATM   17  O   UNL     1      -7.633   9.487  69.389  1.00  0.00    -0.079 OA 
BRANCH  16  18
HETATM   18  C   UNL     1      -7.651   8.133  67.452  1.00  0.00    -0.101 A  
HETATM   19  C   UNL     1      -7.161   9.133  66.595  1.00  0.00    -0.082 A  
HETATM   20  C   UNL     1      -6.830   8.828  65.273  1.00  0.00    -0.072 A  
HETATM   21  C   UNL     1      -7.031   7.537  64.785  1.00  0.00    -0.055 A  
HETATM   22  C   UNL     1      -7.593   6.562  65.610  1.00  0.00    -0.086 A  
HETATM   23  C   UNL     1      -7.909   6.859  66.938  1.00  0.00    -0.107 A  
ENDBRANCH  16  18
ENDBRANCH  11  16
ENDBRANCH   6   7
ENDBRANCH   4   6
TORSDOF 4
ENDMDL
MODEL      242
REMARK 921   NORMALIZED FREE ENERGY PREDICTED BY IDOCK:    1.06 KCAL/MOL
REMARK 922        TOTAL FREE ENERGY PREDICTED BY IDOCK:    0.59 KCAL/MOL
REMARK 923 INTER-LIGAND FREE ENERGY PREDICTED BY IDOCK:   -1.71 KCAL/MOL
REMARK 924 INTRA-LIGAND FREE ENERGY PREDICTED BY IDOCK:    2.30 KCAL/MOL
REMARK 927      BINDING AFFINITY PREDICTED BY RF-SCORE:    0.00 PKD
ROOT
HETATM    1  N   UNL     1     -13.715   6.690  71.418  1.00  0.00     0.058 N  
HETATM    2  H2  UNL     1     -14.501   6.982  70.838  1.00  0.00     0.000 HD 
HETATM    3  H1  UNL     1     -13.855   6.545  72.418  1.00  0.00     0.000 HD 
HETATM    4  C   UNL     1     -12.490   6.501  70.845  1.00  0.00     0.018 C  
HETATM    5  O   UNL     1     -12.322   6.675  69.645  1.00  0.00     0.271 OA 
ENDROOT
BRANCH   4   6
HETATM    6  C   UNL     1     -11.389   6.070  71.786  1.00  0.00    -0.324 C  
BRANCH   6   7
HETATM    7  C   UNL     1     -10.029   6.063  71.122  1.00  0.00    -0.227 A  
HETATM    8  C   UNL     1      -9.067   5.158  71.606  1.00  0.00    -0.163 A  
HETATM    9  C   UNL     1      -7.791   5.114  71.061  1.00  0.00    -0.097 A  
HETATM   10  C   UNL     1      -7.441   6.022  70.070  1.00  0.00    -0.083 A  
HETATM   11  C   UNL     1      -8.363   6.983  69.618  1.00  0.00    -0.133 A  
HETATM   12  C   UNL     1      -9.709   6.924  70.047  1.00  0.00    -0.167 A  
HETATM   13  H2  UNL     1     -10.987   8.413  70.368  1.00  0.00     0.000 HD 
HETATM   14  N   UNL     1     -10.672   7.846  69.581  1.00  0.00    -0.297 NA 
HETATM   15  H1  UNL     1     -10.442   8.467  68.805  1.00  0.00     0.000 HD 
BRANCH  11  16
HETATM   16  C   UNL     1      -7.889   8.031  68.657  1.00  0.00    -0.118 C  
HETATM   17  O   UNL     1      -8.142   7.938  67.461  1.00  0.00    -0.120 OA 
BRANCH  16  18
HETATM   18  C   UNL     1      -7.062   9.183  69.155  1.00  0.00    -0.062 A  
HETATM   19  C   UNL     1      -6.634  10.213  68.301  1.00  0.00    -0.054 A  
HETATM   20  C   UNL     1      -6.023  11.355  68.825  1.00  0.00    -0.043 A  
HETATM   21  C   UNL     1      -5.793  11.454  70.196  1.00  0.00    -0.142 A  
HETATM   22  C   UNL     1      -6.144  10.398  71.038  1.00  0.00     0.054 A  
HETATM   23  C   UNL     1      -6.770   9.261  70.520  1.00  0.00    -0.078 A  
ENDBRANCH  16  18
ENDBRANCH  11  16
ENDBRANCH   6   7
ENDBRANCH   4   6
TORSDOF 4
ENDMDL
MODEL      243
REMARK 921   NORMALIZED FREE ENERGY PREDICTED BY IDOCK:    2.09 KCAL/MOL
REMARK 922        TOTAL FREE ENERGY PREDICTED BY IDOCK:    1.87 KCAL/MOL
REMARK 923 INTER-LIGAND FREE ENERGY PREDICTED BY IDOCK:    0.28 KCAL/MOL
REMARK 924 INTRA-LIGAND FREE ENERGY PREDICTED BY IDOCK:    1.59 KCAL/MOL
REMARK 927      BINDING AFFINITY PREDICTED BY RF-SCORE:    0.00 PKD
ROOT
HETATM    1  N   UNL     1      -9.760   7.653  68.021  1.00  0.00    -0.149 N  
HETATM    2  H2  UNL     1      -9.231   6.890  67.597  1.00  0.00     0.000 HD 
HETATM    3  H1  UNL     1     -10.503   8.106  67.489  1.00  0.00     0.000 HD 
HETATM    4  C   UNL     1      -9.461   8.052  69.292  1.00  0.00    -0.155 C  
HETATM    5  O   UNL     1      -8.570   7.507  69.931  1.00  0.00    -0.137 OA 
ENDROOT
BRANCH   4   6
HETATM    6  C   UNL     1     -10.298   9.187  69.833  1.00  0.00    -0.229 C  
BRANCH   6   7
HETATM    7  C   UNL     1     -10.689  10.181  68.762  1.00  0.00    -0.247 A  
HETATM    8  C   UNL     1     -11.210   9.675  67.556  1.00  0.00     0.159 A  
HETATM    9  C   UNL     1     -11.567  10.528  66.521  1.00  0.00     1.055 A  
HETATM   10  C   UNL     1     -11.345  11.893  66.653  1.00  0.00    -0.400 A  
HETATM   11  C   UNL     1     -10.761  12.415  67.820  1.00  0.00    -0.247 A  
HETATM   12  C   UNL     1     -10.552  11.577  68.940  1.00  0.00    -0.204 A  
HETATM   13  H2  UNL     1      -9.099  11.639  70.296  1.00  0.00     0.000 HD 
HETATM   14  N   UNL     1     -10.007  12.077  70.144  1.00  0.00     1.688 NA 
HETATM   15  H1  UNL     1      -9.908  13.084  70.272  1.00  0.00     0.000 HD 
BRANCH  11  16
HETATM   16  C   UNL     1     -10.407  13.871  67.852  1.00  0.00    -0.240 C  
HETATM   17  O   UNL     1     -10.114  14.417  68.910  1.00  0.00    -0.230 OA 
BRANCH  16  18
HETATM   18  C   UNL     1     -10.453  14.680  66.586  1.00  0.00    -0.278 A  
HETATM   19  C   UNL     1     -10.783  14.103  65.349  1.00  0.00    -0.350 A  
HETATM   20  C   UNL     1     -10.993  14.909  64.228  1.00  0.00     0.155 A  
HETATM   21  C   UNL     1     -10.829  16.290  64.324  1.00  0.00     0.607 A  
HETATM   22  C   UNL     1     -10.423  16.860  65.531  1.00  0.00    -0.220 A  
HETATM   23  C   UNL     1     -10.228  16.057  66.659  1.00  0.00    -0.295 A  
ENDBRANCH  16  18
ENDBRANCH  11  16
ENDBRANCH   6   7
ENDBRANCH   4   6
TORSDOF 4
ENDMDL
