MODEL        1
REMARK 921   NORMALIZED FREE ENERGY PREDICTED BY IDOCK:   -8.05 KCAL/MOL
REMARK 922        TOTAL FREE ENERGY PREDICTED BY IDOCK:  -14.99 KCAL/MOL
REMARK 923 INTER-LIGAND FREE ENERGY PREDICTED BY IDOCK:  -13.23 KCAL/MOL
REMARK 924 INTRA-LIGAND FREE ENERGY PREDICTED BY IDOCK:   -1.76 KCAL/MOL
REMARK 927      BINDING AFFINITY PREDICTED BY RF-SCORE:    0.00 PKD
ROOT
HETATM    1  C   UNL     1     -10.412   7.729  73.066  1.00  0.00    -0.432 C  
HETATM    2  C   UNL     1     -10.805   8.091  71.644  1.00  0.00    -0.237 C  
ENDROOT
BRANCH   2   3
HETATM    3  O   UNL     1     -10.094   9.264  71.274  1.00  0.00    -0.299 OA 
BRANCH   3   4
HETATM    4  C   UNL     1     -10.258   9.814  70.033  1.00  0.00    -0.263 A  
HETATM    5  C   UNL     1     -11.017  10.911  69.623  1.00  0.00    -0.252 A  
HETATM    6  C   UNL     1      -9.417  10.118  63.581  1.00  0.00    -0.267 C  
HETATM    7  C   UNL     1     -11.094  11.236  68.251  1.00  0.00    -0.297 A  
HETATM    8  C   UNL     1      -8.853   8.955  65.581  1.00  0.00    -0.191 A  
HETATM    9  C   UNL     1      -9.558   9.101  69.056  1.00  0.00    -0.156 A  
HETATM   10  C   UNL     1     -10.369  10.512  67.257  1.00  0.00    -0.275 A  
HETATM   11  N   UNL     1      -8.848   8.666  66.900  1.00  0.00    -0.130 NA 
HETATM   12  C   UNL     1     -10.365  10.796  65.835  1.00  0.00    -0.238 A  
HETATM   13  C   UNL     1      -9.588   9.422  67.707  1.00  0.00    -0.134 A  
HETATM   14  N   UNL     1      -9.236  10.134  62.435  1.00  0.00    -0.286 NA 
HETATM   15  C   UNL     1      -9.581   9.978  64.996  1.00  0.00    -0.362 A  
BRANCH   5  16
HETATM   16  N   UNL     1     -11.711  11.734  70.529  1.00  0.00    -0.493 N  
HETATM   17  C   UNL     1     -12.854  11.275  71.155  1.00  0.00    -0.352 C  
HETATM   18  H   UNL     1     -11.369  12.674  70.725  1.00  0.00     0.000 HD 
HETATM   19  O   UNL     1     -13.379  10.187  70.943  1.00  0.00    -0.388 OA 
BRANCH  17  20
HETATM   20  C   UNL     1     -13.414  12.242  72.137  1.00  0.00    -0.431 C  
HETATM   21  C   UNL     1     -13.458  13.545  71.812  1.00  0.00    -0.461 C  
BRANCH  21  22
HETATM   22  C   UNL     1     -14.032  14.674  72.618  1.00  0.00    -0.310 C  
BRANCH  22  23
HETATM   23  N   UNL     1     -13.260  15.924  72.654  1.00  0.00    -0.483 NA 
HETATM   24  C   UNL     1     -12.548  16.072  73.930  1.00  0.00    -0.612 C  
HETATM   25  C   UNL     1     -12.273  15.903  71.565  1.00  0.00    -0.465 C  
ENDBRANCH  22  23
ENDBRANCH  21  22
ENDBRANCH  17  20
ENDBRANCH   5  16
BRANCH  12  26
HETATM   26  N   UNL     1     -11.171  11.891  65.372  1.00  0.00    -0.314 NA 
HETATM   27  H   UNL     1     -12.029  11.605  64.900  1.00  0.00     0.000 HD 
BRANCH  26  28
HETATM   28  C   UNL     1     -10.996  13.291  65.450  1.00  0.00    -0.284 A  
HETATM   29 CL   UNL     1      -8.065  15.748  66.646  1.00  0.00    -0.300 Cl 
HETATM   30  C   UNL     1     -11.935  14.195  64.943  1.00  0.00    -0.424 A  
HETATM   31  C   UNL     1      -9.560  15.190  65.972  1.00  0.00    -0.330 A  
HETATM   32  C   UNL     1     -11.686  15.582  64.925  1.00  0.00    -0.118 A  
HETATM   33  C   UNL     1      -9.819  13.814  66.000  1.00  0.00    -0.298 A  
HETATM   34  C   UNL     1     -10.483  16.091  65.419  1.00  0.00    -0.392 A  
BRANCH  34  35
HETATM   35  O   UNL     1     -10.092  17.400  65.347  1.00  0.00    -0.562 OA 
BRANCH  35  36
HETATM   36  C   UNL     1     -10.431  18.283  66.417  1.00  0.00    -0.366 C  
BRANCH  36  37
HETATM   37  C   UNL     1      -9.166  18.945  66.932  1.00  0.00    -0.303 A  
HETATM   38  C   UNL     1      -8.819  18.853  68.280  1.00  0.00    -0.367 A  
HETATM   39  C   UNL     1      -7.656  19.478  68.725  1.00  0.00    -0.386 A  
HETATM   40  C   UNL     1      -6.868  20.176  67.819  1.00  0.00    -0.309 A  
HETATM   41  C   UNL     1      -7.281  20.223  66.499  1.00  0.00    -0.266 A  
HETATM   42  N   UNL     1      -8.411  19.639  66.041  1.00  0.00    -0.398 NA 
ENDBRANCH  36  37
ENDBRANCH  35  36
ENDBRANCH  34  35
ENDBRANCH  26  28
ENDBRANCH  12  26
ENDBRANCH   3   4
ENDBRANCH   2   3
TORSDOF 11
ENDMDL
MODEL        2
REMARK 921   NORMALIZED FREE ENERGY PREDICTED BY IDOCK:   -7.58 KCAL/MOL
REMARK 922        TOTAL FREE ENERGY PREDICTED BY IDOCK:  -14.21 KCAL/MOL
REMARK 923 INTER-LIGAND FREE ENERGY PREDICTED BY IDOCK:  -12.31 KCAL/MOL
REMARK 924 INTRA-LIGAND FREE ENERGY PREDICTED BY IDOCK:   -1.90 KCAL/MOL
REMARK 927      BINDING AFFINITY PREDICTED BY RF-SCORE:    0.00 PKD
ROOT
HETATM    1  C   UNL     1     -10.359   6.795  73.919  1.00  0.00    -0.397 C  
HETATM    2  C   UNL     1     -11.072   7.628  72.868  1.00  0.00    -0.393 C  
ENDROOT
BRANCH   2   3
HETATM    3  O   UNL     1     -10.159   8.601  72.381  1.00  0.00    -0.307 OA 
BRANCH   3   4
HETATM    4  C   UNL     1     -10.105   8.897  71.047  1.00  0.00    -0.255 A  
HETATM    5  C   UNL     1     -10.749   9.895  70.315  1.00  0.00    -0.310 A  
HETATM    6  C   UNL     1      -8.239   7.922  64.883  1.00  0.00    -0.124 C  
HETATM    7  C   UNL     1     -10.595   9.943  68.912  1.00  0.00    -0.239 A  
HETATM    8  C   UNL     1      -8.041   7.174  67.134  1.00  0.00    -0.114 A  
HETATM    9  C   UNL     1      -9.284   8.003  70.354  1.00  0.00    -0.155 A  
HETATM   10  C   UNL     1      -9.748   9.036  68.208  1.00  0.00    -0.169 A  
HETATM   11  N   UNL     1      -8.256   7.150  68.468  1.00  0.00    -0.124 NA 
HETATM   12  C   UNL     1      -9.508   9.034  66.778  1.00  0.00    -0.182 A  
HETATM   13  C   UNL     1      -9.087   8.052  68.982  1.00  0.00    -0.144 A  
HETATM   14  N   UNL     1      -7.877   7.712  63.800  1.00  0.00    -0.126 NA 
HETATM   15  C   UNL     1      -8.630   8.064  66.252  1.00  0.00    -0.156 A  
BRANCH   5  16
HETATM   16  N   UNL     1     -11.549  10.882  70.919  1.00  0.00    -0.335 N  
HETATM   17  C   UNL     1     -12.842  10.591  71.308  1.00  0.00    -0.431 C  
HETATM   18  H   UNL     1     -11.172  11.817  71.071  1.00  0.00     0.000 HD 
HETATM   19  O   UNL     1     -13.406   9.520  71.117  1.00  0.00    -0.337 OA 
BRANCH  17  20
HETATM   20  C   UNL     1     -13.515  11.724  72.000  1.00  0.00    -0.319 C  
HETATM   21  C   UNL     1     -13.005  12.960  71.868  1.00  0.00    -0.405 C  
BRANCH  21  22
HETATM   22  C   UNL     1     -13.552  14.244  72.422  1.00  0.00    -0.500 C  
BRANCH  22  23
HETATM   23  N   UNL     1     -12.599  15.347  72.608  1.00  0.00    -0.353 NA 
HETATM   24  C   UNL     1     -12.348  15.596  74.034  1.00  0.00    -0.641 C  
HETATM   25  C   UNL     1     -11.327  14.988  71.964  1.00  0.00    -0.162 C  
ENDBRANCH  22  23
ENDBRANCH  21  22
ENDBRANCH  17  20
ENDBRANCH   5  16
BRANCH  12  26
HETATM   26  N   UNL     1     -10.191  10.020  65.987  1.00  0.00    -0.237 NA 
HETATM   27  H   UNL     1     -10.891   9.632  65.354  1.00  0.00     0.000 HD 
BRANCH  26  28
HETATM   28  C   UNL     1     -10.072  11.426  65.924  1.00  0.00    -0.243 A  
HETATM   29 CL   UNL     1     -12.407  14.444  64.701  1.00  0.00    -0.459 Cl 
HETATM   30  C   UNL     1      -8.979  12.113  66.461  1.00  0.00    -0.179 A  
HETATM   31  C   UNL     1     -11.074  13.585  65.397  1.00  0.00    -0.293 A  
HETATM   32  C   UNL     1      -8.938  13.521  66.492  1.00  0.00    -0.063 A  
HETATM   33  C   UNL     1     -11.104  12.185  65.357  1.00  0.00    -0.362 A  
HETATM   34  C   UNL     1      -9.999  14.271  65.980  1.00  0.00    -0.319 A  
BRANCH  34  35
HETATM   35  O   UNL     1     -10.114  15.632  66.061  1.00  0.00    -0.286 OA 
BRANCH  35  36
HETATM   36  C   UNL     1     -10.689  16.209  67.234  1.00  0.00    -0.277 C  
BRANCH  36  37
HETATM   37  C   UNL     1     -10.374  17.694  67.261  1.00  0.00    -0.354 A  
HETATM   38  C   UNL     1     -10.160  18.349  68.475  1.00  0.00    -0.413 A  
HETATM   39  C   UNL     1      -9.880  19.713  68.469  1.00  0.00    -0.519 A  
HETATM   40  C   UNL     1      -9.818  20.391  67.257  1.00  0.00    -0.597 A  
HETATM   41  C   UNL     1     -10.043  19.672  66.097  1.00  0.00    -0.480 A  
HETATM   42  N   UNL     1     -10.331  18.350  66.072  1.00  0.00    -0.548 NA 
ENDBRANCH  36  37
ENDBRANCH  35  36
ENDBRANCH  34  35
ENDBRANCH  26  28
ENDBRANCH  12  26
ENDBRANCH   3   4
ENDBRANCH   2   3
TORSDOF 11
ENDMDL
MODEL        3
REMARK 921   NORMALIZED FREE ENERGY PREDICTED BY IDOCK:   -7.38 KCAL/MOL
REMARK 922        TOTAL FREE ENERGY PREDICTED BY IDOCK:  -13.89 KCAL/MOL
REMARK 923 INTER-LIGAND FREE ENERGY PREDICTED BY IDOCK:  -12.28 KCAL/MOL
REMARK 924 INTRA-LIGAND FREE ENERGY PREDICTED BY IDOCK:   -1.61 KCAL/MOL
REMARK 927      BINDING AFFINITY PREDICTED BY RF-SCORE:    0.00 PKD
ROOT
HETATM    1  C   UNL     1     -10.931  15.623  64.913  1.00  0.00    -0.447 C  
HETATM    2  C   UNL     1     -12.240  15.247  64.240  1.00  0.00    -0.189 C  
ENDROOT
BRANCH   2   3
HETATM    3  O   UNL     1     -12.751  14.088  64.883  1.00  0.00    -0.647 OA 
BRANCH   3   4
HETATM    4  C   UNL     1     -11.928  13.038  65.180  1.00  0.00    -0.402 A  
HETATM    5  C   UNL     1     -11.566  12.491  66.412  1.00  0.00    -0.391 A  
HETATM    6  C   UNL     1      -7.740   8.263  63.733  1.00  0.00    -0.145 C  
HETATM    7  C   UNL     1     -10.618  11.447  66.463  1.00  0.00    -0.309 A  
HETATM    8  C   UNL     1      -9.144   9.973  62.856  1.00  0.00    -0.286 A  
HETATM    9  C   UNL     1     -11.361  12.485  64.027  1.00  0.00    -0.467 A  
HETATM   10  C   UNL     1     -10.049  10.877  65.284  1.00  0.00    -0.340 A  
HETATM   11  N   UNL     1     -10.025  10.998  62.869  1.00  0.00    -0.281 NA 
HETATM   12  C   UNL     1      -9.097   9.784  65.243  1.00  0.00    -0.211 A  
HETATM   13  C   UNL     1     -10.456  11.434  64.049  1.00  0.00    -0.378 A  
HETATM   14  N   UNL     1      -7.002   7.421  63.427  1.00  0.00    -0.054 NA 
HETATM   15  C   UNL     1      -8.645   9.343  63.983  1.00  0.00    -0.222 A  
BRANCH   5  16
HETATM   16  N   UNL     1     -12.120  12.931  67.628  1.00  0.00    -0.278 N  
HETATM   17  C   UNL     1     -11.398  13.757  68.467  1.00  0.00    -0.285 C  
HETATM   18  H   UNL     1     -13.061  12.638  67.892  1.00  0.00     0.000 HD 
HETATM   19  O   UNL     1     -10.243  14.117  68.270  1.00  0.00    -0.230 OA 
BRANCH  17  20
HETATM   20  C   UNL     1     -12.164  14.188  69.668  1.00  0.00    -0.376 C  
HETATM   21  C   UNL     1     -12.333  13.317  70.677  1.00  0.00    -0.416 C  
BRANCH  21  22
HETATM   22  C   UNL     1     -13.010  13.557  71.995  1.00  0.00    -0.324 C  
BRANCH  22  23
HETATM   23  N   UNL     1     -12.957  14.926  72.529  1.00  0.00    -0.353 NA 
HETATM   24  C   UNL     1     -14.267  15.584  72.434  1.00  0.00    -0.481 C  
HETATM   25  C   UNL     1     -12.563  14.867  73.944  1.00  0.00    -0.380 C  
ENDBRANCH  22  23
ENDBRANCH  21  22
ENDBRANCH  17  20
ENDBRANCH   5  16
BRANCH  12  26
HETATM   26  N   UNL     1      -8.668   9.228  66.496  1.00  0.00    -0.129 NA 
HETATM   27  H   UNL     1      -7.816   9.649  66.868  1.00  0.00     0.000 HD 
BRANCH  26  28
HETATM   28  C   UNL     1      -9.207   8.205  67.309  1.00  0.00    -0.138 A  
HETATM   29 CL   UNL     1      -8.021   6.226  70.585  1.00  0.00    -0.110 Cl 
HETATM   30  C   UNL     1     -10.501   7.708  67.129  1.00  0.00    -0.412 A  
HETATM   31  C   UNL     1      -9.011   6.779  69.275  1.00  0.00    -0.137 A  
HETATM   32  C   UNL     1     -11.061   6.773  68.024  1.00  0.00    -0.246 A  
HETATM   33  C   UNL     1      -8.455   7.697  68.375  1.00  0.00    -0.125 A  
HETATM   34  C   UNL     1     -10.327   6.318  69.121  1.00  0.00    -0.216 A  
BRANCH  34  35
HETATM   35  O   UNL     1     -10.809   5.503  70.109  1.00  0.00    -0.306 OA 
BRANCH  35  36
HETATM   36  C   UNL     1     -10.840   5.988  71.452  1.00  0.00    -0.270 C  
BRANCH  36  37
HETATM   37  C   UNL     1     -11.866   7.102  71.552  1.00  0.00    -0.313 A  
HETATM   38  C   UNL     1     -11.457   8.435  71.616  1.00  0.00    -0.349 A  
HETATM   39  C   UNL     1     -12.422   9.436  71.716  1.00  0.00    -0.471 A  
HETATM   40  C   UNL     1     -13.766   9.086  71.747  1.00  0.00    -0.474 A  
HETATM   41  C   UNL     1     -14.090   7.742  71.682  1.00  0.00    -0.429 A  
HETATM   42  N   UNL     1     -13.176   6.748  71.598  1.00  0.00    -0.260 NA 
ENDBRANCH  36  37
ENDBRANCH  35  36
ENDBRANCH  34  35
ENDBRANCH  26  28
ENDBRANCH  12  26
ENDBRANCH   3   4
ENDBRANCH   2   3
TORSDOF 11
ENDMDL
MODEL        4
REMARK 921   NORMALIZED FREE ENERGY PREDICTED BY IDOCK:   -7.33 KCAL/MOL
REMARK 922        TOTAL FREE ENERGY PREDICTED BY IDOCK:  -13.80 KCAL/MOL
REMARK 923 INTER-LIGAND FREE ENERGY PREDICTED BY IDOCK:  -12.01 KCAL/MOL
REMARK 924 INTRA-LIGAND FREE ENERGY PREDICTED BY IDOCK:   -1.79 KCAL/MOL
REMARK 927      BINDING AFFINITY PREDICTED BY RF-SCORE:    0.00 PKD
ROOT
HETATM    1  C   UNL     1     -14.096  14.798  71.463  1.00  0.00    -0.566 C  
HETATM    2  C   UNL     1     -13.566  13.720  72.394  1.00  0.00    -0.588 C  
ENDROOT
BRANCH   2   3
HETATM    3  O   UNL     1     -13.962  12.457  71.880  1.00  0.00     0.059 OA 
BRANCH   3   4
HETATM    4  C   UNL     1     -13.028  11.560  71.444  1.00  0.00    -0.348 A  
HETATM    5  C   UNL     1     -11.945  11.729  70.580  1.00  0.00    -0.222 A  
HETATM    6  C   UNL     1     -10.361   5.641  70.920  1.00  0.00    -0.238 C  
HETATM    7  C   UNL     1     -11.164  10.613  70.210  1.00  0.00    -0.365 A  
HETATM    8  C   UNL     1     -12.090   6.931  71.925  1.00  0.00    -0.333 A  
HETATM    9  C   UNL     1     -13.267  10.279  71.951  1.00  0.00    -0.550 A  
HETATM   10  C   UNL     1     -11.404   9.308  70.737  1.00  0.00    -0.349 A  
HETATM   11  N   UNL     1     -12.827   8.026  72.214  1.00  0.00    -0.233 NA 
HETATM   12  C   UNL     1     -10.635   8.116  70.437  1.00  0.00    -0.224 A  
HETATM   13  C   UNL     1     -12.493   9.174  71.632  1.00  0.00    -0.359 A  
HETATM   14  N   UNL     1      -9.918   4.569  70.859  1.00  0.00    -0.205 NA 
HETATM   15  C   UNL     1     -11.011   6.908  71.057  1.00  0.00    -0.287 A  
BRANCH   5  16
HETATM   16  N   UNL     1     -11.579  12.984  70.061  1.00  0.00    -0.525 N  
HETATM   17  C   UNL     1     -11.731  13.254  68.715  1.00  0.00    -0.329 C  
HETATM   18  H   UNL     1     -11.199  13.698  70.681  1.00  0.00     0.000 HD 
HETATM   19  O   UNL     1     -12.121  12.447  67.878  1.00  0.00    -0.428 OA 
BRANCH  17  20
HETATM   20  C   UNL     1     -11.370  14.652  68.353  1.00  0.00    -0.312 C  
HETATM   21  C   UNL     1     -10.341  15.241  68.986  1.00  0.00    -0.242 C  
BRANCH  21  22
HETATM   22  C   UNL     1      -9.771  16.608  68.738  1.00  0.00    -0.254 C  
BRANCH  22  23
HETATM   23  N   UNL     1     -10.068  17.225  67.438  1.00  0.00    -0.297 NA 
HETATM   24  C   UNL     1     -10.353  18.659  67.584  1.00  0.00    -0.412 C  
HETATM   25  C   UNL     1      -8.899  17.067  66.560  1.00  0.00    -0.264 C  
ENDBRANCH  22  23
ENDBRANCH  21  22
ENDBRANCH  17  20
ENDBRANCH   5  16
BRANCH  12  26
HETATM   26  N   UNL     1      -9.540   8.245  69.515  1.00  0.00    -0.169 NA 
HETATM   27  H   UNL     1      -8.687   7.773  69.816  1.00  0.00     0.000 HD 
BRANCH  26  28
HETATM   28  C   UNL     1      -9.427   8.903  68.271  1.00  0.00    -0.140 A  
HETATM   29 CL   UNL     1      -6.823  11.453  66.606  1.00  0.00    -0.132 Cl 
HETATM   30  C   UNL     1     -10.297   8.650  67.206  1.00  0.00    -0.366 A  
HETATM   31  C   UNL     1      -8.164  10.373  66.792  1.00  0.00    -0.126 A  
HETATM   32  C   UNL     1     -10.095   9.230  65.936  1.00  0.00    -0.188 A  
HETATM   33  C   UNL     1      -8.378   9.805  68.055  1.00  0.00    -0.110 A  
HETATM   34  C   UNL     1      -9.010  10.079  65.712  1.00  0.00    -0.157 A  
BRANCH  34  35
HETATM   35  O   UNL     1      -8.656  10.603  64.499  1.00  0.00    -0.172 OA 
BRANCH  35  36
HETATM   36  C   UNL     1      -9.670  10.822  63.518  1.00  0.00    -0.341 C  
BRANCH  36  37
HETATM   37  C   UNL     1     -10.493  12.034  63.918  1.00  0.00    -0.402 A  
HETATM   38  C   UNL     1     -11.870  12.057  63.697  1.00  0.00    -0.602 A  
HETATM   39  C   UNL     1     -12.598  13.185  64.069  1.00  0.00    -0.249 A  
HETATM   40  C   UNL     1     -11.938  14.260  64.651  1.00  0.00    -0.468 A  
HETATM   41  C   UNL     1     -10.570  14.162  64.835  1.00  0.00    -0.430 A  
HETATM   42  N   UNL     1      -9.835  13.085  64.472  1.00  0.00    -0.088 NA 
ENDBRANCH  36  37
ENDBRANCH  35  36
ENDBRANCH  34  35
ENDBRANCH  26  28
ENDBRANCH  12  26
ENDBRANCH   3   4
ENDBRANCH   2   3
TORSDOF 11
ENDMDL
MODEL        5
REMARK 921   NORMALIZED FREE ENERGY PREDICTED BY IDOCK:   -7.10 KCAL/MOL
REMARK 922        TOTAL FREE ENERGY PREDICTED BY IDOCK:  -13.42 KCAL/MOL
REMARK 923 INTER-LIGAND FREE ENERGY PREDICTED BY IDOCK:  -11.48 KCAL/MOL
REMARK 924 INTRA-LIGAND FREE ENERGY PREDICTED BY IDOCK:   -1.94 KCAL/MOL
REMARK 927      BINDING AFFINITY PREDICTED BY RF-SCORE:    0.00 PKD
ROOT
HETATM    1  C   UNL     1     -10.788   6.591  68.401  1.00  0.00    -0.357 C  
HETATM    2  C   UNL     1     -10.846   7.184  67.004  1.00  0.00    -0.312 C  
ENDROOT
BRANCH   2   3
HETATM    3  O   UNL     1      -9.768   8.098  66.866  1.00  0.00    -0.186 OA 
BRANCH   3   4
HETATM    4  C   UNL     1      -9.985   9.446  66.944  1.00  0.00    -0.229 A  
HETATM    5  C   UNL     1     -10.009  10.296  68.050  1.00  0.00    -0.153 A  
HETATM    6  C   UNL     1     -11.440  15.313  64.518  1.00  0.00    -0.315 C  
HETATM    7  C   UNL     1     -10.345  11.657  67.880  1.00  0.00    -0.206 A  
HETATM    8  C   UNL     1     -11.042  13.022  64.006  1.00  0.00    -0.395 A  
HETATM    9  C   UNL     1     -10.253   9.998  65.688  1.00  0.00    -0.258 A  
HETATM   10  C   UNL     1     -10.607  12.221  66.595  1.00  0.00    -0.257 A  
HETATM   11  N   UNL     1     -10.754  11.722  64.233  1.00  0.00    -0.315 NA 
HETATM   12  C   UNL     1     -10.927  13.609  66.326  1.00  0.00    -0.299 A  
HETATM   13  C   UNL     1     -10.549  11.338  65.490  1.00  0.00    -0.246 A  
HETATM   14  N   UNL     1     -11.698  16.339  64.040  1.00  0.00    -0.975 NA 
HETATM   15  C   UNL     1     -11.150  13.993  64.988  1.00  0.00    -0.364 A  
BRANCH   5  16
HETATM   16  N   UNL     1      -9.696   9.858  69.350  1.00  0.00    -0.201 N  
HETATM   17  C   UNL     1     -10.693   9.693  70.291  1.00  0.00    -0.281 C  
HETATM   18  H   UNL     1      -8.727   9.661  69.599  1.00  0.00     0.000 HD 
HETATM   19  O   UNL     1     -11.876   9.958  70.110  1.00  0.00    -0.216 OA 
BRANCH  17  20
HETATM   20  C   UNL     1     -10.196   9.149  71.584  1.00  0.00    -0.372 C  
HETATM   21  C   UNL     1     -10.862   8.133  72.159  1.00  0.00    -0.370 C  
BRANCH  21  22
HETATM   22  C   UNL     1     -10.506   7.398  73.419  1.00  0.00    -0.368 C  
BRANCH  22  23
HETATM   23  N   UNL     1     -10.074   6.001  73.273  1.00  0.00    -0.183 NA 
HETATM   24  C   UNL     1     -10.193   5.273  74.543  1.00  0.00    -0.272 C  
HETATM   25  C   UNL     1     -10.929   5.343  72.273  1.00  0.00    -0.216 C  
ENDBRANCH  22  23
ENDBRANCH  21  22
ENDBRANCH  17  20
ENDBRANCH   5  16
BRANCH  12  26
HETATM   26  N   UNL     1     -11.005  14.503  67.448  1.00  0.00    -0.295 NA 
HETATM   27  H   UNL     1     -11.782  14.309  68.080  1.00  0.00     0.000 HD 
BRANCH  26  28
HETATM   28  C   UNL     1     -10.205  15.601  67.836  1.00  0.00    -0.239 A  
HETATM   29 CL   UNL     1     -10.571  19.590  67.732  1.00  0.00    -0.559 Cl 
HETATM   30  C   UNL     1      -9.000  15.444  68.528  1.00  0.00    -0.192 A  
HETATM   31  C   UNL     1      -9.939  18.013  68.068  1.00  0.00    -0.343 A  
HETATM   32  C   UNL     1      -8.278  16.556  69.009  1.00  0.00    -0.208 A  
HETATM   33  C   UNL     1     -10.645  16.906  67.580  1.00  0.00    -0.307 A  
HETATM   34  C   UNL     1      -8.755  17.851  68.804  1.00  0.00    -0.199 A  
BRANCH  34  35
HETATM   35  O   UNL     1      -8.198  18.989  69.322  1.00  0.00    -0.141 OA 
BRANCH  35  36
HETATM   36  C   UNL     1      -6.789  19.185  69.203  1.00  0.00    -0.326 C  
BRANCH  36  37
HETATM   37  C   UNL     1      -6.441  19.402  67.742  1.00  0.00    -0.221 A  
HETATM   38  C   UNL     1      -6.977  20.483  67.042  1.00  0.00    -0.346 A  
HETATM   39  C   UNL     1      -6.645  20.653  65.699  1.00  0.00    -0.236 A  
HETATM   40  C   UNL     1      -5.788  19.746  65.089  1.00  0.00    -0.238 A  
HETATM   41  C   UNL     1      -5.300  18.699  65.850  1.00  0.00    -0.153 A  
HETATM   42  N   UNL     1      -5.614  18.501  67.151  1.00  0.00    -0.134 NA 
ENDBRANCH  36  37
ENDBRANCH  35  36
ENDBRANCH  34  35
ENDBRANCH  26  28
ENDBRANCH  12  26
ENDBRANCH   3   4
ENDBRANCH   2   3
TORSDOF 11
ENDMDL
MODEL        6
REMARK 921   NORMALIZED FREE ENERGY PREDICTED BY IDOCK:   -7.08 KCAL/MOL
REMARK 922        TOTAL FREE ENERGY PREDICTED BY IDOCK:  -13.39 KCAL/MOL
REMARK 923 INTER-LIGAND FREE ENERGY PREDICTED BY IDOCK:  -11.29 KCAL/MOL
REMARK 924 INTRA-LIGAND FREE ENERGY PREDICTED BY IDOCK:   -2.10 KCAL/MOL
REMARK 927      BINDING AFFINITY PREDICTED BY RF-SCORE:    0.00 PKD
ROOT
HETATM    1  C   UNL     1     -11.399  16.414  64.896  1.00  0.00    -0.103 C  
HETATM    2  C   UNL     1     -12.147  15.373  64.080  1.00  0.00    -0.088 C  
ENDROOT
BRANCH   2   3
HETATM    3  O   UNL     1     -12.732  14.443  64.980  1.00  0.00    -0.587 OA 
BRANCH   3   4
HETATM    4  C   UNL     1     -11.987  13.431  65.516  1.00  0.00    -0.398 A  
HETATM    5  C   UNL     1     -11.671  13.144  66.844  1.00  0.00    -0.387 A  
HETATM    6  C   UNL     1      -8.134   8.186  65.234  1.00  0.00    -0.136 C  
HETATM    7  C   UNL     1     -10.799  12.075  67.143  1.00  0.00    -0.297 A  
HETATM    8  C   UNL     1      -9.409   9.753  63.975  1.00  0.00    -0.155 A  
HETATM    9  C   UNL     1     -11.453  12.602  64.524  1.00  0.00    -0.389 A  
HETATM   10  C   UNL     1     -10.264  11.224  66.129  1.00  0.00    -0.291 A  
HETATM   11  N   UNL     1     -10.216  10.812  63.746  1.00  0.00    -0.332 NA 
HETATM   12  C   UNL     1      -9.390  10.088  66.347  1.00  0.00    -0.168 A  
HETATM   13  C   UNL     1     -10.624  11.524  64.793  1.00  0.00    -0.305 A  
HETATM   14  N   UNL     1      -7.454   7.250  65.136  1.00  0.00    -0.081 NA 
HETATM   15  C   UNL     1      -8.962   9.352  65.224  1.00  0.00    -0.250 A  
BRANCH   5  16
HETATM   16  N   UNL     1     -12.202  13.876  67.924  1.00  0.00    -0.483 N  
HETATM   17  C   UNL     1     -11.483  14.913  68.485  1.00  0.00    -0.315 C  
HETATM   18  H   UNL     1     -13.122  13.638  68.293  1.00  0.00     0.000 HD 
HETATM   19  O   UNL     1     -10.348  15.237  68.154  1.00  0.00    -0.237 OA 
BRANCH  17  20
HETATM   20  C   UNL     1     -12.224  15.626  69.560  1.00  0.00    -0.231 C  
HETATM   21  C   UNL     1     -13.105  14.938  70.307  1.00  0.00    -0.112 C  
BRANCH  21  22
HETATM   22  C   UNL     1     -13.908  15.438  71.473  1.00  0.00    -0.505 C  
BRANCH  22  23
HETATM   23  N   UNL     1     -13.822  14.664  72.719  1.00  0.00    -0.529 NA 
HETATM   24  C   UNL     1     -13.522  13.252  72.448  1.00  0.00    -0.569 C  
HETATM   25  C   UNL     1     -12.744  15.222  73.550  1.00  0.00    -0.559 C  
ENDBRANCH  22  23
ENDBRANCH  21  22
ENDBRANCH  17  20
ENDBRANCH   5  16
BRANCH  12  26
HETATM   26  N   UNL     1      -9.009   9.792  67.700  1.00  0.00    -0.128 NA 
HETATM   27  H   UNL     1      -8.029   9.984  67.907  1.00  0.00     0.000 HD 
BRANCH  26  28
HETATM   28  C   UNL     1      -9.741   9.285  68.798  1.00  0.00    -0.157 A  
HETATM   29 CL   UNL     1     -11.251   5.721  69.831  1.00  0.00    -0.343 Cl 
HETATM   30  C   UNL     1     -10.013  10.050  69.936  1.00  0.00    -0.280 A  
HETATM   31  C   UNL     1     -10.781   7.386  69.916  1.00  0.00    -0.243 A  
HETATM   32  C   UNL     1     -10.641   9.489  71.067  1.00  0.00    -0.392 A  
HETATM   33  C   UNL     1     -10.169   7.952  68.790  1.00  0.00    -0.218 A  
HETATM   34  C   UNL     1     -11.009   8.143  71.075  1.00  0.00    -0.244 A  
BRANCH  34  35
HETATM   35  O   UNL     1     -11.518   7.471  72.153  1.00  0.00    -0.267 OA 
BRANCH  35  36
HETATM   36  C   UNL     1     -10.645   7.131  73.231  1.00  0.00    -0.364 C  
BRANCH  36  37
HETATM   37  C   UNL     1     -10.293   5.658  73.139  1.00  0.00    -0.203 A  
HETATM   38  C   UNL     1      -9.030   5.259  72.701  1.00  0.00    -0.135 A  
HETATM   39  C   UNL     1      -8.738   3.899  72.619  1.00  0.00    -0.106 A  
HETATM   40  C   UNL     1      -9.709   2.972  72.976  1.00  0.00    -0.165 A  
HETATM   41  C   UNL     1     -10.938   3.446  73.398  1.00  0.00    -0.206 A  
HETATM   42  N   UNL     1     -11.255   4.759  73.474  1.00  0.00    -0.331 NA 
ENDBRANCH  36  37
ENDBRANCH  35  36
ENDBRANCH  34  35
ENDBRANCH  26  28
ENDBRANCH  12  26
ENDBRANCH   3   4
ENDBRANCH   2   3
TORSDOF 11
ENDMDL
MODEL        7
REMARK 921   NORMALIZED FREE ENERGY PREDICTED BY IDOCK:   -6.72 KCAL/MOL
REMARK 922        TOTAL FREE ENERGY PREDICTED BY IDOCK:  -12.81 KCAL/MOL
REMARK 923 INTER-LIGAND FREE ENERGY PREDICTED BY IDOCK:  -10.67 KCAL/MOL
REMARK 924 INTRA-LIGAND FREE ENERGY PREDICTED BY IDOCK:   -2.14 KCAL/MOL
REMARK 927      BINDING AFFINITY PREDICTED BY RF-SCORE:    0.00 PKD
ROOT
HETATM    1  C   UNL     1     -13.519  15.808  73.269  1.00  0.00    -0.580 C  
HETATM    2  C   UNL     1     -13.609  14.406  72.690  1.00  0.00    -0.490 C  
ENDROOT
BRANCH   2   3
HETATM    3  O   UNL     1     -13.767  14.518  71.283  1.00  0.00    -0.378 OA 
BRANCH   3   4
HETATM    4  C   UNL     1     -12.685  14.431  70.453  1.00  0.00    -0.304 A  
HETATM    5  C   UNL     1     -11.851  13.350  70.163  1.00  0.00    -0.272 A  
HETATM    6  C   UNL     1      -8.213  16.810  66.357  1.00  0.00    -0.314 C  
HETATM    7  C   UNL     1     -10.729  13.535  69.326  1.00  0.00    -0.039 A  
HETATM    8  C   UNL     1     -10.157  17.302  67.641  1.00  0.00    -0.313 A  
HETATM    9  C   UNL     1     -12.395  15.659  69.852  1.00  0.00    -0.260 A  
HETATM   10  C   UNL     1     -10.442  14.788  68.705  1.00  0.00    -0.250 A  
HETATM   11  N   UNL     1     -11.191  17.077  68.481  1.00  0.00    -0.163 NA 
HETATM   12  C   UNL     1      -9.335  15.058  67.809  1.00  0.00    -0.186 A  
HETATM   13  C   UNL     1     -11.322  15.858  68.996  1.00  0.00    -0.371 A  
HETATM   14  N   UNL     1      -7.441  17.277  65.627  1.00  0.00    -0.198 NA 
HETATM   15  C   UNL     1      -9.209  16.358  67.280  1.00  0.00    -0.224 A  
BRANCH   5  16
HETATM   16  N   UNL     1     -12.085  12.056  70.666  1.00  0.00    -0.466 N  
HETATM   17  C   UNL     1     -12.225  10.987  69.803  1.00  0.00    -0.318 C  
HETATM   18  H   UNL     1     -12.152  11.908  71.672  1.00  0.00     0.000 HD 
HETATM   19  O   UNL     1     -12.220  11.069  68.580  1.00  0.00    -0.582 OA 
BRANCH  17  20
HETATM   20  C   UNL     1     -12.388   9.685  70.505  1.00  0.00    -0.106 C  
HETATM   21  C   UNL     1     -11.638   9.436  71.592  1.00  0.00    -0.466 C  
BRANCH  21  22
HETATM   22  C   UNL     1     -11.683   8.226  72.481  1.00  0.00    -0.383 C  
BRANCH  22  23
HETATM   23  N   UNL     1     -10.439   7.868  73.177  1.00  0.00    -0.339 NA 
HETATM   24  C   UNL     1     -10.438   6.452  73.567  1.00  0.00    -0.282 C  
HETATM   25  C   UNL     1      -9.304   8.105  72.272  1.00  0.00    -0.224 C  
ENDBRANCH  22  23
ENDBRANCH  21  22
ENDBRANCH  17  20
ENDBRANCH   5  16
BRANCH  12  26
HETATM   26  N   UNL     1      -8.430  13.979  67.525  1.00  0.00    -0.183 NA 
HETATM   27  H   UNL     1      -7.446  14.220  67.644  1.00  0.00     0.000 HD 
BRANCH  26  28
HETATM   28  C   UNL     1      -8.651  12.646  67.111  1.00  0.00    -0.199 A  
HETATM   29 CL   UNL     1      -7.477   9.026  68.366  1.00  0.00    -0.082 Cl 
HETATM   30  C   UNL     1      -9.546  12.316  66.088  1.00  0.00    -0.248 A  
HETATM   31  C   UNL     1      -8.301  10.261  67.474  1.00  0.00    -0.114 A  
HETATM   32  C   UNL     1      -9.839  10.974  65.772  1.00  0.00    -0.282 A  
HETATM   33  C   UNL     1      -8.003  11.597  67.775  1.00  0.00    -0.131 A  
HETATM   34  C   UNL     1      -9.236   9.933  66.480  1.00  0.00    -0.155 A  
BRANCH  34  35
HETATM   35  O   UNL     1      -9.531   8.604  66.334  1.00  0.00    -0.193 OA 
BRANCH  35  36
HETATM   36  C   UNL     1     -10.695   8.080  66.975  1.00  0.00    -0.193 C  
BRANCH  36  37
HETATM   37  C   UNL     1     -10.298   6.885  67.821  1.00  0.00    -0.203 A  
HETATM   38  C   UNL     1     -10.943   6.631  69.032  1.00  0.00    -0.332 A  
HETATM   39  C   UNL     1     -10.552   5.530  69.791  1.00  0.00    -0.388 A  
HETATM   40  C   UNL     1      -9.532   4.709  69.326  1.00  0.00    -0.231 A  
HETATM   41  C   UNL     1      -8.940   5.029  68.117  1.00  0.00    -0.108 A  
HETATM   42  N   UNL     1      -9.289   6.098  67.365  1.00  0.00    -0.115 NA 
ENDBRANCH  36  37
ENDBRANCH  35  36
ENDBRANCH  34  35
ENDBRANCH  26  28
ENDBRANCH  12  26
ENDBRANCH   3   4
ENDBRANCH   2   3
TORSDOF 11
ENDMDL
MODEL        8
REMARK 921   NORMALIZED FREE ENERGY PREDICTED BY IDOCK:   -6.67 KCAL/MOL
REMARK 922        TOTAL FREE ENERGY PREDICTED BY IDOCK:  -12.71 KCAL/MOL
REMARK 923 INTER-LIGAND FREE ENERGY PREDICTED BY IDOCK:  -10.88 KCAL/MOL
REMARK 924 INTRA-LIGAND FREE ENERGY PREDICTED BY IDOCK:   -1.83 KCAL/MOL
REMARK 927      BINDING AFFINITY PREDICTED BY RF-SCORE:    0.00 PKD
ROOT
HETATM    1  C   UNL     1     -12.187  16.445  72.861  1.00  0.00    -0.534 C  
HETATM    2  C   UNL     1     -13.233  15.371  73.104  1.00  0.00    -0.525 C  
ENDROOT
BRANCH   2   3
HETATM    3  O   UNL     1     -13.713  14.928  71.843  1.00  0.00    -0.352 OA 
BRANCH   3   4
HETATM    4  C   UNL     1     -13.125  13.871  71.207  1.00  0.00    -0.315 A  
HETATM    5  C   UNL     1     -12.467  13.806  69.978  1.00  0.00    -0.240 A  
HETATM    6  C   UNL     1     -11.485   7.606  70.508  1.00  0.00    -0.218 C  
HETATM    7  C   UNL     1     -12.014  12.561  69.491  1.00  0.00    -0.329 A  
HETATM    8  C   UNL     1     -12.532   9.214  71.917  1.00  0.00    -0.387 A  
HETATM    9  C   UNL     1     -13.265  12.686  71.936  1.00  0.00    -0.504 A  
HETATM   10  C   UNL     1     -12.149  11.355  70.243  1.00  0.00    -0.459 A  
HETATM   11  N   UNL     1     -12.981  10.425  72.315  1.00  0.00    -0.292 NA 
HETATM   12  C   UNL     1     -11.685  10.043  69.835  1.00  0.00    -0.125 A  
HETATM   13  C   UNL     1     -12.796  11.458  71.498  1.00  0.00    -0.403 A  
HETATM   14  N   UNL     1     -11.211   6.480  70.429  1.00  0.00    -0.327 NA 
HETATM   15  C   UNL     1     -11.898   8.960  70.711  1.00  0.00    -0.230 A  
BRANCH   5  16
HETATM   16  N   UNL     1     -12.218  14.946  69.191  1.00  0.00    -0.559 N  
HETATM   17  C   UNL     1     -11.042  15.654  69.339  1.00  0.00    -0.303 C  
HETATM   18  H   UNL     1     -12.911  15.250  68.507  1.00  0.00     0.000 HD 
HETATM   19  O   UNL     1     -10.176  15.406  70.170  1.00  0.00    -0.292 OA 
BRANCH  17  20
HETATM   20  C   UNL     1     -10.909  16.780  68.375  1.00  0.00    -0.355 C  
HETATM   21  C   UNL     1     -10.176  17.850  68.725  1.00  0.00    -0.362 C  
BRANCH  21  22
HETATM   22  C   UNL     1      -9.860  19.059  67.893  1.00  0.00    -0.337 C  
BRANCH  22  23
HETATM   23  N   UNL     1      -8.461  19.510  67.880  1.00  0.00    -0.309 NA 
HETATM   24  C   UNL     1      -7.569  18.490  68.447  1.00  0.00    -0.292 C  
HETATM   25  C   UNL     1      -8.058  19.764  66.488  1.00  0.00    -0.327 C  
ENDBRANCH  22  23
ENDBRANCH  21  22
ENDBRANCH  17  20
ENDBRANCH   5  16
BRANCH  12  26
HETATM   26  N   UNL     1     -11.044   9.932  68.554  1.00  0.00    -0.443 NA 
HETATM   27  H   UNL     1     -11.335  10.642  67.882  1.00  0.00     0.000 HD 
BRANCH  26  28
HETATM   28  C   UNL     1     -10.086   9.023  68.054  1.00  0.00    -0.190 A  
HETATM   29 CL   UNL     1      -6.305   8.056  68.966  1.00  0.00    -0.039 Cl 
HETATM   30  C   UNL     1     -10.387   8.086  67.060  1.00  0.00    -0.414 A  
HETATM   31  C   UNL     1      -7.867   8.027  68.216  1.00  0.00    -0.123 A  
HETATM   32  C   UNL     1      -9.450   7.111  66.660  1.00  0.00    -0.219 A  
HETATM   33  C   UNL     1      -8.796   9.003  68.600  1.00  0.00    -0.137 A  
HETATM   34  C   UNL     1      -8.188   7.058  67.254  1.00  0.00    -0.119 A  
BRANCH  34  35
HETATM   35  O   UNL     1      -7.249   6.090  67.024  1.00  0.00    -0.072 OA 
BRANCH  35  36
HETATM   36  C   UNL     1      -7.643   4.718  67.074  1.00  0.00    -0.087 C  
BRANCH  36  37
HETATM   37  C   UNL     1      -7.856   4.316  68.523  1.00  0.00    -0.074 A  
HETATM   38  C   UNL     1      -9.055   3.727  68.924  1.00  0.00    -0.201 A  
HETATM   39  C   UNL     1      -9.224   3.376  70.261  1.00  0.00    -0.226 A  
HETATM   40  C   UNL     1      -8.197   3.618  71.164  1.00  0.00    -0.077 A  
HETATM   41  C   UNL     1      -7.039   4.208  70.690  1.00  0.00    -0.037 A  
HETATM   42  N   UNL     1      -6.851   4.572  69.400  1.00  0.00    -0.045 NA 
ENDBRANCH  36  37
ENDBRANCH  35  36
ENDBRANCH  34  35
ENDBRANCH  26  28
ENDBRANCH  12  26
ENDBRANCH   3   4
ENDBRANCH   2   3
TORSDOF 11
ENDMDL
MODEL        9
REMARK 921   NORMALIZED FREE ENERGY PREDICTED BY IDOCK:   -6.65 KCAL/MOL
REMARK 922        TOTAL FREE ENERGY PREDICTED BY IDOCK:  -12.68 KCAL/MOL
REMARK 923 INTER-LIGAND FREE ENERGY PREDICTED BY IDOCK:  -10.58 KCAL/MOL
REMARK 924 INTRA-LIGAND FREE ENERGY PREDICTED BY IDOCK:   -2.10 KCAL/MOL
REMARK 927      BINDING AFFINITY PREDICTED BY RF-SCORE:    0.00 PKD
ROOT
HETATM    1  C   UNL     1     -12.515  15.820  74.277  1.00  0.00    -0.800 C  
HETATM    2  C   UNL     1     -13.190  15.099  73.122  1.00  0.00    -0.494 C  
ENDROOT
BRANCH   2   3
HETATM    3  O   UNL     1     -12.253  14.194  72.558  1.00  0.00    -0.063 OA 
BRANCH   3   4
HETATM    4  C   UNL     1     -12.174  14.029  71.203  1.00  0.00    -0.338 A  
HETATM    5  C   UNL     1     -12.276  12.876  70.424  1.00  0.00    -0.304 A  
HETATM    6  C   UNL     1     -11.219  16.047  65.084  1.00  0.00    -0.189 C  
HETATM    7  C   UNL     1     -12.071  12.953  69.029  1.00  0.00    -0.198 A  
HETATM    8  C   UNL     1     -11.367  16.707  67.366  1.00  0.00     0.253 A  
HETATM    9  C   UNL     1     -11.916  15.238  70.550  1.00  0.00    -0.384 A  
HETATM   10  C   UNL     1     -11.818  14.190  68.364  1.00  0.00    -0.388 A  
HETATM   11  N   UNL     1     -11.533  16.569  68.700  1.00  0.00    -0.248 NA 
HETATM   12  C   UNL     1     -11.627  14.365  66.938  1.00  0.00    -0.388 A  
HETATM   13  C   UNL     1     -11.747  15.346  69.178  1.00  0.00    -0.345 A  
HETATM   14  N   UNL     1     -11.046  16.453  64.010  1.00  0.00    -0.632 NA 
HETATM   15  C   UNL     1     -11.393  15.667  66.452  1.00  0.00     0.065 A  
BRANCH   5  16
HETATM   16  N   UNL     1     -12.593  11.618  70.970  1.00  0.00    -0.372 N  
HETATM   17  C   UNL     1     -11.755  10.539  70.771  1.00  0.00    -0.356 C  
HETATM   18  H   UNL     1     -13.447  11.503  71.516  1.00  0.00     0.000 HD 
HETATM   19  O   UNL     1     -10.740  10.559  70.084  1.00  0.00    -0.268 OA 
BRANCH  17  20
HETATM   20  C   UNL     1     -12.200   9.311  71.483  1.00  0.00    -0.439 C  
HETATM   21  C   UNL     1     -11.285   8.566  72.126  1.00  0.00    -0.432 C  
BRANCH  21  22
HETATM   22  C   UNL     1     -11.520   7.334  72.952  1.00  0.00    -0.183 C  
BRANCH  22  23
HETATM   23  N   UNL     1     -10.386   6.841  73.746  1.00  0.00    -0.339 NA 
HETATM   24  C   UNL     1      -9.822   5.616  73.164  1.00  0.00    -0.167 C  
HETATM   25  C   UNL     1      -9.339   7.874  73.770  1.00  0.00    -0.147 C  
ENDBRANCH  22  23
ENDBRANCH  21  22
ENDBRANCH  17  20
ENDBRANCH   5  16
BRANCH  12  26
HETATM   26  N   UNL     1     -11.681  13.191  66.111  1.00  0.00    -0.362 NA 
HETATM   27  H   UNL     1     -12.609  12.985  65.742  1.00  0.00     0.000 HD 
BRANCH  26  28
HETATM   28  C   UNL     1     -10.686  12.270  65.714  1.00  0.00    -0.263 A  
HETATM   29 CL   UNL     1      -7.204  10.988  67.227  1.00  0.00    -0.096 Cl 
HETATM   30  C   UNL     1     -10.830  11.445  64.594  1.00  0.00    -0.359 A  
HETATM   31  C   UNL     1      -8.589  11.125  66.195  1.00  0.00    -0.172 A  
HETATM   32  C   UNL     1      -9.879  10.452  64.285  1.00  0.00    -0.388 A  
HETATM   33  C   UNL     1      -9.530  12.120  66.490  1.00  0.00    -0.235 A  
HETATM   34  C   UNL     1      -8.760  10.267  65.099  1.00  0.00    -0.175 A  
BRANCH  34  35
HETATM   35  O   UNL     1      -7.839   9.264  64.957  1.00  0.00    -0.105 OA 
BRANCH  35  36
HETATM   36  C   UNL     1      -8.256   7.911  65.141  1.00  0.00    -0.141 C  
BRANCH  36  37
HETATM   37  C   UNL     1      -8.735   7.730  66.570  1.00  0.00    -0.148 A  
HETATM   38  C   UNL     1     -10.100   7.675  66.856  1.00  0.00    -0.348 A  
HETATM   39  C   UNL     1     -10.510   7.517  68.178  1.00  0.00    -0.233 A  
HETATM   40  C   UNL     1      -9.553   7.414  69.181  1.00  0.00    -0.156 A  
HETATM   41  C   UNL     1      -8.220   7.480  68.817  1.00  0.00    -0.129 A  
HETATM   42  N   UNL     1      -7.792   7.647  67.544  1.00  0.00    -0.117 NA 
ENDBRANCH  36  37
ENDBRANCH  35  36
ENDBRANCH  34  35
ENDBRANCH  26  28
ENDBRANCH  12  26
ENDBRANCH   3   4
ENDBRANCH   2   3
TORSDOF 11
ENDMDL
MODEL       10
REMARK 921   NORMALIZED FREE ENERGY PREDICTED BY IDOCK:   -6.64 KCAL/MOL
REMARK 922        TOTAL FREE ENERGY PREDICTED BY IDOCK:  -12.66 KCAL/MOL
REMARK 923 INTER-LIGAND FREE ENERGY PREDICTED BY IDOCK:  -10.89 KCAL/MOL
REMARK 924 INTRA-LIGAND FREE ENERGY PREDICTED BY IDOCK:   -1.77 KCAL/MOL
REMARK 927      BINDING AFFINITY PREDICTED BY RF-SCORE:    0.00 PKD
ROOT
HETATM    1  C   UNL     1     -13.006  15.241  73.336  1.00  0.00    -0.656 C  
HETATM    2  C   UNL     1     -13.510  14.061  72.524  1.00  0.00    -0.558 C  
ENDROOT
BRANCH   2   3
HETATM    3  O   UNL     1     -13.660  14.482  71.176  1.00  0.00    -0.369 OA 
BRANCH   3   4
HETATM    4  C   UNL     1     -12.587  14.497  70.329  1.00  0.00    -0.323 A  
HETATM    5  C   UNL     1     -11.698  13.481  69.977  1.00  0.00    -0.241 A  
HETATM    6  C   UNL     1      -8.323  17.321  66.296  1.00  0.00    -0.254 C  
HETATM    7  C   UNL     1     -10.602  13.770  69.135  1.00  0.00    -0.099 A  
HETATM    8  C   UNL     1     -10.270  17.639  67.628  1.00  0.00    -0.351 A  
HETATM    9  C   UNL     1     -12.377  15.767  69.785  1.00  0.00    -0.161 A  
HETATM   10  C   UNL     1     -10.396  15.065  68.572  1.00  0.00    -0.230 A  
HETATM   11  N   UNL     1     -11.277  17.316  68.468  1.00  0.00    -0.010 NA 
HETATM   12  C   UNL     1      -9.320  15.441  67.676  1.00  0.00    -0.203 A  
HETATM   13  C   UNL     1     -11.331  16.068  68.926  1.00  0.00    -0.370 A  
HETATM   14  N   UNL     1      -7.589  17.866  65.580  1.00  0.00    -0.527 NA 
HETATM   15  C   UNL     1      -9.276  16.770  67.209  1.00  0.00    -0.234 A  
BRANCH   5  16
HETATM   16  N   UNL     1     -11.850  12.153  70.419  1.00  0.00    -0.525 N  
HETATM   17  C   UNL     1     -12.042  11.132  69.510  1.00  0.00    -0.326 C  
HETATM   18  H   UNL     1     -11.820  11.945  71.417  1.00  0.00     0.000 HD 
HETATM   19  O   UNL     1     -12.153  11.285  68.298  1.00  0.00    -0.619 OA 
BRANCH  17  20
HETATM   20  C   UNL     1     -12.104   9.787  70.143  1.00  0.00    -0.018 C  
HETATM   21  C   UNL     1     -11.985   9.692  71.478  1.00  0.00    -0.485 C  
BRANCH  21  22
HETATM   22  C   UNL     1     -12.079   8.455  72.323  1.00  0.00    -0.392 C  
BRANCH  22  23
HETATM   23  N   UNL     1     -12.611   7.247  71.676  1.00  0.00    -0.353 NA 
HETATM   24  C   UNL     1     -12.085   6.030  72.308  1.00  0.00    -0.140 C  
HETATM   25  C   UNL     1     -14.076   7.247  71.805  1.00  0.00    -0.348 C  
ENDBRANCH  22  23
ENDBRANCH  21  22
ENDBRANCH  17  20
ENDBRANCH   5  16
BRANCH  12  26
HETATM   26  N   UNL     1      -8.360  14.430  67.329  1.00  0.00    -0.203 NA 
HETATM   27  H   UNL     1      -7.393  14.754  67.342  1.00  0.00     0.000 HD 
BRANCH  26  28
HETATM   28  C   UNL     1      -8.507  13.070  66.973  1.00  0.00    -0.136 A  
HETATM   29 CL   UNL     1     -10.620  11.038  64.242  1.00  0.00    -0.430 Cl 
HETATM   30  C   UNL     1      -7.734  12.056  67.546  1.00  0.00    -0.155 A  
HETATM   31  C   UNL     1      -9.491  11.390  65.507  1.00  0.00    -0.227 A  
HETATM   32  C   UNL     1      -7.814  10.724  67.092  1.00  0.00    -0.124 A  
HETATM   33  C   UNL     1      -9.417  12.710  65.971  1.00  0.00    -0.140 A  
HETATM   34  C   UNL     1      -8.678  10.383  66.050  1.00  0.00    -0.152 A  
BRANCH  34  35
HETATM   35  O   UNL     1      -8.753   9.152  65.458  1.00  0.00    -0.158 OA 
BRANCH  35  36
HETATM   36  C   UNL     1      -8.156   8.032  66.114  1.00  0.00    -0.111 C  
BRANCH  36  37
HETATM   37  C   UNL     1      -9.166   7.421  67.068  1.00  0.00    -0.142 A  
HETATM   38  C   UNL     1      -8.987   7.525  68.448  1.00  0.00    -0.128 A  
HETATM   39  C   UNL     1      -9.927   6.947  69.299  1.00  0.00    -0.164 A  
HETATM   40  C   UNL     1     -11.020   6.283  68.757  1.00  0.00    -0.424 A  
HETATM   41  C   UNL     1     -11.126   6.222  67.379  1.00  0.00    -0.287 A  
HETATM   42  N   UNL     1     -10.223   6.761  66.527  1.00  0.00    -0.113 NA 
ENDBRANCH  36  37
ENDBRANCH  35  36
ENDBRANCH  34  35
ENDBRANCH  26  28
ENDBRANCH  12  26
ENDBRANCH   3   4
ENDBRANCH   2   3
TORSDOF 11
ENDMDL
MODEL       11
REMARK 921   NORMALIZED FREE ENERGY PREDICTED BY IDOCK:   -6.59 KCAL/MOL
REMARK 922        TOTAL FREE ENERGY PREDICTED BY IDOCK:  -12.59 KCAL/MOL
REMARK 923 INTER-LIGAND FREE ENERGY PREDICTED BY IDOCK:  -10.41 KCAL/MOL
REMARK 924 INTRA-LIGAND FREE ENERGY PREDICTED BY IDOCK:   -2.18 KCAL/MOL
REMARK 927      BINDING AFFINITY PREDICTED BY RF-SCORE:    0.00 PKD
ROOT
HETATM    1  C   UNL     1      -6.707   6.651  68.096  1.00  0.00    -0.068 C  
HETATM    2  C   UNL     1      -7.359   7.136  66.812  1.00  0.00    -0.084 C  
ENDROOT
BRANCH   2   3
HETATM    3  O   UNL     1      -8.754   7.266  67.045  1.00  0.00    -0.119 OA 
BRANCH   3   4
HETATM    4  C   UNL     1      -9.347   8.497  67.045  1.00  0.00    -0.161 A  
HETATM    5  C   UNL     1      -9.785   9.291  68.106  1.00  0.00    -0.150 A  
HETATM    6  C   UNL     1     -11.970  13.755  64.235  1.00  0.00    -0.443 C  
HETATM    7  C   UNL     1     -10.455  10.505  67.842  1.00  0.00    -0.247 A  
HETATM    8  C   UNL     1     -10.873  11.676  63.866  1.00  0.00    -0.405 A  
HETATM    9  C   UNL     1      -9.553   8.971  65.746  1.00  0.00    -0.287 A  
HETATM   10  C   UNL     1     -10.654  10.991  66.514  1.00  0.00    -0.310 A  
HETATM   11  N   UNL     1     -10.274  10.505  64.176  1.00  0.00    -0.303 NA 
HETATM   12  C   UNL     1     -11.301  12.238  66.155  1.00  0.00    -0.353 A  
HETATM   13  C   UNL     1     -10.175  10.177  65.461  1.00  0.00    -0.218 A  
HETATM   14  N   UNL     1     -12.424  14.675  63.691  1.00  0.00    -0.664 NA 
HETATM   15  C   UNL     1     -11.404  12.563  64.787  1.00  0.00    -0.354 A  
BRANCH   5  16
HETATM   16  N   UNL     1      -9.576   8.939  69.452  1.00  0.00    -0.161 N  
HETATM   17  C   UNL     1      -8.403   9.290  70.092  1.00  0.00    -0.178 C  
HETATM   18  H   UNL     1     -10.294   8.423  69.959  1.00  0.00     0.000 HD 
HETATM   19  O   UNL     1      -7.456   9.857  69.557  1.00  0.00    -0.085 OA 
BRANCH  17  20
HETATM   20  C   UNL     1      -8.382   8.909  71.530  1.00  0.00    -0.163 C  
HETATM   21  C   UNL     1      -9.465   8.315  72.060  1.00  0.00    -0.304 C  
BRANCH  21  22
HETATM   22  C   UNL     1      -9.637   7.797  73.458  1.00  0.00    -0.270 C  
BRANCH  22  23
HETATM   23  N   UNL     1     -10.026   6.386  73.600  1.00  0.00    -0.194 NA 
HETATM   24  C   UNL     1     -11.149   6.053  72.715  1.00  0.00    -0.269 C  
HETATM   25  C   UNL     1      -8.878   5.540  73.241  1.00  0.00    -0.121 C  
ENDBRANCH  22  23
ENDBRANCH  21  22
ENDBRANCH  17  20
ENDBRANCH   5  16
BRANCH  12  26
HETATM   26  N   UNL     1     -11.804  13.059  67.221  1.00  0.00    -0.372 NA 
HETATM   27  H   UNL     1     -12.710  12.759  67.583  1.00  0.00     0.000 HD 
BRANCH  26  28
HETATM   28  C   UNL     1     -11.277  14.203  67.860  1.00  0.00    -0.279 A  
HETATM   29 CL   UNL     1      -7.859  16.283  67.650  1.00  0.00    -0.154 Cl 
HETATM   30  C   UNL     1     -12.030  14.983  68.744  1.00  0.00    -0.282 A  
HETATM   31  C   UNL     1      -9.471  15.824  68.087  1.00  0.00    -0.199 A  
HETATM   32  C   UNL     1     -11.524  16.185  69.278  1.00  0.00    -0.304 A  
HETATM   33  C   UNL     1      -9.973  14.623  67.569  1.00  0.00    -0.223 A  
HETATM   34  C   UNL     1     -10.246  16.629  68.935  1.00  0.00    -0.284 A  
BRANCH  34  35
HETATM   35  O   UNL     1      -9.703  17.830  69.302  1.00  0.00    -0.146 OA 
BRANCH  35  36
HETATM   36  C   UNL     1     -10.017  18.994  68.538  1.00  0.00    -0.421 C  
BRANCH  36  37
HETATM   37  C   UNL     1      -8.767  19.465  67.817  1.00  0.00    -0.311 A  
HETATM   38  C   UNL     1      -8.738  19.534  66.423  1.00  0.00    -0.389 A  
HETATM   39  C   UNL     1      -7.574  19.962  65.789  1.00  0.00    -0.309 A  
HETATM   40  C   UNL     1      -6.470  20.313  66.556  1.00  0.00    -0.247 A  
HETATM   41  C   UNL     1      -6.576  20.216  67.932  1.00  0.00    -0.263 A  
HETATM   42  N   UNL     1      -7.687  19.790  68.575  1.00  0.00    -0.319 NA 
ENDBRANCH  36  37
ENDBRANCH  35  36
ENDBRANCH  34  35
ENDBRANCH  26  28
ENDBRANCH  12  26
ENDBRANCH   3   4
ENDBRANCH   2   3
TORSDOF 11
ENDMDL
MODEL       12
REMARK 921   NORMALIZED FREE ENERGY PREDICTED BY IDOCK:   -6.59 KCAL/MOL
REMARK 922        TOTAL FREE ENERGY PREDICTED BY IDOCK:  -12.59 KCAL/MOL
REMARK 923 INTER-LIGAND FREE ENERGY PREDICTED BY IDOCK:  -11.27 KCAL/MOL
REMARK 924 INTRA-LIGAND FREE ENERGY PREDICTED BY IDOCK:   -1.32 KCAL/MOL
REMARK 927      BINDING AFFINITY PREDICTED BY RF-SCORE:    0.00 PKD
ROOT
HETATM    1  C   UNL     1      -8.258  18.535  66.342  1.00  0.00    -0.289 C  
HETATM    2  C   UNL     1      -9.564  17.935  65.846  1.00  0.00     0.052 C  
ENDROOT
BRANCH   2   3
HETATM    3  O   UNL     1      -9.384  16.533  65.714  1.00  0.00    -0.487 OA 
BRANCH   3   4
HETATM    4  C   UNL     1      -9.976  15.670  66.593  1.00  0.00    -0.258 A  
HETATM    5  C   UNL     1     -10.286  14.316  66.463  1.00  0.00    -0.276 A  
HETATM    6  C   UNL     1     -12.931  14.078  72.175  1.00  0.00    -0.369 C  
HETATM    7  C   UNL     1     -10.986  13.654  67.495  1.00  0.00    -0.282 A  
HETATM    8  C   UNL     1     -11.881  15.820  70.939  1.00  0.00    -0.414 A  
HETATM    9  C   UNL     1     -10.338  16.312  67.782  1.00  0.00    -0.287 A  
HETATM   10  C   UNL     1     -11.344  14.310  68.712  1.00  0.00    -0.303 A  
HETATM   11  N   UNL     1     -11.246  16.412  69.904  1.00  0.00    -0.307 NA 
HETATM   12  C   UNL     1     -12.032  13.701  69.833  1.00  0.00    -0.348 A  
HETATM   13  C   UNL     1     -10.993  15.676  68.825  1.00  0.00    -0.281 A  
HETATM   14  N   UNL     1     -13.449  13.839  73.187  1.00  0.00    -0.403 NA 
HETATM   15  C   UNL     1     -12.300  14.500  70.963  1.00  0.00    -0.417 A  
BRANCH   5  16
HETATM   16  N   UNL     1      -9.915  13.559  65.335  1.00  0.00    -0.488 N  
HETATM   17  C   UNL     1     -10.877  12.927  64.572  1.00  0.00    -0.363 C  
HETATM   18  H   UNL     1      -8.931  13.477  65.081  1.00  0.00     0.000 HD 
HETATM   19  O   UNL     1     -12.076  12.914  64.826  1.00  0.00    -0.373 OA 
BRANCH  17  20
HETATM   20  C   UNL     1     -10.318  12.239  63.376  1.00  0.00    -0.395 C  
HETATM   21  C   UNL     1      -9.740  11.035  63.531  1.00  0.00    -0.375 C  
BRANCH  21  22
HETATM   22  C   UNL     1      -9.172  10.145  62.464  1.00  0.00    -0.300 C  
BRANCH  22  23
HETATM   23  N   UNL     1      -8.094   9.231  62.866  1.00  0.00    -0.145 NA 
HETATM   24  C   UNL     1      -6.828   9.952  63.051  1.00  0.00    -0.122 C  
HETATM   25  C   UNL     1      -8.462   8.595  64.140  1.00  0.00    -0.076 C  
ENDBRANCH  22  23
ENDBRANCH  21  22
ENDBRANCH  17  20
ENDBRANCH   5  16
BRANCH  12  26
HETATM   26  N   UNL     1     -12.406  12.319  69.714  1.00  0.00    -0.091 NA 
HETATM   27  H   UNL     1     -13.276  12.167  69.203  1.00  0.00     0.000 HD 
BRANCH  26  28
HETATM   28  C   UNL     1     -11.792  11.132  70.173  1.00  0.00    -0.365 A  
HETATM   29 CL   UNL     1      -8.381   9.182  69.385  1.00  0.00    -0.119 Cl 
HETATM   30  C   UNL     1     -12.316  10.374  71.225  1.00  0.00    -0.507 A  
HETATM   31  C   UNL     1      -9.886   9.614  70.127  1.00  0.00    -0.262 A  
HETATM   32  C   UNL     1     -11.626   9.260  71.744  1.00  0.00    -0.458 A  
HETATM   33  C   UNL     1     -10.583  10.712  69.606  1.00  0.00    -0.260 A  
HETATM   34  C   UNL     1     -10.390   8.884  71.214  1.00  0.00    -0.285 A  
BRANCH  34  35
HETATM   35  O   UNL     1      -9.586   7.896  71.713  1.00  0.00    -0.154 OA 
BRANCH  35  36
HETATM   36  C   UNL     1      -9.510   7.713  73.127  1.00  0.00    -0.243 C  
BRANCH  36  37
HETATM   37  C   UNL     1      -9.920   6.291  73.465  1.00  0.00    -0.193 A  
HETATM   38  C   UNL     1      -9.090   5.482  74.243  1.00  0.00    -0.122 A  
HETATM   39  C   UNL     1      -9.489   4.179  74.530  1.00  0.00    -0.133 A  
HETATM   40  C   UNL     1     -10.703   3.714  74.039  1.00  0.00    -0.284 A  
HETATM   41  C   UNL     1     -11.468   4.575  73.273  1.00  0.00    -0.219 A  
HETATM   42  N   UNL     1     -11.101   5.841  72.966  1.00  0.00    -0.270 NA 
ENDBRANCH  36  37
ENDBRANCH  35  36
ENDBRANCH  34  35
ENDBRANCH  26  28
ENDBRANCH  12  26
ENDBRANCH   3   4
ENDBRANCH   2   3
TORSDOF 11
ENDMDL
MODEL       13
REMARK 921   NORMALIZED FREE ENERGY PREDICTED BY IDOCK:   -6.56 KCAL/MOL
REMARK 922        TOTAL FREE ENERGY PREDICTED BY IDOCK:  -12.53 KCAL/MOL
REMARK 923 INTER-LIGAND FREE ENERGY PREDICTED BY IDOCK:   -9.97 KCAL/MOL
REMARK 924 INTRA-LIGAND FREE ENERGY PREDICTED BY IDOCK:   -2.56 KCAL/MOL
REMARK 927      BINDING AFFINITY PREDICTED BY RF-SCORE:    0.00 PKD
ROOT
HETATM    1  C   UNL     1      -9.066  10.968  62.770  1.00  0.00    -0.361 C  
HETATM    2  C   UNL     1     -10.083  11.101  63.891  1.00  0.00    -0.348 C  
ENDROOT
BRANCH   2   3
HETATM    3  O   UNL     1      -9.386  11.063  65.128  1.00  0.00    -0.210 OA 
BRANCH   3   4
HETATM    4  C   UNL     1     -10.062  10.878  66.301  1.00  0.00    -0.233 A  
HETATM    5  C   UNL     1     -10.515   9.707  66.910  1.00  0.00    -0.212 A  
HETATM    6  C   UNL     1     -13.141  12.865  71.686  1.00  0.00    -0.335 C  
HETATM    7  C   UNL     1     -11.276   9.783  68.096  1.00  0.00    -0.073 A  
HETATM    8  C   UNL     1     -11.918  13.547  69.761  1.00  0.00    -0.340 A  
HETATM    9  C   UNL     1     -10.347  12.094  66.930  1.00  0.00    -0.235 A  
HETATM   10  C   UNL     1     -11.556  11.025  68.742  1.00  0.00    -0.386 A  
HETATM   11  N   UNL     1     -11.229  13.417  68.606  1.00  0.00    -0.254 NA 
HETATM   12  C   UNL     1     -12.299  11.192  69.975  1.00  0.00    -0.279 A  
HETATM   13  C   UNL     1     -11.060  12.193  68.115  1.00  0.00    -0.248 A  
HETATM   14  N   UNL     1     -13.676  13.266  72.635  1.00  0.00    -0.695 NA 
HETATM   15  C   UNL     1     -12.474  12.498  70.475  1.00  0.00    -0.266 A  
BRANCH   5  16
HETATM   16  N   UNL     1     -10.232   8.427  66.395  1.00  0.00    -0.433 N  
HETATM   17  C   UNL     1      -9.078   7.765  66.764  1.00  0.00    -0.154 C  
HETATM   18  H   UNL     1     -10.884   7.987  65.746  1.00  0.00     0.000 HD 
HETATM   19  O   UNL     1      -8.205   8.230  67.488  1.00  0.00    -0.119 OA 
BRANCH  17  20
HETATM   20  C   UNL     1      -8.978   6.396  66.189  1.00  0.00    -0.162 C  
HETATM   21  C   UNL     1     -10.053   5.591  66.242  1.00  0.00    -0.185 C  
BRANCH  21  22
HETATM   22  C   UNL     1     -10.193   4.208  65.675  1.00  0.00    -0.139 C  
BRANCH  22  23
HETATM   23  N   UNL     1      -9.076   3.708  64.860  1.00  0.00    -0.129 NA 
HETATM   24  C   UNL     1      -8.731   2.327  65.222  1.00  0.00    -0.118 C  
HETATM   25  C   UNL     1      -9.474   3.736  63.444  1.00  0.00    -0.132 C  
ENDBRANCH  22  23
ENDBRANCH  21  22
ENDBRANCH  17  20
ENDBRANCH   5  16
BRANCH  12  26
HETATM   26  N   UNL     1     -12.819  10.010  70.605  1.00  0.00    -0.539 NA 
HETATM   27  H   UNL     1     -13.837   9.958  70.614  1.00  0.00     0.000 HD 
BRANCH  26  28
HETATM   28  C   UNL     1     -12.180   8.906  71.214  1.00  0.00    -0.299 A  
HETATM   29 CL   UNL     1      -8.792   8.340  73.278  1.00  0.00    -0.312 Cl 
HETATM   30  C   UNL     1     -12.776   7.644  71.294  1.00  0.00    -0.306 A  
HETATM   31  C   UNL     1     -10.329   8.034  72.538  1.00  0.00    -0.306 A  
HETATM   32  C   UNL     1     -12.172   6.589  72.009  1.00  0.00    -0.343 A  
HETATM   33  C   UNL     1     -10.927   9.075  71.816  1.00  0.00    -0.443 A  
HETATM   34  C   UNL     1     -10.952   6.783  72.659  1.00  0.00    -0.257 A  
BRANCH  34  35
HETATM   35  O   UNL     1     -10.337   5.869  73.470  1.00  0.00    -0.209 OA 
BRANCH  35  36
HETATM   36  C   UNL     1     -10.061   4.565  72.958  1.00  0.00    -0.153 C  
BRANCH  36  37
HETATM   37  C   UNL     1      -9.169   4.691  71.737  1.00  0.00    -0.137 A  
HETATM   38  C   UNL     1      -9.613   4.253  70.488  1.00  0.00    -0.267 A  
HETATM   39  C   UNL     1      -8.768   4.374  69.387  1.00  0.00    -0.121 A  
HETATM   40  C   UNL     1      -7.506   4.929  69.554  1.00  0.00    -0.056 A  
HETATM   41  C   UNL     1      -7.138   5.338  70.824  1.00  0.00    -0.064 A  
HETATM   42  N   UNL     1      -7.930   5.220  71.914  1.00  0.00    -0.111 NA 
ENDBRANCH  36  37
ENDBRANCH  35  36
ENDBRANCH  34  35
ENDBRANCH  26  28
ENDBRANCH  12  26
ENDBRANCH   3   4
ENDBRANCH   2   3
TORSDOF 11
ENDMDL
MODEL       14
REMARK 921   NORMALIZED FREE ENERGY PREDICTED BY IDOCK:   -6.55 KCAL/MOL
REMARK 922        TOTAL FREE ENERGY PREDICTED BY IDOCK:  -12.52 KCAL/MOL
REMARK 923 INTER-LIGAND FREE ENERGY PREDICTED BY IDOCK:  -10.84 KCAL/MOL
REMARK 924 INTRA-LIGAND FREE ENERGY PREDICTED BY IDOCK:   -1.68 KCAL/MOL
REMARK 927      BINDING AFFINITY PREDICTED BY RF-SCORE:    0.00 PKD
ROOT
HETATM    1  C   UNL     1     -12.388  15.488  63.957  1.00  0.00     0.150 C  
HETATM    2  C   UNL     1     -11.261  16.435  64.331  1.00  0.00    -0.016 C  
ENDROOT
BRANCH   2   3
HETATM    3  O   UNL     1     -10.277  15.695  65.038  1.00  0.00    -0.413 OA 
BRANCH   3   4
HETATM    4  C   UNL     1     -10.636  14.852  66.052  1.00  0.00    -0.315 A  
HETATM    5  C   UNL     1     -10.595  13.459  66.128  1.00  0.00    -0.292 A  
HETATM    6  C   UNL     1     -13.113  13.417  71.903  1.00  0.00    -0.383 C  
HETATM    7  C   UNL     1     -11.109  12.804  67.268  1.00  0.00    -0.314 A  
HETATM    8  C   UNL     1     -12.530  15.163  70.394  1.00  0.00    -0.368 A  
HETATM    9  C   UNL     1     -11.150  15.552  67.148  1.00  0.00    -0.256 A  
HETATM   10  C   UNL     1     -11.624  13.522  68.390  1.00  0.00    -0.378 A  
HETATM   11  N   UNL     1     -12.061  15.735  69.263  1.00  0.00    -0.297 NA 
HETATM   12  C   UNL     1     -12.141  12.934  69.610  1.00  0.00    -0.226 A  
HETATM   13  C   UNL     1     -11.628  14.934  68.294  1.00  0.00    -0.334 A  
HETATM   14  N   UNL     1     -13.558  13.209  72.955  1.00  0.00    -0.458 NA 
HETATM   15  C   UNL     1     -12.604  13.799  70.621  1.00  0.00    -0.386 A  
BRANCH   5  16
HETATM   16  N   UNL     1     -10.042  12.660  65.109  1.00  0.00    -0.385 N  
HETATM   17  C   UNL     1     -10.860  12.058  64.174  1.00  0.00    -0.352 C  
HETATM   18  H   UNL     1      -9.033  12.526  65.062  1.00  0.00     0.000 HD 
HETATM   19  O   UNL     1     -12.085  12.109  64.178  1.00  0.00    -0.400 OA 
BRANCH  17  20
HETATM   20  C   UNL     1     -10.106  11.318  63.125  1.00  0.00    -0.385 C  
HETATM   21  C   UNL     1      -9.516  10.155  63.450  1.00  0.00    -0.308 C  
BRANCH  21  22
HETATM   22  C   UNL     1      -8.766   9.222  62.545  1.00  0.00    -0.230 C  
BRANCH  22  23
HETATM   23  N   UNL     1      -7.786   8.327  63.178  1.00  0.00    -0.131 NA 
HETATM   24  C   UNL     1      -8.024   8.216  64.623  1.00  0.00    -0.149 C  
HETATM   25  C   UNL     1      -7.908   6.990  62.578  1.00  0.00    -0.127 C  
ENDBRANCH  22  23
ENDBRANCH  21  22
ENDBRANCH  17  20
ENDBRANCH   5  16
BRANCH  12  26
HETATM   26  N   UNL     1     -12.156  11.500  69.703  1.00  0.00    -0.310 NA 
HETATM   27  H   UNL     1     -13.000  11.068  69.328  1.00  0.00     0.000 HD 
BRANCH  26  28
HETATM   28  C   UNL     1     -11.217  10.578  70.218  1.00  0.00    -0.313 A  
HETATM   29 CL   UNL     1     -11.232   7.771  73.077  1.00  0.00    -0.448 Cl 
HETATM   30  C   UNL     1      -9.952  10.398  69.650  1.00  0.00    -0.209 A  
HETATM   31  C   UNL     1     -10.706   8.753  71.751  1.00  0.00    -0.343 A  
HETATM   32  C   UNL     1      -9.077   9.392  70.106  1.00  0.00    -0.262 A  
HETATM   33  C   UNL     1     -11.567   9.764  71.303  1.00  0.00    -0.465 A  
HETATM   34  C   UNL     1      -9.458   8.543  71.147  1.00  0.00    -0.195 A  
BRANCH  34  35
HETATM   35  O   UNL     1      -8.738   7.466  71.590  1.00  0.00    -0.116 OA 
BRANCH  35  36
HETATM   36  C   UNL     1      -9.173   6.152  71.240  1.00  0.00    -0.150 C  
BRANCH  36  37
HETATM   37  C   UNL     1      -9.420   6.094  69.743  1.00  0.00    -0.150 A  
HETATM   38  C   UNL     1     -10.722   6.059  69.242  1.00  0.00    -0.401 A  
HETATM   39  C   UNL     1     -10.917   5.998  67.864  1.00  0.00    -0.334 A  
HETATM   40  C   UNL     1      -9.814   5.976  67.020  1.00  0.00    -0.179 A  
HETATM   41  C   UNL     1      -8.555   6.012  67.594  1.00  0.00    -0.106 A  
HETATM   42  N   UNL     1      -8.334   6.057  68.928  1.00  0.00    -0.107 NA 
ENDBRANCH  36  37
ENDBRANCH  35  36
ENDBRANCH  34  35
ENDBRANCH  26  28
ENDBRANCH  12  26
ENDBRANCH   3   4
ENDBRANCH   2   3
TORSDOF 11
ENDMDL
MODEL       15
REMARK 921   NORMALIZED FREE ENERGY PREDICTED BY IDOCK:   -6.54 KCAL/MOL
REMARK 922        TOTAL FREE ENERGY PREDICTED BY IDOCK:  -12.50 KCAL/MOL
REMARK 923 INTER-LIGAND FREE ENERGY PREDICTED BY IDOCK:  -11.21 KCAL/MOL
REMARK 924 INTRA-LIGAND FREE ENERGY PREDICTED BY IDOCK:   -1.29 KCAL/MOL
REMARK 927      BINDING AFFINITY PREDICTED BY RF-SCORE:    0.00 PKD
ROOT
HETATM    1  C   UNL     1     -10.597   4.419  72.788  1.00  0.00    -0.254 C  
HETATM    2  C   UNL     1     -10.954   5.873  73.047  1.00  0.00    -0.268 C  
ENDROOT
BRANCH   2   3
HETATM    3  O   UNL     1     -11.880   6.284  72.052  1.00  0.00    -0.320 OA 
BRANCH   3   4
HETATM    4  C   UNL     1     -11.631   7.389  71.286  1.00  0.00    -0.280 A  
HETATM    5  C   UNL     1     -10.813   7.549  70.167  1.00  0.00    -0.249 A  
HETATM    6  C   UNL     1     -12.125  13.695  69.731  1.00  0.00    -0.334 C  
HETATM    7  C   UNL     1     -10.653   8.828  69.593  1.00  0.00    -0.220 A  
HETATM    8  C   UNL     1     -12.835  11.981  71.223  1.00  0.00    -0.265 A  
HETATM    9  C   UNL     1     -12.306   8.514  71.769  1.00  0.00    -0.388 A  
HETATM   10  C   UNL     1     -11.352   9.974  70.082  1.00  0.00    -0.357 A  
HETATM   11  N   UNL     1     -12.919  10.742  71.755  1.00  0.00    -0.474 NA 
HETATM   12  C   UNL     1     -11.272  11.314  69.535  1.00  0.00    -0.272 A  
HETATM   13  C   UNL     1     -12.195   9.774  71.201  1.00  0.00    -0.362 A  
HETATM   14  N   UNL     1     -12.247  14.824  69.490  1.00  0.00    -0.276 NA 
HETATM   15  C   UNL     1     -12.040  12.327  70.143  1.00  0.00    -0.364 A  
BRANCH   5  16
HETATM   16  N   UNL     1     -10.136   6.472  69.563  1.00  0.00    -0.172 N  
HETATM   17  C   UNL     1      -8.870   6.119  69.985  1.00  0.00    -0.144 C  
HETATM   18  H   UNL     1     -10.584   5.951  68.810  1.00  0.00     0.000 HD 
HETATM   19  O   UNL     1      -8.223   6.717  70.838  1.00  0.00    -0.120 OA 
BRANCH  17  20
HETATM   20  C   UNL     1      -8.336   4.913  69.294  1.00  0.00    -0.085 C  
HETATM   21  C   UNL     1      -9.180   4.147  68.582  1.00  0.00    -0.203 C  
BRANCH  21  22
HETATM   22  C   UNL     1      -8.850   2.933  67.763  1.00  0.00    -0.135 C  
BRANCH  22  23
HETATM   23  N   UNL     1      -8.403   3.165  66.382  1.00  0.00    -0.097 NA 
HETATM   24  C   UNL     1      -7.269   2.297  66.038  1.00  0.00    -0.064 C  
HETATM   25  C   UNL     1      -9.516   2.867  65.468  1.00  0.00    -0.018 C  
ENDBRANCH  22  23
ENDBRANCH  21  22
ENDBRANCH  17  20
ENDBRANCH   5  16
BRANCH  12  26
HETATM   26  N   UNL     1     -10.403  11.524  68.410  1.00  0.00    -0.195 NA 
HETATM   27  H   UNL     1      -9.817  10.720  68.183  1.00  0.00     0.000 HD 
BRANCH  26  28
HETATM   28  C   UNL     1     -10.210  12.636  67.561  1.00  0.00    -0.215 A  
HETATM   29 CL   UNL     1     -12.253  14.338  64.563  1.00  0.00    -0.479 Cl 
HETATM   30  C   UNL     1      -9.148  13.530  67.724  1.00  0.00    -0.207 A  
HETATM   31  C   UNL     1     -11.044  14.069  65.774  1.00  0.00    -0.305 A  
HETATM   32  C   UNL     1      -9.041  14.698  66.941  1.00  0.00    -0.272 A  
HETATM   33  C   UNL     1     -11.138  12.904  66.546  1.00  0.00    -0.318 A  
HETATM   34  C   UNL     1     -10.004  14.990  65.973  1.00  0.00    -0.310 A  
BRANCH  34  35
HETATM   35  O   UNL     1     -10.061  16.144  65.240  1.00  0.00    -0.505 OA 
BRANCH  35  36
HETATM   36  C   UNL     1     -10.899  17.209  65.690  1.00  0.00    -0.049 C  
BRANCH  36  37
HETATM   37  C   UNL     1     -10.040  18.263  66.365  1.00  0.00    -0.396 A  
HETATM   38  C   UNL     1     -10.631  19.307  67.077  1.00  0.00    -0.571 A  
HETATM   39  C   UNL     1      -9.817  20.264  67.679  1.00  0.00    -0.563 A  
HETATM   40  C   UNL     1      -8.437  20.157  67.560  1.00  0.00    -0.394 A  
HETATM   41  C   UNL     1      -7.927  19.094  66.836  1.00  0.00    -0.259 A  
HETATM   42  N   UNL     1      -8.692  18.158  66.229  1.00  0.00    -0.450 NA 
ENDBRANCH  36  37
ENDBRANCH  35  36
ENDBRANCH  34  35
ENDBRANCH  26  28
ENDBRANCH  12  26
ENDBRANCH   3   4
ENDBRANCH   2   3
TORSDOF 11
ENDMDL
MODEL       16
REMARK 921   NORMALIZED FREE ENERGY PREDICTED BY IDOCK:   -6.46 KCAL/MOL
REMARK 922        TOTAL FREE ENERGY PREDICTED BY IDOCK:  -12.37 KCAL/MOL
REMARK 923 INTER-LIGAND FREE ENERGY PREDICTED BY IDOCK:  -10.94 KCAL/MOL
REMARK 924 INTRA-LIGAND FREE ENERGY PREDICTED BY IDOCK:   -1.43 KCAL/MOL
REMARK 927      BINDING AFFINITY PREDICTED BY RF-SCORE:    0.00 PKD
ROOT
HETATM    1  C   UNL     1     -12.136  16.331  73.065  1.00  0.00    -0.629 C  
HETATM    2  C   UNL     1     -13.482  15.627  73.091  1.00  0.00    -0.525 C  
ENDROOT
BRANCH   2   3
HETATM    3  O   UNL     1     -13.811  15.253  71.761  1.00  0.00    -0.435 OA 
BRANCH   3   4
HETATM    4  C   UNL     1     -13.205  14.181  71.169  1.00  0.00    -0.301 A  
HETATM    5  C   UNL     1     -12.478  14.093  69.982  1.00  0.00    -0.296 A  
HETATM    6  C   UNL     1     -11.639   7.882  70.619  1.00  0.00    -0.204 C  
HETATM    7  C   UNL     1     -12.018  12.837  69.532  1.00  0.00    -0.338 A  
HETATM    8  C   UNL     1     -12.738   9.521  71.950  1.00  0.00    -0.411 A  
HETATM    9  C   UNL     1     -13.410  13.005  71.899  1.00  0.00    -0.539 A  
HETATM   10  C   UNL     1     -12.219  11.640  70.285  1.00  0.00    -0.401 A  
HETATM   11  N   UNL     1     -13.188  10.743  72.311  1.00  0.00    -0.280 NA 
HETATM   12  C   UNL     1     -11.756  10.317  69.916  1.00  0.00    -0.225 A  
HETATM   13  C   UNL     1     -12.937  11.765  71.498  1.00  0.00    -0.341 A  
HETATM   14  N   UNL     1     -11.380   6.752  70.564  1.00  0.00    -0.319 NA 
HETATM   15  C   UNL     1     -12.039   9.245  70.786  1.00  0.00    -0.231 A  
BRANCH   5  16
HETATM   16  N   UNL     1     -12.163  15.222  69.202  1.00  0.00    -0.585 N  
HETATM   17  C   UNL     1     -10.954  15.869  69.366  1.00  0.00    -0.309 C  
HETATM   18  H   UNL     1     -12.831  15.563  68.511  1.00  0.00     0.000 HD 
HETATM   19  O   UNL     1     -10.111  15.575  70.206  1.00  0.00    -0.270 OA 
BRANCH  17  20
HETATM   20  C   UNL     1     -10.754  16.990  68.408  1.00  0.00    -0.361 C  
HETATM   21  C   UNL     1      -9.916  16.816  67.371  1.00  0.00    -0.267 C  
BRANCH  21  22
HETATM   22  C   UNL     1      -9.616  17.780  66.261  1.00  0.00    -0.243 C  
BRANCH  22  23
HETATM   23  N   UNL     1      -9.244  19.148  66.651  1.00  0.00    -0.321 NA 
HETATM   24  C   UNL     1      -7.942  19.526  66.088  1.00  0.00    -0.330 C  
HETATM   25  C   UNL     1     -10.263  20.079  66.143  1.00  0.00    -0.475 C  
ENDBRANCH  22  23
ENDBRANCH  21  22
ENDBRANCH  17  20
ENDBRANCH   5  16
BRANCH  12  26
HETATM   26  N   UNL     1     -11.042  10.183  68.676  1.00  0.00    -0.370 NA 
HETATM   27  H   UNL     1     -11.172  10.967  68.036  1.00  0.00     0.000 HD 
BRANCH  26  28
HETATM   28  C   UNL     1     -10.194   9.168  68.179  1.00  0.00    -0.207 A  
HETATM   29 CL   UNL     1      -6.532   7.807  69.070  1.00  0.00    -0.036 Cl 
HETATM   30  C   UNL     1     -10.605   8.258  67.201  1.00  0.00    -0.340 A  
HETATM   31  C   UNL     1      -8.095   7.939  68.335  1.00  0.00    -0.123 A  
HETATM   32  C   UNL     1      -9.785   7.181  66.806  1.00  0.00    -0.252 A  
HETATM   33  C   UNL     1      -8.909   9.015  68.714  1.00  0.00    -0.137 A  
HETATM   34  C   UNL     1      -8.530   6.999  67.389  1.00  0.00    -0.122 A  
BRANCH  34  35
HETATM   35  O   UNL     1      -7.704   5.931  67.164  1.00  0.00    -0.098 OA 
BRANCH  35  36
HETATM   36  C   UNL     1      -7.032   5.828  65.909  1.00  0.00    -0.065 C  
BRANCH  36  37
HETATM   37  C   UNL     1      -7.633   4.680  65.118  1.00  0.00    -0.077 A  
HETATM   38  C   UNL     1      -8.543   4.931  64.090  1.00  0.00    -0.135 A  
HETATM   39  C   UNL     1      -9.084   3.857  63.386  1.00  0.00    -0.115 A  
HETATM   40  C   UNL     1      -8.706   2.563  63.722  1.00  0.00    -0.086 A  
HETATM   41  C   UNL     1      -7.800   2.397  64.755  1.00  0.00    -0.074 A  
HETATM   42  N   UNL     1      -7.269   3.418  65.464  1.00  0.00    -0.069 NA 
ENDBRANCH  36  37
ENDBRANCH  35  36
ENDBRANCH  34  35
ENDBRANCH  26  28
ENDBRANCH  12  26
ENDBRANCH   3   4
ENDBRANCH   2   3
TORSDOF 11
ENDMDL
MODEL       17
REMARK 921   NORMALIZED FREE ENERGY PREDICTED BY IDOCK:   -6.44 KCAL/MOL
REMARK 922        TOTAL FREE ENERGY PREDICTED BY IDOCK:  -12.33 KCAL/MOL
REMARK 923 INTER-LIGAND FREE ENERGY PREDICTED BY IDOCK:  -10.64 KCAL/MOL
REMARK 924 INTRA-LIGAND FREE ENERGY PREDICTED BY IDOCK:   -1.69 KCAL/MOL
REMARK 927      BINDING AFFINITY PREDICTED BY RF-SCORE:    0.00 PKD
ROOT
HETATM    1  C   UNL     1     -12.640  12.037  63.571  1.00  0.00    -0.625 C  
HETATM    2  C   UNL     1     -12.006  13.376  63.906  1.00  0.00    -0.465 C  
ENDROOT
BRANCH   2   3
HETATM    3  O   UNL     1     -10.598  13.198  63.957  1.00  0.00    -0.402 OA 
BRANCH   3   4
HETATM    4  C   UNL     1     -10.048  12.224  64.744  1.00  0.00    -0.246 A  
HETATM    5  C   UNL     1      -9.843  12.183  66.123  1.00  0.00    -0.237 A  
HETATM    6  C   UNL     1      -7.073   6.532  65.830  1.00  0.00    -0.062 C  
HETATM    7  C   UNL     1      -9.167  11.085  66.699  1.00  0.00    -0.182 A  
HETATM    8  C   UNL     1      -8.024   7.966  64.185  1.00  0.00    -0.125 A  
HETATM    9  C   UNL     1      -9.609  11.135  63.985  1.00  0.00    -0.288 A  
HETATM   10  C   UNL     1      -8.730   9.970  65.922  1.00  0.00    -0.154 A  
HETATM   11  N   UNL     1      -8.640   9.059  63.684  1.00  0.00    -0.171 NA 
HETATM   12  C   UNL     1      -8.059   8.790  66.434  1.00  0.00    -0.103 A  
HETATM   13  C   UNL     1      -8.976  10.028  64.530  1.00  0.00    -0.226 A  
HETATM   14  N   UNL     1      -6.548   5.507  65.976  1.00  0.00    -0.047 NA 
HETATM   15  C   UNL     1      -7.703   7.778  65.520  1.00  0.00    -0.100 A  
BRANCH   5  16
HETATM   16  N   UNL     1     -10.298  13.196  66.987  1.00  0.00    -0.247 N  
HETATM   17  C   UNL     1     -11.422  12.999  67.765  1.00  0.00    -0.316 C  
HETATM   18  H   UNL     1      -9.795  14.082  67.039  1.00  0.00     0.000 HD 
HETATM   19  O   UNL     1     -12.128  11.997  67.733  1.00  0.00    -0.537 OA 
BRANCH  17  20
HETATM   20  C   UNL     1     -11.713  14.139  68.675  1.00  0.00    -0.385 C  
HETATM   21  C   UNL     1     -12.112  13.881  69.933  1.00  0.00    -0.406 C  
BRANCH  21  22
HETATM   22  C   UNL     1     -12.397  14.868  71.027  1.00  0.00    -0.324 C  
BRANCH  22  23
HETATM   23  N   UNL     1     -13.717  14.786  71.668  1.00  0.00    -0.393 NA 
HETATM   24  C   UNL     1     -13.946  13.455  72.245  1.00  0.00    -0.507 C  
HETATM   25  C   UNL     1     -13.783  15.782  72.748  1.00  0.00    -0.560 C  
ENDBRANCH  22  23
ENDBRANCH  21  22
ENDBRANCH  17  20
ENDBRANCH   5  16
BRANCH  12  26
HETATM   26  N   UNL     1      -7.791   8.736  67.844  1.00  0.00    -0.102 NA 
HETATM   27  H   UNL     1      -6.802   8.806  68.082  1.00  0.00     0.000 HD 
BRANCH  26  28
HETATM   28  C   UNL     1      -8.645   8.603  68.962  1.00  0.00    -0.129 A  
HETATM   29 CL   UNL     1     -11.775   6.290  69.916  1.00  0.00    -0.384 Cl 
HETATM   30  C   UNL     1      -8.436   9.304  70.154  1.00  0.00    -0.206 A  
HETATM   31  C   UNL     1     -10.495   7.449  70.052  1.00  0.00    -0.226 A  
HETATM   32  C   UNL     1      -9.229   9.067  71.296  1.00  0.00    -0.314 A  
HETATM   33  C   UNL     1      -9.712   7.698  68.917  1.00  0.00    -0.156 A  
HETATM   34  C   UNL     1     -10.252   8.118  71.261  1.00  0.00    -0.195 A  
BRANCH  34  35
HETATM   35  O   UNL     1     -11.004   7.730  72.337  1.00  0.00    -0.260 OA 
BRANCH  35  36
HETATM   36  C   UNL     1     -10.343   7.213  73.492  1.00  0.00    -0.369 C  
BRANCH  36  37
HETATM   37  C   UNL     1     -10.017   5.749  73.262  1.00  0.00    -0.179 A  
HETATM   38  C   UNL     1     -11.011   4.776  73.381  1.00  0.00    -0.396 A  
HETATM   39  C   UNL     1     -10.680   3.439  73.171  1.00  0.00    -0.266 A  
HETATM   40  C   UNL     1      -9.371   3.104  72.848  1.00  0.00    -0.128 A  
HETATM   41  C   UNL     1      -8.443   4.125  72.751  1.00  0.00    -0.100 A  
HETATM   42  N   UNL     1      -8.731   5.430  72.962  1.00  0.00    -0.121 NA 
ENDBRANCH  36  37
ENDBRANCH  35  36
ENDBRANCH  34  35
ENDBRANCH  26  28
ENDBRANCH  12  26
ENDBRANCH   3   4
ENDBRANCH   2   3
TORSDOF 11
ENDMDL
MODEL       18
REMARK 921   NORMALIZED FREE ENERGY PREDICTED BY IDOCK:   -6.42 KCAL/MOL
REMARK 922        TOTAL FREE ENERGY PREDICTED BY IDOCK:  -12.30 KCAL/MOL
REMARK 923 INTER-LIGAND FREE ENERGY PREDICTED BY IDOCK:  -10.78 KCAL/MOL
REMARK 924 INTRA-LIGAND FREE ENERGY PREDICTED BY IDOCK:   -1.52 KCAL/MOL
REMARK 927      BINDING AFFINITY PREDICTED BY RF-SCORE:    0.00 PKD
ROOT
HETATM    1  C   UNL     1     -10.358   3.844  64.358  1.00  0.00    -0.242 C  
HETATM    2  C   UNL     1      -9.231   3.267  65.198  1.00  0.00    -0.149 C  
ENDROOT
BRANCH   2   3
HETATM    3  O   UNL     1      -8.490   4.347  65.746  1.00  0.00    -0.113 OA 
BRANCH   3   4
HETATM    4  C   UNL     1      -8.770   4.817  66.999  1.00  0.00    -0.103 A  
HETATM    5  C   UNL     1      -8.813   6.124  67.486  1.00  0.00    -0.106 A  
HETATM    6  C   UNL     1     -10.140   4.200  73.337  1.00  0.00    -0.139 C  
HETATM    7  C   UNL     1      -9.045   6.352  68.860  1.00  0.00    -0.129 A  
HETATM    8  C   UNL     1      -9.775   3.046  71.287  1.00  0.00    -0.138 A  
HETATM    9  C   UNL     1      -9.009   3.775  67.900  1.00  0.00    -0.158 A  
HETATM   10  C   UNL     1      -9.300   5.286  69.776  1.00  0.00    -0.182 A  
HETATM   11  N   UNL     1      -9.510   2.885  69.972  1.00  0.00    -0.144 NA 
HETATM   12  C   UNL     1      -9.578   5.431  71.191  1.00  0.00    -0.164 A  
HETATM   13  C   UNL     1      -9.276   3.974  69.246  1.00  0.00    -0.152 A  
HETATM   14  N   UNL     1     -10.388   4.042  74.460  1.00  0.00    -0.212 NA 
HETATM   15  C   UNL     1      -9.814   4.264  71.945  1.00  0.00    -0.248 A  
BRANCH   5  16
HETATM   16  N   UNL     1      -8.646   7.248  66.656  1.00  0.00    -0.122 N  
HETATM   17  C   UNL     1      -9.680   8.147  66.483  1.00  0.00    -0.239 C  
HETATM   18  H   UNL     1      -7.757   7.400  66.181  1.00  0.00     0.000 HD 
HETATM   19  O   UNL     1     -10.802   8.025  66.960  1.00  0.00    -0.283 OA 
BRANCH  17  20
HETATM   20  C   UNL     1      -9.306   9.315  65.639  1.00  0.00    -0.308 C  
HETATM   21  C   UNL     1     -10.187  10.321  65.497  1.00  0.00    -0.308 C  
BRANCH  21  22
HETATM   22  C   UNL     1      -9.996  11.610  64.750  1.00  0.00    -0.254 C  
BRANCH  22  23
HETATM   23  N   UNL     1     -10.777  12.766  65.212  1.00  0.00    -0.287 NA 
HETATM   24  C   UNL     1     -12.188  12.643  64.823  1.00  0.00    -0.465 C  
HETATM   25  C   UNL     1     -10.699  12.836  66.678  1.00  0.00    -0.261 C  
ENDBRANCH  22  23
ENDBRANCH  21  22
ENDBRANCH  17  20
ENDBRANCH   5  16
BRANCH  12  26
HETATM   26  N   UNL     1      -9.585   6.761  71.735  1.00  0.00    -0.158 NA 
HETATM   27  H   UNL     1      -8.868   6.923  72.442  1.00  0.00     0.000 HD 
BRANCH  26  28
HETATM   28  C   UNL     1     -10.402   7.883  71.473  1.00  0.00    -0.201 A  
HETATM   29 CL   UNL     1     -14.035   9.116  72.629  1.00  0.00    -0.464 Cl 
HETATM   30  C   UNL     1      -9.957   8.976  70.722  1.00  0.00    -0.307 A  
HETATM   31  C   UNL     1     -12.469   9.106  71.889  1.00  0.00    -0.387 A  
HETATM   32  C   UNL     1     -10.744  10.135  70.572  1.00  0.00    -0.295 A  
HETATM   33  C   UNL     1     -11.687   7.951  72.023  1.00  0.00    -0.360 A  
HETATM   34  C   UNL     1     -12.000  10.220  71.175  1.00  0.00    -0.376 A  
BRANCH  34  35
HETATM   35  O   UNL     1     -12.795  11.333  71.190  1.00  0.00    -0.376 OA 
BRANCH  35  36
HETATM   36  C   UNL     1     -12.429  12.455  70.385  1.00  0.00    -0.136 C  
BRANCH  36  37
HETATM   37  C   UNL     1     -12.484  13.712  71.234  1.00  0.00    -0.326 A  
HETATM   38  C   UNL     1     -13.294  13.764  72.369  1.00  0.00    -0.635 A  
HETATM   39  C   UNL     1     -13.330  14.934  73.123  1.00  0.00    -0.493 A  
HETATM   40  C   UNL     1     -12.558  16.022  72.732  1.00  0.00    -0.565 A  
HETATM   41  C   UNL     1     -11.783  15.892  71.593  1.00  0.00    -0.485 A  
HETATM   42  N   UNL     1     -11.738  14.775  70.833  1.00  0.00    -0.309 NA 
ENDBRANCH  36  37
ENDBRANCH  35  36
ENDBRANCH  34  35
ENDBRANCH  26  28
ENDBRANCH  12  26
ENDBRANCH   3   4
ENDBRANCH   2   3
TORSDOF 11
ENDMDL
MODEL       19
REMARK 921   NORMALIZED FREE ENERGY PREDICTED BY IDOCK:   -6.34 KCAL/MOL
REMARK 922        TOTAL FREE ENERGY PREDICTED BY IDOCK:  -12.18 KCAL/MOL
REMARK 923 INTER-LIGAND FREE ENERGY PREDICTED BY IDOCK:  -10.50 KCAL/MOL
REMARK 924 INTRA-LIGAND FREE ENERGY PREDICTED BY IDOCK:   -1.68 KCAL/MOL
REMARK 927      BINDING AFFINITY PREDICTED BY RF-SCORE:    0.00 PKD
ROOT
HETATM    1  C   UNL     1      -9.214   3.264  70.440  1.00  0.00    -0.218 C  
HETATM    2  C   UNL     1      -9.880   4.628  70.370  1.00  0.00    -0.236 C  
ENDROOT
BRANCH   2   3
HETATM    3  O   UNL     1      -9.741   5.121  69.046  1.00  0.00    -0.136 OA 
BRANCH   3   4
HETATM    4  C   UNL     1     -10.155   6.384  68.727  1.00  0.00    -0.158 A  
HETATM    5  C   UNL     1     -10.287   7.007  67.485  1.00  0.00    -0.225 A  
HETATM    6  C   UNL     1     -12.114  12.445  70.088  1.00  0.00    -0.290 C  
HETATM    7  C   UNL     1     -10.658   8.367  67.420  1.00  0.00    -0.313 A  
HETATM    8  C   UNL     1     -11.516  10.327  70.994  1.00  0.00    -0.302 A  
HETATM    9  C   UNL     1     -10.448   7.135  69.869  1.00  0.00    -0.237 A  
HETATM   10  C   UNL     1     -10.967   9.128  68.588  1.00  0.00     0.002 A  
HETATM   11  N   UNL     1     -11.119   9.035  71.000  1.00  0.00    -0.266 NA 
HETATM   12  C   UNL     1     -11.386  10.516  68.610  1.00  0.00    -0.252 A  
HETATM   13  C   UNL     1     -10.850   8.461  69.830  1.00  0.00    -0.207 A  
HETATM   14  N   UNL     1     -12.466  13.513  70.378  1.00  0.00    -0.305 NA 
HETATM   15  C   UNL     1     -11.657  11.109  69.860  1.00  0.00    -0.416 A  
BRANCH   5  16
HETATM   16  N   UNL     1     -10.077   6.327  66.271  1.00  0.00    -0.406 N  
HETATM   17  C   UNL     1      -8.794   6.099  65.812  1.00  0.00    -0.124 C  
HETATM   18  H   UNL     1     -10.875   6.002  65.727  1.00  0.00     0.000 HD 
HETATM   19  O   UNL     1      -7.773   6.499  66.359  1.00  0.00    -0.095 OA 
BRANCH  17  20
HETATM   20  C   UNL     1      -8.754   5.300  64.556  1.00  0.00    -0.072 C  
HETATM   21  C   UNL     1      -9.708   4.378  64.343  1.00  0.00    -0.069 C  
BRANCH  21  22
HETATM   22  C   UNL     1      -9.895   3.513  63.131  1.00  0.00    -0.131 C  
BRANCH  22  23
HETATM   23  N   UNL     1      -9.816   2.059  63.334  1.00  0.00    -0.111 NA 
HETATM   24  C   UNL     1      -9.376   1.736  64.697  1.00  0.00    -0.117 C  
HETATM   25  C   UNL     1     -11.151   1.478  63.122  1.00  0.00    -0.224 C  
ENDBRANCH  22  23
ENDBRANCH  21  22
ENDBRANCH  17  20
ENDBRANCH   5  16
BRANCH  12  26
HETATM   26  N   UNL     1     -11.488  11.201  67.351  1.00  0.00    -0.512 NA 
HETATM   27  H   UNL     1     -12.176  10.799  66.715  1.00  0.00     0.000 HD 
BRANCH  26  28
HETATM   28  C   UNL     1     -10.813  12.329  66.833  1.00  0.00    -0.251 A  
HETATM   29 CL   UNL     1     -11.792  15.423  64.483  1.00  0.00    -0.332 Cl 
HETATM   30  C   UNL     1      -9.504  12.654  67.201  1.00  0.00    -0.214 A  
HETATM   31  C   UNL     1     -10.882  14.391  65.535  1.00  0.00    -0.331 A  
HETATM   32  C   UNL     1      -8.892  13.847  66.764  1.00  0.00    -0.170 A  
HETATM   33  C   UNL     1     -11.481  13.198  65.961  1.00  0.00    -0.370 A  
HETATM   34  C   UNL     1      -9.586  14.739  65.945  1.00  0.00    -0.285 A  
BRANCH  34  35
HETATM   35  O   UNL     1      -9.133  15.970  65.558  1.00  0.00    -0.320 OA 
BRANCH  35  36
HETATM   36  C   UNL     1      -8.271  16.697  66.434  1.00  0.00    -0.318 C  
BRANCH  36  37
HETATM   37  C   UNL     1      -8.960  17.982  66.854  1.00  0.00    -0.262 A  
HETATM   38  C   UNL     1      -8.617  18.610  68.052  1.00  0.00    -0.321 A  
HETATM   39  C   UNL     1      -9.272  19.785  68.414  1.00  0.00    -0.370 A  
HETATM   40  C   UNL     1     -10.250  20.306  67.576  1.00  0.00    -0.486 A  
HETATM   41  C   UNL     1     -10.535  19.624  66.406  1.00  0.00    -0.513 A  
HETATM   42  N   UNL     1      -9.925  18.475  66.034  1.00  0.00    -0.534 NA 
ENDBRANCH  36  37
ENDBRANCH  35  36
ENDBRANCH  34  35
ENDBRANCH  26  28
ENDBRANCH  12  26
ENDBRANCH   3   4
ENDBRANCH   2   3
TORSDOF 11
ENDMDL
MODEL       20
REMARK 921   NORMALIZED FREE ENERGY PREDICTED BY IDOCK:   -6.33 KCAL/MOL
REMARK 922        TOTAL FREE ENERGY PREDICTED BY IDOCK:  -12.16 KCAL/MOL
REMARK 923 INTER-LIGAND FREE ENERGY PREDICTED BY IDOCK:  -11.30 KCAL/MOL
REMARK 924 INTRA-LIGAND FREE ENERGY PREDICTED BY IDOCK:   -0.87 KCAL/MOL
REMARK 927      BINDING AFFINITY PREDICTED BY RF-SCORE:    0.00 PKD
ROOT
HETATM    1  C   UNL     1      -9.619  19.151  66.492  1.00  0.00    -0.399 C  
HETATM    2  C   UNL     1     -10.485  18.178  65.710  1.00  0.00    -0.207 C  
ENDROOT
BRANCH   2   3
HETATM    3  O   UNL     1      -9.967  16.870  65.904  1.00  0.00    -0.451 OA 
BRANCH   3   4
HETATM    4  C   UNL     1     -10.506  16.041  66.848  1.00  0.00    -0.306 A  
HETATM    5  C   UNL     1     -10.929  14.715  66.753  1.00  0.00    -0.323 A  
HETATM    6  C   UNL     1     -12.841  14.597  72.754  1.00  0.00    -0.438 C  
HETATM    7  C   UNL     1     -11.540  14.094  67.863  1.00  0.00    -0.370 A  
HETATM    8  C   UNL     1     -11.829  16.274  71.401  1.00  0.00    -0.339 A  
HETATM    9  C   UNL     1     -10.665  16.692  68.075  1.00  0.00    -0.350 A  
HETATM   10  C   UNL     1     -11.692  14.757  69.118  1.00  0.00    -0.344 A  
HETATM   11  N   UNL     1     -11.288  16.831  70.296  1.00  0.00     0.091 NA 
HETATM   12  C   UNL     1     -12.276  14.186  70.315  1.00  0.00    -0.349 A  
HETATM   13  C   UNL     1     -11.228  16.092  69.191  1.00  0.00    -0.336 A  
HETATM   14  N   UNL     1     -13.244  14.384  73.822  1.00  0.00     0.030 NA 
HETATM   15  C   UNL     1     -12.338  14.988  71.473  1.00  0.00    -0.398 A  
BRANCH   5  16
HETATM   16  N   UNL     1     -10.762  13.948  65.584  1.00  0.00    -0.283 N  
HETATM   17  C   UNL     1     -11.862  13.498  64.881  1.00  0.00    -0.374 C  
HETATM   18  H   UNL     1      -9.823  13.724  65.256  1.00  0.00     0.000 HD 
HETATM   19  O   UNL     1     -13.027  13.663  65.223  1.00  0.00    -0.719 OA 
BRANCH  17  20
HETATM   20  C   UNL     1     -11.503  12.772  63.632  1.00  0.00    -0.544 C  
HETATM   21  C   UNL     1     -10.360  12.065  63.599  1.00  0.00    -0.482 C  
BRANCH  21  22
HETATM   22  C   UNL     1      -9.838  11.216  62.476  1.00  0.00     0.009 C  
BRANCH  22  23
HETATM   23  N   UNL     1      -9.130   9.984  62.849  1.00  0.00    -0.267 NA 
HETATM   24  C   UNL     1      -7.693  10.090  62.565  1.00  0.00    -0.128 C  
HETATM   25  C   UNL     1      -9.306   9.754  64.291  1.00  0.00    -0.190 C  
ENDBRANCH  22  23
ENDBRANCH  21  22
ENDBRANCH  17  20
ENDBRANCH   5  16
BRANCH  12  26
HETATM   26  N   UNL     1     -12.765  12.837  70.240  1.00  0.00     0.048 NA 
HETATM   27  H   UNL     1     -13.770  12.768  70.085  1.00  0.00     0.000 HD 
BRANCH  26  28
HETATM   28  C   UNL     1     -12.109  11.589  70.339  1.00  0.00    -0.382 A  
HETATM   29 CL   UNL     1     -12.562   8.287  72.563  1.00  0.00    -0.317 Cl 
HETATM   30  C   UNL     1     -11.092  11.203  69.462  1.00  0.00    -0.311 A  
HETATM   31  C   UNL     1     -11.976   9.375  71.349  1.00  0.00    -0.371 A  
HETATM   32  C   UNL     1     -10.534   9.909  69.505  1.00  0.00    -0.261 A  
HETATM   33  C   UNL     1     -12.518  10.666  71.311  1.00  0.00    -0.515 A  
HETATM   34  C   UNL     1     -10.989   8.974  70.436  1.00  0.00    -0.247 A  
BRANCH  34  35
HETATM   35  O   UNL     1     -10.601   7.663  70.492  1.00  0.00    -0.218 OA 
BRANCH  35  36
HETATM   36  C   UNL     1      -9.914   7.097  69.375  1.00  0.00    -0.164 C  
BRANCH  36  37
HETATM   37  C   UNL     1      -9.742   5.606  69.603  1.00  0.00    -0.169 A  
HETATM   38  C   UNL     1      -9.387   4.766  68.547  1.00  0.00    -0.181 A  
HETATM   39  C   UNL     1      -9.244   3.401  68.786  1.00  0.00    -0.229 A  
HETATM   40  C   UNL     1      -9.454   2.907  70.067  1.00  0.00    -0.183 A  
HETATM   41  C   UNL     1      -9.805   3.804  71.060  1.00  0.00    -0.134 A  
HETATM   42  N   UNL     1      -9.965   5.132  70.856  1.00  0.00    -0.198 NA 
ENDBRANCH  36  37
ENDBRANCH  35  36
ENDBRANCH  34  35
ENDBRANCH  26  28
ENDBRANCH  12  26
ENDBRANCH   3   4
ENDBRANCH   2   3
TORSDOF 11
ENDMDL
MODEL       21
REMARK 921   NORMALIZED FREE ENERGY PREDICTED BY IDOCK:   -6.32 KCAL/MOL
REMARK 922        TOTAL FREE ENERGY PREDICTED BY IDOCK:  -12.14 KCAL/MOL
REMARK 923 INTER-LIGAND FREE ENERGY PREDICTED BY IDOCK:  -10.70 KCAL/MOL
REMARK 924 INTRA-LIGAND FREE ENERGY PREDICTED BY IDOCK:   -1.44 KCAL/MOL
REMARK 927      BINDING AFFINITY PREDICTED BY RF-SCORE:    0.00 PKD
ROOT
HETATM    1  C   UNL     1     -11.322   5.558  72.754  1.00  0.00    -0.359 C  
HETATM    2  C   UNL     1     -12.113   6.564  71.935  1.00  0.00    -0.339 C  
ENDROOT
BRANCH   2   3
HETATM    3  O   UNL     1     -11.265   7.070  70.915  1.00  0.00    -0.258 OA 
BRANCH   3   4
HETATM    4  C   UNL     1     -11.355   8.375  70.520  1.00  0.00    -0.216 A  
HETATM    5  C   UNL     1     -10.772   9.035  69.437  1.00  0.00    -0.191 A  
HETATM    6  C   UNL     1     -13.265  14.574  71.107  1.00  0.00    -0.361 C  
HETATM    7  C   UNL     1     -10.949  10.428  69.288  1.00  0.00    -0.287 A  
HETATM    8  C   UNL     1     -13.391  12.387  72.037  1.00  0.00    -0.407 A  
HETATM    9  C   UNL     1     -12.141   9.127  71.398  1.00  0.00    -0.409 A  
HETATM   10  C   UNL     1     -11.762  11.191  70.180  1.00  0.00    -0.439 A  
HETATM   11  N   UNL     1     -13.155  11.061  72.153  1.00  0.00    -0.370 NA 
HETATM   12  C   UNL     1     -12.023  12.613  70.083  1.00  0.00    -0.299 A  
HETATM   13  C   UNL     1     -12.361  10.488  71.252  1.00  0.00    -0.397 A  
HETATM   14  N   UNL     1     -13.633  15.666  71.250  1.00  0.00    -0.572 NA 
HETATM   15  C   UNL     1     -12.860  13.203  71.052  1.00  0.00    -0.295 A  
BRANCH   5  16
HETATM   16  N   UNL     1     -10.012   8.364  68.461  1.00  0.00    -0.182 N  
HETATM   17  C   UNL     1      -8.672   8.106  68.674  1.00  0.00    -0.134 C  
HETATM   18  H   UNL     1     -10.453   8.067  67.591  1.00  0.00     0.000 HD 
HETATM   19  O   UNL     1      -8.036   8.473  69.656  1.00  0.00    -0.108 OA 
BRANCH  17  20
HETATM   20  C   UNL     1      -8.044   7.322  67.576  1.00  0.00    -0.114 C  
HETATM   21  C   UNL     1      -8.261   5.997  67.520  1.00  0.00    -0.106 C  
BRANCH  21  22
HETATM   22  C   UNL     1      -7.781   5.031  66.475  1.00  0.00    -0.092 C  
BRANCH  22  23
HETATM   23  N   UNL     1      -8.747   4.642  65.437  1.00  0.00    -0.129 NA 
HETATM   24  C   UNL     1     -10.126   4.885  65.877  1.00  0.00    -0.211 C  
HETATM   25  C   UNL     1      -8.492   5.442  64.229  1.00  0.00    -0.092 C  
ENDBRANCH  22  23
ENDBRANCH  21  22
ENDBRANCH  17  20
ENDBRANCH   5  16
BRANCH  12  26
HETATM   26  N   UNL     1     -11.402  13.333  69.006  1.00  0.00    -0.270 NA 
HETATM   27  H   UNL     1     -11.798  13.129  68.088  1.00  0.00     0.000 HD 
BRANCH  26  28
HETATM   28  C   UNL     1     -10.345  14.270  68.982  1.00  0.00    -0.176 A  
HETATM   29 CL   UNL     1      -6.594  14.321  67.574  1.00  0.00    -0.166 Cl 
HETATM   30  C   UNL     1     -10.497  15.585  69.433  1.00  0.00    -0.253 A  
HETATM   31  C   UNL     1      -8.083  14.850  68.285  1.00  0.00    -0.132 A  
HETATM   32  C   UNL     1      -9.465  16.535  69.292  1.00  0.00    -0.152 A  
HETATM   33  C   UNL     1      -9.106  13.906  68.440  1.00  0.00    -0.184 A  
HETATM   34  C   UNL     1      -8.255  16.181  68.693  1.00  0.00    -0.202 A  
BRANCH  34  35
HETATM   35  O   UNL     1      -7.235  17.046  68.404  1.00  0.00    -0.184 OA 
BRANCH  35  36
HETATM   36  C   UNL     1      -7.207  17.679  67.124  1.00  0.00    -0.180 C  
BRANCH  36  37
HETATM   37  C   UNL     1      -8.465  18.511  66.956  1.00  0.00    -0.264 A  
HETATM   38  C   UNL     1      -8.636  19.689  67.682  1.00  0.00    -0.365 A  
HETATM   39  C   UNL     1      -9.806  20.428  67.512  1.00  0.00    -0.564 A  
HETATM   40  C   UNL     1     -10.773  19.976  66.623  1.00  0.00    -0.364 A  
HETATM   41  C   UNL     1     -10.530  18.797  65.941  1.00  0.00    -0.376 A  
HETATM   42  N   UNL     1      -9.412  18.052  66.095  1.00  0.00    -0.499 NA 
ENDBRANCH  36  37
ENDBRANCH  35  36
ENDBRANCH  34  35
ENDBRANCH  26  28
ENDBRANCH  12  26
ENDBRANCH   3   4
ENDBRANCH   2   3
TORSDOF 11
ENDMDL
MODEL       22
REMARK 921   NORMALIZED FREE ENERGY PREDICTED BY IDOCK:   -6.25 KCAL/MOL
REMARK 922        TOTAL FREE ENERGY PREDICTED BY IDOCK:  -12.03 KCAL/MOL
REMARK 923 INTER-LIGAND FREE ENERGY PREDICTED BY IDOCK:  -10.04 KCAL/MOL
REMARK 924 INTRA-LIGAND FREE ENERGY PREDICTED BY IDOCK:   -1.99 KCAL/MOL
REMARK 927      BINDING AFFINITY PREDICTED BY RF-SCORE:    0.00 PKD
ROOT
HETATM    1  C   UNL     1     -10.892   4.712  72.807  1.00  0.00    -0.259 C  
HETATM    2  C   UNL     1     -11.271   6.183  72.772  1.00  0.00    -0.243 C  
ENDROOT
BRANCH   2   3
HETATM    3  O   UNL     1     -11.593   6.525  71.432  1.00  0.00    -0.292 OA 
BRANCH   3   4
HETATM    4  C   UNL     1     -11.518   7.822  71.008  1.00  0.00    -0.281 A  
HETATM    5  C   UNL     1     -10.698   8.414  70.047  1.00  0.00    -0.236 A  
HETATM    6  C   UNL     1     -13.082  14.144  71.131  1.00  0.00    -0.328 C  
HETATM    7  C   UNL     1     -10.749   9.811  69.847  1.00  0.00    -0.303 A  
HETATM    8  C   UNL     1     -13.529  11.995  72.051  1.00  0.00    -0.261 A  
HETATM    9  C   UNL     1     -12.404   8.646  71.709  1.00  0.00    -0.402 A  
HETATM   10  C   UNL     1     -11.662  10.648  70.556  1.00  0.00    -0.451 A  
HETATM   11  N   UNL     1     -13.409  10.661  72.229  1.00  0.00    -0.267 NA 
HETATM   12  C   UNL     1     -11.804  12.081  70.391  1.00  0.00    -0.212 A  
HETATM   13  C   UNL     1     -12.500  10.014  71.505  1.00  0.00    -0.419 A  
HETATM   14  N   UNL     1     -13.395  15.260  71.185  1.00  0.00    -0.482 NA 
HETATM   15  C   UNL     1     -12.767  12.749  71.174  1.00  0.00    -0.355 A  
BRANCH   5  16
HETATM   16  N   UNL     1      -9.814   7.670  69.243  1.00  0.00    -0.165 N  
HETATM   17  C   UNL     1     -10.224   7.187  68.017  1.00  0.00    -0.185 C  
HETATM   18  H   UNL     1      -8.865   7.487  69.569  1.00  0.00     0.000 HD 
HETATM   19  O   UNL     1     -11.357   7.301  67.562  1.00  0.00     0.017 OA 
BRANCH  17  20
HETATM   20  C   UNL     1      -9.141   6.493  67.268  1.00  0.00    -0.117 C  
HETATM   21  C   UNL     1      -9.455   5.825  66.145  1.00  0.00    -0.144 C  
BRANCH  21  22
HETATM   22  C   UNL     1      -8.522   5.112  65.209  1.00  0.00    -0.144 C  
BRANCH  22  23
HETATM   23  N   UNL     1      -8.903   3.755  64.796  1.00  0.00    -0.117 NA 
HETATM   24  C   UNL     1     -10.133   3.770  63.993  1.00  0.00    -0.210 C  
HETATM   25  C   UNL     1      -7.819   3.184  63.982  1.00  0.00    -0.081 C  
ENDBRANCH  22  23
ENDBRANCH  21  22
ENDBRANCH  17  20
ENDBRANCH   5  16
BRANCH  12  26
HETATM   26  N   UNL     1     -10.943  12.730  69.442  1.00  0.00    -0.450 NA 
HETATM   27  H   UNL     1     -10.391  13.492  69.835  1.00  0.00     0.000 HD 
BRANCH  26  28
HETATM   28  C   UNL     1     -10.719  12.508  68.064  1.00  0.00    -0.221 A  
HETATM   29 CL   UNL     1     -12.886  12.882  64.714  1.00  0.00    -0.431 Cl 
HETATM   30  C   UNL     1      -9.464  12.161  67.554  1.00  0.00    -0.180 A  
HETATM   31  C   UNL     1     -11.541  12.607  65.772  1.00  0.00    -0.387 A  
HETATM   32  C   UNL     1      -9.236  12.060  66.166  1.00  0.00    -0.181 A  
HETATM   33  C   UNL     1     -11.766  12.693  67.152  1.00  0.00    -0.438 A  
HETATM   34  C   UNL     1     -10.270  12.307  65.261  1.00  0.00    -0.278 A  
BRANCH  34  35
HETATM   35  O   UNL     1     -10.133  12.349  63.900  1.00  0.00    -0.376 OA 
BRANCH  35  36
HETATM   36  C   UNL     1     -10.305  11.145  63.150  1.00  0.00    -0.247 C  
BRANCH  36  37
HETATM   37  C   UNL     1      -8.995  10.378  63.140  1.00  0.00    -0.239 A  
HETATM   38  C   UNL     1      -8.848   9.221  63.906  1.00  0.00    -0.160 A  
HETATM   39  C   UNL     1      -7.632   8.542  63.882  1.00  0.00    -0.129 A  
HETATM   40  C   UNL     1      -6.595   9.028  63.095  1.00  0.00    -0.090 A  
HETATM   41  C   UNL     1      -6.819  10.182  62.365  1.00  0.00    -0.122 A  
HETATM   42  N   UNL     1      -7.983  10.870  62.379  1.00  0.00    -0.173 NA 
ENDBRANCH  36  37
ENDBRANCH  35  36
ENDBRANCH  34  35
ENDBRANCH  26  28
ENDBRANCH  12  26
ENDBRANCH   3   4
ENDBRANCH   2   3
TORSDOF 11
ENDMDL
MODEL       23
REMARK 921   NORMALIZED FREE ENERGY PREDICTED BY IDOCK:   -6.25 KCAL/MOL
REMARK 922        TOTAL FREE ENERGY PREDICTED BY IDOCK:  -12.03 KCAL/MOL
REMARK 923 INTER-LIGAND FREE ENERGY PREDICTED BY IDOCK:  -10.58 KCAL/MOL
REMARK 924 INTRA-LIGAND FREE ENERGY PREDICTED BY IDOCK:   -1.45 KCAL/MOL
REMARK 927      BINDING AFFINITY PREDICTED BY RF-SCORE:    0.00 PKD
ROOT
HETATM    1  C   UNL     1      -8.002  16.278  66.468  1.00  0.00    -0.326 C  
HETATM    2  C   UNL     1      -8.130  14.942  67.182  1.00  0.00    -0.209 C  
ENDROOT
BRANCH   2   3
HETATM    3  O   UNL     1      -9.021  14.126  66.437  1.00  0.00    -0.174 OA 
BRANCH   3   4
HETATM    4  C   UNL     1      -9.537  12.983  66.982  1.00  0.00    -0.236 A  
HETATM    5  C   UNL     1     -10.243  12.784  68.168  1.00  0.00    -0.241 A  
HETATM    6  C   UNL     1     -10.605   6.563  67.245  1.00  0.00    -0.315 C  
HETATM    7  C   UNL     1     -10.599  11.476  68.561  1.00  0.00    -0.236 A  
HETATM    8  C   UNL     1      -9.649   8.342  65.986  1.00  0.00    -0.126 A  
HETATM    9  C   UNL     1      -9.249  11.862  66.197  1.00  0.00    -0.204 A  
HETATM   10  C   UNL     1     -10.314  10.335  67.752  1.00  0.00    -0.246 A  
HETATM   11  N   UNL     1      -9.299   9.611  65.679  1.00  0.00    -0.217 NA 
HETATM   12  C   UNL     1     -10.670   8.964  68.061  1.00  0.00    -0.108 A  
HETATM   13  C   UNL     1      -9.620  10.572  66.541  1.00  0.00    -0.174 A  
HETATM   14  N   UNL     1     -10.775   5.415  67.248  1.00  0.00    -0.174 NA 
HETATM   15  C   UNL     1     -10.313   7.960  67.140  1.00  0.00    -0.398 A  
BRANCH   5  16
HETATM   16  N   UNL     1     -10.637  13.847  69.003  1.00  0.00    -0.368 N  
HETATM   17  C   UNL     1     -11.627  14.722  68.600  1.00  0.00    -0.319 C  
HETATM   18  H   UNL     1     -10.189  13.972  69.910  1.00  0.00     0.000 HD 
HETATM   19  O   UNL     1     -12.184  14.694  67.508  1.00  0.00    -0.277 OA 
BRANCH  17  20
HETATM   20  C   UNL     1     -11.972  15.735  69.634  1.00  0.00    -0.332 C  
HETATM   21  C   UNL     1     -11.785  15.429  70.929  1.00  0.00    -0.395 C  
BRANCH  21  22
HETATM   22  C   UNL     1     -12.004  16.313  72.123  1.00  0.00    -0.494 C  
BRANCH  22  23
HETATM   23  N   UNL     1     -13.057  15.907  73.065  1.00  0.00    -0.513 NA 
HETATM   24  C   UNL     1     -13.914  14.864  72.487  1.00  0.00    -0.440 C  
HETATM   25  C   UNL     1     -12.425  15.374  74.281  1.00  0.00    -0.612 C  
ENDBRANCH  22  23
ENDBRANCH  21  22
ENDBRANCH  17  20
ENDBRANCH   5  16
BRANCH  12  26
HETATM   26  N   UNL     1     -11.359   8.718  69.298  1.00  0.00    -0.327 NA 
HETATM   27  H   UNL     1     -12.259   9.193  69.374  1.00  0.00     0.000 HD 
BRANCH  26  28
HETATM   28  C   UNL     1     -11.020   7.941  70.429  1.00  0.00    -0.249 A  
HETATM   29 CL   UNL     1      -8.412   8.268  73.453  1.00  0.00    -0.292 Cl 
HETATM   30  C   UNL     1     -11.730   6.790  70.788  1.00  0.00    -0.439 A  
HETATM   31  C   UNL     1      -9.702   7.674  72.461  1.00  0.00    -0.184 A  
HETATM   32  C   UNL     1     -11.450   6.097  71.983  1.00  0.00    -0.366 A  
HETATM   33  C   UNL     1      -9.975   8.351  71.265  1.00  0.00    -0.261 A  
HETATM   34  C   UNL     1     -10.447   6.548  72.844  1.00  0.00    -0.222 A  
BRANCH  34  35
HETATM   35  O   UNL     1     -10.170   6.022  74.076  1.00  0.00    -0.234 OA 
BRANCH  35  36
HETATM   36  C   UNL     1     -10.628   4.705  74.385  1.00  0.00    -0.243 C  
BRANCH  36  37
HETATM   37  C   UNL     1      -9.661   3.694  73.796  1.00  0.00    -0.104 A  
HETATM   38  C   UNL     1     -10.060   2.861  72.750  1.00  0.00    -0.228 A  
HETATM   39  C   UNL     1      -9.153   1.938  72.234  1.00  0.00    -0.114 A  
HETATM   40  C   UNL     1      -7.873   1.868  72.770  1.00  0.00    -0.051 A  
HETATM   41  C   UNL     1      -7.555   2.726  73.808  1.00  0.00    -0.051 A  
HETATM   42  N   UNL     1      -8.417   3.623  74.338  1.00  0.00    -0.084 NA 
ENDBRANCH  36  37
ENDBRANCH  35  36
ENDBRANCH  34  35
ENDBRANCH  26  28
ENDBRANCH  12  26
ENDBRANCH   3   4
ENDBRANCH   2   3
TORSDOF 11
ENDMDL
MODEL       24
REMARK 921   NORMALIZED FREE ENERGY PREDICTED BY IDOCK:   -6.21 KCAL/MOL
REMARK 922        TOTAL FREE ENERGY PREDICTED BY IDOCK:  -11.96 KCAL/MOL
REMARK 923 INTER-LIGAND FREE ENERGY PREDICTED BY IDOCK:  -10.25 KCAL/MOL
REMARK 924 INTRA-LIGAND FREE ENERGY PREDICTED BY IDOCK:   -1.72 KCAL/MOL
REMARK 927      BINDING AFFINITY PREDICTED BY RF-SCORE:    0.00 PKD
ROOT
HETATM    1  C   UNL     1     -12.393  15.335  64.090  1.00  0.00    -0.065 C  
HETATM    2  C   UNL     1     -11.174  16.191  64.388  1.00  0.00    -0.171 C  
ENDROOT
BRANCH   2   3
HETATM    3  O   UNL     1     -10.199  15.370  65.015  1.00  0.00    -0.357 OA 
BRANCH   3   4
HETATM    4  C   UNL     1     -10.550  14.529  66.034  1.00  0.00    -0.307 A  
HETATM    5  C   UNL     1     -10.448  13.141  66.138  1.00  0.00    -0.281 A  
HETATM    6  C   UNL     1     -13.135  13.086  71.836  1.00  0.00    -0.384 C  
HETATM    7  C   UNL     1     -10.966  12.484  67.275  1.00  0.00    -0.300 A  
HETATM    8  C   UNL     1     -12.587  14.830  70.312  1.00  0.00    -0.315 A  
HETATM    9  C   UNL     1     -11.129  15.224  67.100  1.00  0.00    -0.323 A  
HETATM   10  C   UNL     1     -11.547  13.197  68.367  1.00  0.00    -0.372 A  
HETATM   11  N   UNL     1     -12.111  15.402  69.184  1.00  0.00    -0.287 NA 
HETATM   12  C   UNL     1     -12.073  12.607  69.582  1.00  0.00    -0.213 A  
HETATM   13  C   UNL     1     -11.612  14.606  68.243  1.00  0.00    -0.326 A  
HETATM   14  N   UNL     1     -13.601  12.876  72.878  1.00  0.00    -0.281 NA 
HETATM   15  C   UNL     1     -12.605  13.468  70.563  1.00  0.00    -0.311 A  
BRANCH   5  16
HETATM   16  N   UNL     1      -9.829  12.351  65.151  1.00  0.00    -0.431 N  
HETATM   17  C   UNL     1     -10.563  11.856  64.092  1.00  0.00    -0.350 C  
HETATM   18  H   UNL     1      -8.833  12.143  65.220  1.00  0.00     0.000 HD 
HETATM   19  O   UNL     1     -11.772  11.999  63.950  1.00  0.00    -0.397 OA 
BRANCH  17  20
HETATM   20  C   UNL     1      -9.737  11.110  63.104  1.00  0.00    -0.401 C  
HETATM   21  C   UNL     1      -9.143   9.967  63.486  1.00  0.00    -0.289 C  
BRANCH  21  22
HETATM   22  C   UNL     1      -8.324   9.031  62.645  1.00  0.00    -0.200 C  
BRANCH  22  23
HETATM   23  N   UNL     1      -7.362   8.173  63.351  1.00  0.00    -0.097 NA 
HETATM   24  C   UNL     1      -6.001   8.717  63.263  1.00  0.00    -0.081 C  
HETATM   25  C   UNL     1      -7.746   8.097  64.769  1.00  0.00    -0.123 C  
ENDBRANCH  22  23
ENDBRANCH  21  22
ENDBRANCH  17  20
ENDBRANCH   5  16
BRANCH  12  26
HETATM   26  N   UNL     1     -12.025  11.176  69.703  1.00  0.00    -0.335 NA 
HETATM   27  H   UNL     1     -12.825  10.698  69.290  1.00  0.00     0.000 HD 
BRANCH  26  28
HETATM   28  C   UNL     1     -11.073  10.310  70.286  1.00  0.00    -0.319 A  
HETATM   29 CL   UNL     1     -11.101   7.593  73.231  1.00  0.00    -0.376 Cl 
HETATM   30  C   UNL     1      -9.779  10.165  69.778  1.00  0.00    -0.232 A  
HETATM   31  C   UNL     1     -10.558   8.555  71.897  1.00  0.00    -0.322 A  
HETATM   32  C   UNL     1      -8.885   9.209  70.303  1.00  0.00    -0.238 A  
HETATM   33  C   UNL     1     -11.437   9.516  71.381  1.00  0.00    -0.462 A  
HETATM   34  C   UNL     1      -9.277   8.378  71.354  1.00  0.00    -0.186 A  
BRANCH  34  35
HETATM   35  O   UNL     1      -8.535   7.345  71.861  1.00  0.00    -0.106 OA 
BRANCH  35  36
HETATM   36  C   UNL     1      -8.483   6.112  71.143  1.00  0.00    -0.125 C  
BRANCH  36  37
HETATM   37  C   UNL     1      -8.797   4.972  72.094  1.00  0.00    -0.129 A  
HETATM   38  C   UNL     1      -9.745   4.007  71.751  1.00  0.00    -0.241 A  
HETATM   39  C   UNL     1     -10.018   2.976  72.648  1.00  0.00    -0.221 A  
HETATM   40  C   UNL     1      -9.340   2.930  73.860  1.00  0.00    -0.102 A  
HETATM   41  C   UNL     1      -8.417   3.925  74.127  1.00  0.00    -0.090 A  
HETATM   42  N   UNL     1      -8.141   4.946  73.283  1.00  0.00    -0.100 NA 
ENDBRANCH  36  37
ENDBRANCH  35  36
ENDBRANCH  34  35
ENDBRANCH  26  28
ENDBRANCH  12  26
ENDBRANCH   3   4
ENDBRANCH   2   3
TORSDOF 11
ENDMDL
MODEL       25
REMARK 921   NORMALIZED FREE ENERGY PREDICTED BY IDOCK:   -6.21 KCAL/MOL
REMARK 922        TOTAL FREE ENERGY PREDICTED BY IDOCK:  -11.96 KCAL/MOL
REMARK 923 INTER-LIGAND FREE ENERGY PREDICTED BY IDOCK:  -10.52 KCAL/MOL
REMARK 924 INTRA-LIGAND FREE ENERGY PREDICTED BY IDOCK:   -1.44 KCAL/MOL
REMARK 927      BINDING AFFINITY PREDICTED BY RF-SCORE:    0.00 PKD
ROOT
HETATM    1  C   UNL     1     -12.230  16.142  72.604  1.00  0.00    -0.625 C  
HETATM    2  C   UNL     1     -13.364  15.603  71.749  1.00  0.00    -0.455 C  
ENDROOT
BRANCH   2   3
HETATM    3  O   UNL     1     -12.826  15.211  70.495  1.00  0.00    -0.369 OA 
BRANCH   3   4
HETATM    4  C   UNL     1     -12.404  13.927  70.290  1.00  0.00    -0.345 A  
HETATM    5  C   UNL     1     -11.561  13.396  69.313  1.00  0.00    -0.310 A  
HETATM    6  C   UNL     1     -12.249   7.529  71.502  1.00  0.00    -0.331 C  
HETATM    7  C   UNL     1     -11.342  12.003  69.259  1.00  0.00    -0.330 A  
HETATM    8  C   UNL     1     -13.118   9.635  72.190  1.00  0.00    -0.431 A  
HETATM    9  C   UNL     1     -12.968  13.045  71.217  1.00  0.00    -0.330 A  
HETATM   10  C   UNL     1     -11.910  11.106  70.213  1.00  0.00    -0.455 A  
HETATM   11  N   UNL     1     -13.324  10.970  72.171  1.00  0.00    -0.357 NA 
HETATM   12  C   UNL     1     -11.713   9.670  70.251  1.00  0.00    -0.155 A  
HETATM   13  C   UNL     1     -12.739  11.677  71.208  1.00  0.00    -0.340 A  
HETATM   14  N   UNL     1     -12.249   6.397  71.758  1.00  0.00    -0.318 NA 
HETATM   15  C   UNL     1     -12.348   8.938  71.274  1.00  0.00    -0.342 A  
BRANCH   5  16
HETATM   16  N   UNL     1     -10.895  14.200  68.369  1.00  0.00    -0.247 N  
HETATM   17  C   UNL     1     -11.459  14.437  67.132  1.00  0.00    -0.362 C  
HETATM   18  H   UNL     1      -9.990  14.610  68.601  1.00  0.00     0.000 HD 
HETATM   19  O   UNL     1     -12.510  13.945  66.735  1.00  0.00    -0.381 OA 
BRANCH  17  20
HETATM   20  C   UNL     1     -10.659  15.369  66.291  1.00  0.00    -0.311 C  
HETATM   21  C   UNL     1     -10.044  16.409  66.881  1.00  0.00    -0.281 C  
BRANCH  21  22
HETATM   22  C   UNL     1      -9.145  17.427  66.241  1.00  0.00    -0.203 C  
BRANCH  22  23
HETATM   23  N   UNL     1      -9.004  18.716  66.933  1.00  0.00    -0.285 NA 
HETATM   24  C   UNL     1      -8.346  18.551  68.235  1.00  0.00    -0.322 C  
HETATM   25  C   UNL     1      -8.183  19.611  66.103  1.00  0.00    -0.341 C  
ENDBRANCH  22  23
ENDBRANCH  21  22
ENDBRANCH  17  20
ENDBRANCH   5  16
BRANCH  12  26
HETATM   26  N   UNL     1     -10.886   9.084  69.232  1.00  0.00    -0.386 NA 
HETATM   27  H   UNL     1     -10.704   9.701  68.440  1.00  0.00     0.000 HD 
BRANCH  26  28
HETATM   28  C   UNL     1     -10.279   7.813  69.125  1.00  0.00    -0.208 A  
HETATM   29 CL   UNL     1      -7.136   5.989  70.814  1.00  0.00    -0.066 Cl 
HETATM   30  C   UNL     1     -10.829   6.781  68.359  1.00  0.00    -0.284 A  
HETATM   31  C   UNL     1      -8.562   6.249  69.865  1.00  0.00    -0.134 A  
HETATM   32  C   UNL     1     -10.271   5.486  68.360  1.00  0.00    -0.242 A  
HETATM   33  C   UNL     1      -9.113   7.538  69.849  1.00  0.00    -0.144 A  
HETATM   34  C   UNL     1      -9.144   5.203  69.134  1.00  0.00    -0.102 A  
BRANCH  34  35
HETATM   35  O   UNL     1      -8.591   3.962  69.297  1.00  0.00    -0.074 OA 
BRANCH  35  36
HETATM   36  C   UNL     1      -9.343   2.953  69.972  1.00  0.00    -0.142 C  
BRANCH  36  37
HETATM   37  C   UNL     1      -8.989   2.975  71.448  1.00  0.00    -0.095 A  
HETATM   38  C   UNL     1      -7.788   2.423  71.895  1.00  0.00    -0.048 A  
HETATM   39  C   UNL     1      -7.493   2.452  73.256  1.00  0.00    -0.041 A  
HETATM   40  C   UNL     1      -8.399   3.029  74.137  1.00  0.00    -0.069 A  
HETATM   41  C   UNL     1      -9.569   3.553  73.617  1.00  0.00    -0.106 A  
HETATM   42  N   UNL     1      -9.888   3.528  72.303  1.00  0.00    -0.155 NA 
ENDBRANCH  36  37
ENDBRANCH  35  36
ENDBRANCH  34  35
ENDBRANCH  26  28
ENDBRANCH  12  26
ENDBRANCH   3   4
ENDBRANCH   2   3
TORSDOF 11
ENDMDL
MODEL       26
REMARK 921   NORMALIZED FREE ENERGY PREDICTED BY IDOCK:   -6.21 KCAL/MOL
REMARK 922        TOTAL FREE ENERGY PREDICTED BY IDOCK:  -11.96 KCAL/MOL
REMARK 923 INTER-LIGAND FREE ENERGY PREDICTED BY IDOCK:  -10.32 KCAL/MOL
REMARK 924 INTRA-LIGAND FREE ENERGY PREDICTED BY IDOCK:   -1.63 KCAL/MOL
REMARK 927      BINDING AFFINITY PREDICTED BY RF-SCORE:    0.00 PKD
ROOT
HETATM    1  C   UNL     1     -11.350   5.485  72.503  1.00  0.00    -0.323 C  
HETATM    2  C   UNL     1     -12.007   6.669  71.815  1.00  0.00    -0.345 C  
ENDROOT
BRANCH   2   3
HETATM    3  O   UNL     1     -11.094   7.187  70.859  1.00  0.00    -0.248 OA 
BRANCH   3   4
HETATM    4  C   UNL     1     -11.197   8.480  70.428  1.00  0.00    -0.211 A  
HETATM    5  C   UNL     1     -10.651   9.108  69.308  1.00  0.00    -0.216 A  
HETATM    6  C   UNL     1     -13.090  14.695  70.895  1.00  0.00    -0.358 C  
HETATM    7  C   UNL     1     -10.834  10.496  69.123  1.00  0.00    -0.277 A  
HETATM    8  C   UNL     1     -13.184  12.536  71.892  1.00  0.00    -0.392 A  
HETATM    9  C   UNL     1     -11.954   9.258  71.309  1.00  0.00    -0.414 A  
HETATM   10  C   UNL     1     -11.617  11.285  70.019  1.00  0.00    -0.404 A  
HETATM   11  N   UNL     1     -12.944  11.215  72.040  1.00  0.00    -0.394 NA 
HETATM   12  C   UNL     1     -11.882  12.704  69.889  1.00  0.00    -0.294 A  
HETATM   13  C   UNL     1     -12.180  10.615  71.131  1.00  0.00    -0.374 A  
HETATM   14  N   UNL     1     -13.454  15.791  71.018  1.00  0.00    -0.488 NA 
HETATM   15  C   UNL     1     -12.687  13.323  70.867  1.00  0.00    -0.332 A  
BRANCH   5  16
HETATM   16  N   UNL     1      -9.923   8.408  68.327  1.00  0.00    -0.181 N  
HETATM   17  C   UNL     1      -8.545   8.352  68.388  1.00  0.00    -0.139 C  
HETATM   18  H   UNL     1     -10.417   7.941  67.568  1.00  0.00     0.000 HD 
HETATM   19  O   UNL     1      -7.857   8.928  69.223  1.00  0.00    -0.091 OA 
BRANCH  17  20
HETATM   20  C   UNL     1      -7.945   7.508  67.319  1.00  0.00    -0.118 C  
HETATM   21  C   UNL     1      -8.694   7.182  66.252  1.00  0.00    -0.156 C  
BRANCH  21  22
HETATM   22  C   UNL     1      -8.275   6.401  65.040  1.00  0.00    -0.125 C  
BRANCH  22  23
HETATM   23  N   UNL     1      -8.584   4.964  65.038  1.00  0.00    -0.141 NA 
HETATM   24  C   UNL     1      -7.427   4.171  65.475  1.00  0.00    -0.077 C  
HETATM   25  C   UNL     1      -9.699   4.717  65.965  1.00  0.00    -0.202 C  
ENDBRANCH  22  23
ENDBRANCH  21  22
ENDBRANCH  17  20
ENDBRANCH   5  16
BRANCH  12  26
HETATM   26  N   UNL     1     -11.297  13.392  68.771  1.00  0.00    -0.272 NA 
HETATM   27  H   UNL     1     -11.552  13.000  67.864  1.00  0.00     0.000 HD 
BRANCH  26  28
HETATM   28  C   UNL     1     -10.435  14.509  68.695  1.00  0.00    -0.247 A  
HETATM   29 CL   UNL     1     -10.815  18.352  67.628  1.00  0.00    -0.381 Cl 
HETATM   30  C   UNL     1      -9.115  14.470  69.154  1.00  0.00     0.025 A  
HETATM   31  C   UNL     1     -10.127  16.882  68.233  1.00  0.00    -0.302 A  
HETATM   32  C   UNL     1      -8.310  15.627  69.178  1.00  0.00    -0.251 A  
HETATM   33  C   UNL     1     -10.918  15.726  68.199  1.00  0.00    -0.330 A  
HETATM   34  C   UNL     1      -8.819  16.851  68.739  1.00  0.00    -0.255 A  
BRANCH  34  35
HETATM   35  O   UNL     1      -8.168  18.052  68.824  1.00  0.00    -0.289 OA 
BRANCH  35  36
HETATM   36  C   UNL     1      -6.765  18.097  68.566  1.00  0.00    -0.230 C  
BRANCH  36  37
HETATM   37  C   UNL     1      -6.527  18.806  67.244  1.00  0.00    -0.192 A  
HETATM   38  C   UNL     1      -6.381  18.074  66.066  1.00  0.00    -0.288 A  
HETATM   39  C   UNL     1      -6.156  18.751  64.870  1.00  0.00    -0.268 A  
HETATM   40  C   UNL     1      -6.085  20.139  64.876  1.00  0.00    -0.297 A  
HETATM   41  C   UNL     1      -6.238  20.793  66.085  1.00  0.00    -0.246 A  
HETATM   42  N   UNL     1      -6.443  20.162  67.264  1.00  0.00    -0.198 NA 
ENDBRANCH  36  37
ENDBRANCH  35  36
ENDBRANCH  34  35
ENDBRANCH  26  28
ENDBRANCH  12  26
ENDBRANCH   3   4
ENDBRANCH   2   3
TORSDOF 11
ENDMDL
MODEL       27
REMARK 921   NORMALIZED FREE ENERGY PREDICTED BY IDOCK:   -6.17 KCAL/MOL
REMARK 922        TOTAL FREE ENERGY PREDICTED BY IDOCK:  -11.90 KCAL/MOL
REMARK 923 INTER-LIGAND FREE ENERGY PREDICTED BY IDOCK:  -10.52 KCAL/MOL
REMARK 924 INTRA-LIGAND FREE ENERGY PREDICTED BY IDOCK:   -1.38 KCAL/MOL
REMARK 927      BINDING AFFINITY PREDICTED BY RF-SCORE:    0.00 PKD
ROOT
HETATM    1  C   UNL     1     -12.846  12.069  63.435  1.00  0.00    -0.427 C  
HETATM    2  C   UNL     1     -12.235  13.439  63.675  1.00  0.00    -0.414 C  
ENDROOT
BRANCH   2   3
HETATM    3  O   UNL     1     -10.856  13.264  63.964  1.00  0.00    -0.380 OA 
BRANCH   3   4
HETATM    4  C   UNL     1     -10.460  12.538  65.052  1.00  0.00    -0.297 A  
HETATM    5  C   UNL     1     -10.364  12.901  66.396  1.00  0.00    -0.268 A  
HETATM    6  C   UNL     1      -8.116   7.255  68.056  1.00  0.00    -0.120 C  
HETATM    7  C   UNL     1      -9.838  11.986  67.333  1.00  0.00    -0.191 A  
HETATM    8  C   UNL     1      -8.803   8.186  65.976  1.00  0.00    -0.172 A  
HETATM    9  C   UNL     1     -10.068  11.244  64.695  1.00  0.00    -0.343 A  
HETATM   10  C   UNL     1      -9.449  10.662  66.967  1.00  0.00    -0.187 A  
HETATM   11  N   UNL     1      -9.276   9.115  65.116  1.00  0.00    -0.196 NA 
HETATM   12  C   UNL     1      -8.931   9.650  67.867  1.00  0.00    -0.118 A  
HETATM   13  C   UNL     1      -9.583  10.314  65.602  1.00  0.00    -0.232 A  
HETATM   14  N   UNL     1      -7.701   6.289  68.549  1.00  0.00    -0.099 NA 
HETATM   15  C   UNL     1      -8.603   8.388  67.331  1.00  0.00    -0.124 A  
BRANCH   5  16
HETATM   16  N   UNL     1     -10.787  14.156  66.874  1.00  0.00    -0.293 N  
HETATM   17  C   UNL     1      -9.974  15.264  66.740  1.00  0.00    -0.242 C  
HETATM   18  H   UNL     1     -11.698  14.246  67.322  1.00  0.00     0.000 HD 
HETATM   19  O   UNL     1      -8.841  15.249  66.272  1.00  0.00    -0.297 OA 
BRANCH  17  20
HETATM   20  C   UNL     1     -10.609  16.519  67.227  1.00  0.00    -0.285 C  
HETATM   21  C   UNL     1     -10.227  17.690  66.688  1.00  0.00    -0.341 C  
BRANCH  21  22
HETATM   22  C   UNL     1     -10.773  19.057  66.982  1.00  0.00    -0.432 C  
BRANCH  22  23
HETATM   23  N   UNL     1      -9.919  19.958  67.770  1.00  0.00    -0.394 NA 
HETATM   24  C   UNL     1      -9.890  19.562  69.183  1.00  0.00    -0.361 C  
HETATM   25  C   UNL     1      -8.550  19.899  67.237  1.00  0.00    -0.325 C  
ENDBRANCH  22  23
ENDBRANCH  21  22
ENDBRANCH  17  20
ENDBRANCH   5  16
BRANCH  12  26
HETATM   26  N   UNL     1      -8.776  10.005  69.251  1.00  0.00    -0.164 NA 
HETATM   27  H   UNL     1      -8.220  10.846  69.404  1.00  0.00     0.000 HD 
BRANCH  26  28
HETATM   28  C   UNL     1      -9.253   9.406  70.438  1.00  0.00    -0.257 A  
HETATM   29 CL   UNL     1     -12.829   8.244  71.823  1.00  0.00    -0.342 Cl 
HETATM   30  C   UNL     1      -8.397   8.954  71.447  1.00  0.00    -0.195 A  
HETATM   31  C   UNL     1     -11.118   8.487  71.711  1.00  0.00    -0.307 A  
HETATM   32  C   UNL     1      -8.887   8.254  72.568  1.00  0.00    -0.297 A  
HETATM   33  C   UNL     1     -10.628   9.195  70.605  1.00  0.00    -0.305 A  
HETATM   34  C   UNL     1     -10.252   7.993  72.698  1.00  0.00    -0.316 A  
BRANCH  34  35
HETATM   35  O   UNL     1     -10.819   7.228  73.681  1.00  0.00    -0.356 OA 
BRANCH  35  36
HETATM   36  C   UNL     1      -9.973   6.444  74.522  1.00  0.00    -0.351 C  
BRANCH  36  37
HETATM   37  C   UNL     1      -9.868   5.042  73.952  1.00  0.00    -0.156 A  
HETATM   38  C   UNL     1     -11.018   4.335  73.599  1.00  0.00    -0.364 A  
HETATM   39  C   UNL     1     -10.891   3.046  73.085  1.00  0.00    -0.240 A  
HETATM   40  C   UNL     1      -9.625   2.495  72.932  1.00  0.00    -0.148 A  
HETATM   41  C   UNL     1      -8.534   3.259  73.307  1.00  0.00    -0.078 A  
HETATM   42  N   UNL     1      -8.626   4.506  73.822  1.00  0.00    -0.103 NA 
ENDBRANCH  36  37
ENDBRANCH  35  36
ENDBRANCH  34  35
ENDBRANCH  26  28
ENDBRANCH  12  26
ENDBRANCH   3   4
ENDBRANCH   2   3
TORSDOF 11
ENDMDL
MODEL       28
REMARK 921   NORMALIZED FREE ENERGY PREDICTED BY IDOCK:   -6.15 KCAL/MOL
REMARK 922        TOTAL FREE ENERGY PREDICTED BY IDOCK:  -11.86 KCAL/MOL
REMARK 923 INTER-LIGAND FREE ENERGY PREDICTED BY IDOCK:  -10.40 KCAL/MOL
REMARK 924 INTRA-LIGAND FREE ENERGY PREDICTED BY IDOCK:   -1.46 KCAL/MOL
REMARK 927      BINDING AFFINITY PREDICTED BY RF-SCORE:    0.00 PKD
ROOT
HETATM    1  C   UNL     1     -10.233   4.838  74.336  1.00  0.00    -0.300 C  
HETATM    2  C   UNL     1     -10.753   5.701  73.199  1.00  0.00    -0.267 C  
ENDROOT
BRANCH   2   3
HETATM    3  O   UNL     1      -9.643   6.335  72.581  1.00  0.00    -0.153 OA 
BRANCH   3   4
HETATM    4  C   UNL     1      -9.682   6.666  71.255  1.00  0.00    -0.173 A  
HETATM    5  C   UNL     1     -10.502   7.563  70.570  1.00  0.00    -0.219 A  
HETATM    6  C   UNL     1      -7.889   6.148  65.014  1.00  0.00    -0.110 C  
HETATM    7  C   UNL     1     -10.406   7.668  69.165  1.00  0.00    -0.217 A  
HETATM    8  C   UNL     1      -7.498   5.391  67.237  1.00  0.00    -0.084 A  
HETATM    9  C   UNL     1      -8.751   5.933  70.513  1.00  0.00    -0.140 A  
HETATM   10  C   UNL     1      -9.447   6.926  68.411  1.00  0.00    -0.128 A  
HETATM   11  N   UNL     1      -7.662   5.302  68.575  1.00  0.00    -0.079 NA 
HETATM   12  C   UNL     1      -9.257   6.996  66.976  1.00  0.00    -0.147 A  
HETATM   13  C   UNL     1      -8.610   6.045  69.138  1.00  0.00    -0.117 A  
HETATM   14  N   UNL     1      -7.534   6.025  63.916  1.00  0.00    -0.073 NA 
HETATM   15  C   UNL     1      -8.253   6.194  66.397  1.00  0.00    -0.113 A  
BRANCH   5  16
HETATM   16  N   UNL     1     -11.431   8.393  71.225  1.00  0.00    -0.271 N  
HETATM   17  C   UNL     1     -11.326   9.766  71.134  1.00  0.00    -0.389 C  
HETATM   18  H   UNL     1     -12.186   7.977  71.770  1.00  0.00     0.000 HD 
HETATM   19  O   UNL     1     -10.424  10.363  70.555  1.00  0.00    -0.122 OA 
BRANCH  17  20
HETATM   20  C   UNL     1     -12.433  10.487  71.819  1.00  0.00    -0.362 C  
HETATM   21  C   UNL     1     -12.552  11.814  71.642  1.00  0.00    -0.249 C  
BRANCH  21  22
HETATM   22  C   UNL     1     -13.620  12.720  72.182  1.00  0.00    -0.451 C  
BRANCH  22  23
HETATM   23  N   UNL     1     -13.443  14.162  71.957  1.00  0.00    -0.391 NA 
HETATM   24  C   UNL     1     -13.218  14.873  73.222  1.00  0.00    -0.386 C  
HETATM   25  C   UNL     1     -12.273  14.367  71.090  1.00  0.00    -0.350 C  
ENDBRANCH  22  23
ENDBRANCH  21  22
ENDBRANCH  17  20
ENDBRANCH   5  16
BRANCH  12  26
HETATM   26  N   UNL     1     -10.117   7.875  66.233  1.00  0.00    -0.478 NA 
HETATM   27  H   UNL     1     -10.877   7.400  65.747  1.00  0.00     0.000 HD 
BRANCH  26  28
HETATM   28  C   UNL     1     -10.103   9.276  66.050  1.00  0.00    -0.192 A  
HETATM   29 CL   UNL     1     -11.482  12.442  68.083  1.00  0.00    -0.343 Cl 
HETATM   30  C   UNL     1      -9.400   9.891  65.009  1.00  0.00    -0.323 A  
HETATM   31  C   UNL     1     -10.659  11.497  66.887  1.00  0.00    -0.247 A  
HETATM   32  C   UNL     1      -9.303  11.294  64.915  1.00  0.00    -0.181 A  
HETATM   33  C   UNL     1     -10.764  10.102  66.968  1.00  0.00    -0.264 A  
HETATM   34  C   UNL     1      -9.913  12.110  65.869  1.00  0.00    -0.245 A  
BRANCH  34  35
HETATM   35  O   UNL     1      -9.788  13.472  65.939  1.00  0.00    -0.286 OA 
BRANCH  35  36
HETATM   36  C   UNL     1     -10.868  14.289  65.488  1.00  0.00    -0.322 C  
BRANCH  36  37
HETATM   37  C   UNL     1     -10.726  15.675  66.090  1.00  0.00    -0.303 A  
HETATM   38  C   UNL     1     -10.702  15.844  67.475  1.00  0.00    -0.318 A  
HETATM   39  C   UNL     1     -10.578  17.129  67.999  1.00  0.00    -0.374 A  
HETATM   40  C   UNL     1     -10.478  18.211  67.133  1.00  0.00    -0.392 A  
HETATM   41  C   UNL     1     -10.511  17.961  65.773  1.00  0.00    -0.196 A  
HETATM   42  N   UNL     1     -10.645  16.727  65.235  1.00  0.00    -0.648 NA 
ENDBRANCH  36  37
ENDBRANCH  35  36
ENDBRANCH  34  35
ENDBRANCH  26  28
ENDBRANCH  12  26
ENDBRANCH   3   4
ENDBRANCH   2   3
TORSDOF 11
ENDMDL
MODEL       29
REMARK 921   NORMALIZED FREE ENERGY PREDICTED BY IDOCK:   -6.14 KCAL/MOL
REMARK 922        TOTAL FREE ENERGY PREDICTED BY IDOCK:  -11.85 KCAL/MOL
REMARK 923 INTER-LIGAND FREE ENERGY PREDICTED BY IDOCK:   -9.94 KCAL/MOL
REMARK 924 INTRA-LIGAND FREE ENERGY PREDICTED BY IDOCK:   -1.91 KCAL/MOL
REMARK 927      BINDING AFFINITY PREDICTED BY RF-SCORE:    0.00 PKD
ROOT
HETATM    1  C   UNL     1     -13.204  15.570  71.495  1.00  0.00    -0.589 C  
HETATM    2  C   UNL     1     -13.126  14.093  71.843  1.00  0.00    -0.375 C  
ENDROOT
BRANCH   2   3
HETATM    3  O   UNL     1     -13.123  13.352  70.632  1.00  0.00    -0.064 OA 
BRANCH   3   4
HETATM    4  C   UNL     1     -12.404  12.194  70.527  1.00  0.00    -0.272 A  
HETATM    5  C   UNL     1     -11.336  11.864  69.692  1.00  0.00    -0.195 A  
HETATM    6  C   UNL     1     -11.010   5.993  71.952  1.00  0.00    -0.264 C  
HETATM    7  C   UNL     1     -10.810  10.555  69.711  1.00  0.00    -0.335 A  
HETATM    8  C   UNL     1     -12.410   7.853  72.449  1.00  0.00    -0.208 A  
HETATM    9  C   UNL     1     -12.882  11.209  71.397  1.00  0.00    -0.544 A  
HETATM   10  C   UNL     1     -11.293   9.554  70.608  1.00  0.00    -0.364 A  
HETATM   11  N   UNL     1     -12.901   9.108  72.359  1.00  0.00    -0.390 NA 
HETATM   12  C   UNL     1     -10.791   8.199  70.718  1.00  0.00    -0.228 A  
HETATM   13  C   UNL     1     -12.358   9.927  71.462  1.00  0.00    -0.412 A  
HETATM   14  N   UNL     1     -10.796   4.889  72.241  1.00  0.00    -0.152 NA 
HETATM   15  C   UNL     1     -11.385   7.344  71.668  1.00  0.00    -0.286 A  
BRANCH   5  16
HETATM   16  N   UNL     1     -10.739  12.796  68.822  1.00  0.00    -0.320 N  
HETATM   17  C   UNL     1     -11.200  12.939  67.528  1.00  0.00    -0.290 C  
HETATM   18  H   UNL     1      -9.961  13.368  69.149  1.00  0.00     0.000 HD 
HETATM   19  O   UNL     1     -12.087  12.260  67.022  1.00  0.00    -0.575 OA 
BRANCH  17  20
HETATM   20  C   UNL     1     -10.509  14.020  66.775  1.00  0.00    -0.277 C  
HETATM   21  C   UNL     1     -10.950  15.284  66.902  1.00  0.00    -0.315 C  
BRANCH  21  22
HETATM   22  C   UNL     1     -10.369  16.525  66.289  1.00  0.00    -0.320 C  
BRANCH  22  23
HETATM   23  N   UNL     1     -10.477  17.765  67.071  1.00  0.00    -0.343 NA 
HETATM   24  C   UNL     1      -9.380  17.878  68.041  1.00  0.00    -0.274 C  
HETATM   25  C   UNL     1     -10.411  18.912  66.153  1.00  0.00    -0.457 C  
ENDBRANCH  22  23
ENDBRANCH  21  22
ENDBRANCH  17  20
ENDBRANCH   5  16
BRANCH  12  26
HETATM   26  N   UNL     1      -9.722   7.811  69.840  1.00  0.00    -0.175 NA 
HETATM   27  H   UNL     1      -8.792   8.041  70.192  1.00  0.00     0.000 HD 
BRANCH  26  28
HETATM   28  C   UNL     1      -9.719   7.171  68.581  1.00  0.00    -0.141 A  
HETATM   29 CL   UNL     1      -7.038   6.614  65.656  1.00  0.00    -0.060 Cl 
HETATM   30  C   UNL     1     -10.803   6.416  68.120  1.00  0.00    -0.386 A  
HETATM   31  C   UNL     1      -8.500   6.503  66.579  1.00  0.00    -0.120 A  
HETATM   32  C   UNL     1     -10.734   5.690  66.914  1.00  0.00    -0.350 A  
HETATM   33  C   UNL     1      -8.578   7.235  67.772  1.00  0.00    -0.120 A  
HETATM   34  C   UNL     1      -9.570   5.708  66.144  1.00  0.00    -0.120 A  
BRANCH  34  35
HETATM   35  O   UNL     1      -9.355   4.954  65.022  1.00  0.00    -0.146 OA 
BRANCH  35  36
HETATM   36  C   UNL     1      -9.475   3.534  65.110  1.00  0.00    -0.158 C  
BRANCH  36  37
HETATM   37  C   UNL     1      -8.240   2.974  65.792  1.00  0.00    -0.088 A  
HETATM   38  C   UNL     1      -7.067   2.762  65.067  1.00  0.00    -0.054 A  
HETATM   39  C   UNL     1      -5.952   2.240  65.718  1.00  0.00    -0.022 A  
HETATM   40  C   UNL     1      -6.031   1.943  67.073  1.00  0.00    -0.020 A  
HETATM   41  C   UNL     1      -7.231   2.178  67.721  1.00  0.00    -0.047 A  
HETATM   42  N   UNL     1      -8.334   2.672  67.113  1.00  0.00    -0.088 NA 
ENDBRANCH  36  37
ENDBRANCH  35  36
ENDBRANCH  34  35
ENDBRANCH  26  28
ENDBRANCH  12  26
ENDBRANCH   3   4
ENDBRANCH   2   3
TORSDOF 11
ENDMDL
MODEL       30
REMARK 921   NORMALIZED FREE ENERGY PREDICTED BY IDOCK:   -6.13 KCAL/MOL
REMARK 922        TOTAL FREE ENERGY PREDICTED BY IDOCK:  -11.83 KCAL/MOL
REMARK 923 INTER-LIGAND FREE ENERGY PREDICTED BY IDOCK:   -9.04 KCAL/MOL
REMARK 924 INTRA-LIGAND FREE ENERGY PREDICTED BY IDOCK:   -2.79 KCAL/MOL
REMARK 927      BINDING AFFINITY PREDICTED BY RF-SCORE:    0.00 PKD
ROOT
HETATM    1  C   UNL     1      -7.208   8.681  63.390  1.00  0.00    -0.095 C  
HETATM    2  C   UNL     1      -7.675   9.938  64.105  1.00  0.00    -0.138 C  
ENDROOT
BRANCH   2   3
HETATM    3  O   UNL     1      -9.086   9.870  64.245  1.00  0.00    -0.222 OA 
BRANCH   3   4
HETATM    4  C   UNL     1      -9.664   9.881  65.483  1.00  0.00    -0.302 A  
HETATM    5  C   UNL     1     -10.000   8.828  66.335  1.00  0.00    -0.275 A  
HETATM    6  C   UNL     1     -12.466  12.716  70.635  1.00  0.00    -0.239 C  
HETATM    7  C   UNL     1     -10.677   9.094  67.544  1.00  0.00    -0.255 A  
HETATM    8  C   UNL     1     -11.427  13.074  68.523  1.00  0.00    -0.304 A  
HETATM    9  C   UNL     1      -9.977  11.180  65.895  1.00  0.00    -0.285 A  
HETATM   10  C   UNL     1     -10.986  10.423  67.967  1.00  0.00    -0.347 A  
HETATM   11  N   UNL     1     -10.815  12.758  67.361  1.00  0.00    -0.236 NA 
HETATM   12  C   UNL     1     -11.648  10.788  69.204  1.00  0.00    -0.305 A  
HETATM   13  C   UNL     1     -10.608  11.471  67.095  1.00  0.00    -0.237 A  
HETATM   14  N   UNL     1     -12.955  13.265  71.533  1.00  0.00    -0.365 NA 
HETATM   15  C   UNL     1     -11.866  12.156  69.463  1.00  0.00    -0.386 A  
BRANCH   5  16
HETATM   16  N   UNL     1      -9.678   7.489  66.047  1.00  0.00    -0.425 N  
HETATM   17  C   UNL     1      -8.460   6.964  66.434  1.00  0.00    -0.130 C  
HETATM   18  H   UNL     1     -10.348   6.902  65.550  1.00  0.00     0.000 HD 
HETATM   19  O   UNL     1      -7.566   7.600  66.981  1.00  0.00    -0.099 OA 
BRANCH  17  20
HETATM   20  C   UNL     1      -8.319   5.517  66.120  1.00  0.00    -0.119 C  
HETATM   21  C   UNL     1      -9.428   4.769  65.990  1.00  0.00    -0.168 C  
BRANCH  21  22
HETATM   22  C   UNL     1      -9.520   3.318  65.619  1.00  0.00    -0.096 C  
BRANCH  22  23
HETATM   23  N   UNL     1      -9.556   3.000  64.184  1.00  0.00    -0.141 NA 
HETATM   24  C   UNL     1      -9.630   1.550  63.963  1.00  0.00    -0.131 C  
HETATM   25  C   UNL     1     -10.748   3.626  63.591  1.00  0.00    -0.251 C  
ENDBRANCH  22  23
ENDBRANCH  21  22
ENDBRANCH  17  20
ENDBRANCH   5  16
BRANCH  12  26
HETATM   26  N   UNL     1     -12.048   9.725  70.084  1.00  0.00    -0.467 NA 
HETATM   27  H   UNL     1     -13.041   9.496  70.033  1.00  0.00     0.000 HD 
BRANCH  26  28
HETATM   28  C   UNL     1     -11.321   8.938  71.006  1.00  0.00    -0.291 A  
HETATM   29 CL   UNL     1     -11.908   5.443  72.876  1.00  0.00    -0.256 Cl 
HETATM   30  C   UNL     1     -10.019   9.257  71.401  1.00  0.00    -0.323 A  
HETATM   31  C   UNL     1     -11.142   6.895  72.322  1.00  0.00    -0.249 A  
HETATM   32  C   UNL     1      -9.270   8.396  72.229  1.00  0.00    -0.329 A  
HETATM   33  C   UNL     1     -11.886   7.760  71.510  1.00  0.00    -0.324 A  
HETATM   34  C   UNL     1      -9.818   7.193  72.678  1.00  0.00    -0.166 A  
BRANCH  34  35
HETATM   35  O   UNL     1      -9.145   6.236  73.387  1.00  0.00    -0.129 OA 
BRANCH  35  36
HETATM   36  C   UNL     1      -7.985   5.635  72.810  1.00  0.00    -0.102 C  
BRANCH  36  37
HETATM   37  C   UNL     1      -8.417   4.660  71.729  1.00  0.00    -0.113 A  
HETATM   38  C   UNL     1      -9.095   3.488  72.066  1.00  0.00    -0.157 A  
HETATM   39  C   UNL     1      -9.472   2.609  71.053  1.00  0.00    -0.224 A  
HETATM   40  C   UNL     1      -9.168   2.918  69.733  1.00  0.00    -0.213 A  
HETATM   41  C   UNL     1      -8.492   4.099  69.481  1.00  0.00    -0.068 A  
HETATM   42  N   UNL     1      -8.101   4.965  70.444  1.00  0.00    -0.082 NA 
ENDBRANCH  36  37
ENDBRANCH  35  36
ENDBRANCH  34  35
ENDBRANCH  26  28
ENDBRANCH  12  26
ENDBRANCH   3   4
ENDBRANCH   2   3
TORSDOF 11
ENDMDL
MODEL       31
REMARK 921   NORMALIZED FREE ENERGY PREDICTED BY IDOCK:   -5.89 KCAL/MOL
REMARK 922        TOTAL FREE ENERGY PREDICTED BY IDOCK:  -11.44 KCAL/MOL
REMARK 923 INTER-LIGAND FREE ENERGY PREDICTED BY IDOCK:  -10.18 KCAL/MOL
REMARK 924 INTRA-LIGAND FREE ENERGY PREDICTED BY IDOCK:   -1.26 KCAL/MOL
REMARK 927      BINDING AFFINITY PREDICTED BY RF-SCORE:    0.00 PKD
ROOT
HETATM    1  C   UNL     1     -11.541   5.200  72.914  1.00  0.00    -0.282 C  
HETATM    2  C   UNL     1     -10.440   5.475  71.904  1.00  0.00    -0.225 C  
ENDROOT
BRANCH   2   3
HETATM    3  O   UNL     1     -10.421   6.870  71.639  1.00  0.00    -0.204 OA 
BRANCH   3   4
HETATM    4  C   UNL     1     -10.232   7.333  70.367  1.00  0.00    -0.194 A  
HETATM    5  C   UNL     1     -10.773   8.444  69.719  1.00  0.00    -0.211 A  
HETATM    6  C   UNL     1      -7.825   7.087  64.319  1.00  0.00    -0.111 C  
HETATM    7  C   UNL     1     -10.487   8.668  68.354  1.00  0.00    -0.220 A  
HETATM    8  C   UNL     1      -7.863   6.045  66.459  1.00  0.00    -0.104 A  
HETATM    9  C   UNL     1      -9.377   6.503  69.636  1.00  0.00    -0.144 A  
HETATM   10  C   UNL     1      -9.605   7.823  67.614  1.00  0.00    -0.177 A  
HETATM   11  N   UNL     1      -8.202   5.858  67.754  1.00  0.00    -0.105 NA 
HETATM   12  C   UNL     1      -9.232   7.997  66.224  1.00  0.00    -0.184 A  
HETATM   13  C   UNL     1      -9.051   6.721  68.307  1.00  0.00    -0.124 A  
HETATM   14  N   UNL     1      -7.369   7.004  63.255  1.00  0.00    -0.074 NA 
HETATM   15  C   UNL     1      -8.339   7.067  65.654  1.00  0.00    -0.137 A  
BRANCH   5  16
HETATM   16  N   UNL     1     -11.596   9.378  70.375  1.00  0.00    -0.392 N  
HETATM   17  C   UNL     1     -11.436  10.731  70.149  1.00  0.00    -0.331 C  
HETATM   18  H   UNL     1     -12.315   9.053  71.022  1.00  0.00     0.000 HD 
HETATM   19  O   UNL     1     -10.566  11.224  69.440  1.00  0.00    -0.195 OA 
BRANCH  17  20
HETATM   20  C   UNL     1     -12.439  11.568  70.862  1.00  0.00    -0.464 C  
HETATM   21  C   UNL     1     -12.179  12.872  71.051  1.00  0.00    -0.211 C  
BRANCH  21  22
HETATM   22  C   UNL     1     -13.067  13.904  71.684  1.00  0.00    -0.367 C  
BRANCH  22  23
HETATM   23  N   UNL     1     -12.803  15.309  71.340  1.00  0.00    -0.378 NA 
HETATM   24  C   UNL     1     -12.187  16.024  72.466  1.00  0.00    -0.519 C  
HETATM   25  C   UNL     1     -11.880  15.351  70.196  1.00  0.00    -0.335 C  
ENDBRANCH  22  23
ENDBRANCH  21  22
ENDBRANCH  17  20
ENDBRANCH   5  16
BRANCH  12  26
HETATM   26  N   UNL     1      -9.807   9.105  65.513  1.00  0.00    -0.452 NA 
HETATM   27  H   UNL     1     -10.371   8.834  64.708  1.00  0.00     0.000 HD 
BRANCH  26  28
HETATM   28  C   UNL     1      -9.736  10.500  65.724  1.00  0.00    -0.223 A  
HETATM   29 CL   UNL     1     -12.218  13.604  65.209  1.00  0.00    -0.432 Cl 
HETATM   30  C   UNL     1      -8.642  11.111  66.344  1.00  0.00    -0.172 A  
HETATM   31  C   UNL     1     -10.828  12.679  65.672  1.00  0.00    -0.274 A  
HETATM   32  C   UNL     1      -8.644  12.487  66.651  1.00  0.00    -0.057 A  
HETATM   33  C   UNL     1     -10.816  11.313  65.357  1.00  0.00    -0.255 A  
HETATM   34  C   UNL     1      -9.750  13.280  66.338  1.00  0.00    -0.276 A  
BRANCH  34  35
HETATM   35  O   UNL     1      -9.904  14.593  66.690  1.00  0.00    -0.251 OA 
BRANCH  35  36
HETATM   36  C   UNL     1      -9.038  15.570  66.112  1.00  0.00    -0.324 C  
BRANCH  36  37
HETATM   37  C   UNL     1      -9.196  16.879  66.864  1.00  0.00    -0.238 A  
HETATM   38  C   UNL     1      -8.818  18.084  66.272  1.00  0.00    -0.194 A  
HETATM   39  C   UNL     1      -8.967  19.269  66.991  1.00  0.00    -0.331 A  
HETATM   40  C   UNL     1      -9.489  19.224  68.278  1.00  0.00    -0.421 A  
HETATM   41  C   UNL     1      -9.838  17.990  68.795  1.00  0.00    -0.354 A  
HETATM   42  N   UNL     1      -9.693  16.822  68.128  1.00  0.00    -0.240 NA 
ENDBRANCH  36  37
ENDBRANCH  35  36
ENDBRANCH  34  35
ENDBRANCH  26  28
ENDBRANCH  12  26
ENDBRANCH   3   4
ENDBRANCH   2   3
TORSDOF 11
ENDMDL
MODEL       32
REMARK 921   NORMALIZED FREE ENERGY PREDICTED BY IDOCK:   -5.88 KCAL/MOL
REMARK 922        TOTAL FREE ENERGY PREDICTED BY IDOCK:  -11.42 KCAL/MOL
REMARK 923 INTER-LIGAND FREE ENERGY PREDICTED BY IDOCK:  -10.37 KCAL/MOL
REMARK 924 INTRA-LIGAND FREE ENERGY PREDICTED BY IDOCK:   -1.05 KCAL/MOL
REMARK 927      BINDING AFFINITY PREDICTED BY RF-SCORE:    0.00 PKD
ROOT
HETATM    1  C   UNL     1     -13.092  15.861  73.379  1.00  0.00    -0.694 C  
HETATM    2  C   UNL     1     -13.368  14.438  72.923  1.00  0.00    -0.478 C  
ENDROOT
BRANCH   2   3
HETATM    3  O   UNL     1     -13.645  14.465  71.531  1.00  0.00    -0.348 OA 
BRANCH   3   4
HETATM    4  C   UNL     1     -12.627  14.434  70.619  1.00  0.00    -0.357 A  
HETATM    5  C   UNL     1     -11.822  13.376  70.196  1.00  0.00    -0.272 A  
HETATM    6  C   UNL     1      -8.456  17.085  66.376  1.00  0.00    -0.283 C  
HETATM    7  C   UNL     1     -10.764  13.617  69.293  1.00  0.00    -0.060 A  
HETATM    8  C   UNL     1     -10.297  17.489  67.830  1.00  0.00    -0.367 A  
HETATM    9  C   UNL     1     -12.376  15.701  70.083  1.00  0.00    -0.366 A  
HETATM   10  C   UNL     1     -10.517  14.909  68.739  1.00  0.00    -0.242 A  
HETATM   11  N   UNL     1     -11.268  17.208  68.726  1.00  0.00     0.003 NA 
HETATM   12  C   UNL     1      -9.477  15.239  67.784  1.00  0.00    -0.197 A  
HETATM   13  C   UNL     1     -11.367  15.957  69.166  1.00  0.00    -0.366 A  
HETATM   14  N   UNL     1      -7.736  17.601  65.624  1.00  0.00    -0.454 NA 
HETATM   15  C   UNL     1      -9.383  16.572  67.337  1.00  0.00    -0.223 A  
BRANCH   5  16
HETATM   16  N   UNL     1     -12.025  12.051  70.626  1.00  0.00    -0.485 N  
HETATM   17  C   UNL     1     -12.095  11.022  69.707  1.00  0.00    -0.353 C  
HETATM   18  H   UNL     1     -12.122  11.850  71.621  1.00  0.00     0.000 HD 
HETATM   19  O   UNL     1     -12.050  11.165  68.491  1.00  0.00    -0.586 OA 
BRANCH  17  20
HETATM   20  C   UNL     1     -12.233   9.681  70.338  1.00  0.00    -0.065 C  
HETATM   21  C   UNL     1     -11.598   9.441  71.498  1.00  0.00    -0.467 C  
BRANCH  21  22
HETATM   22  C   UNL     1     -11.649   8.193  72.331  1.00  0.00    -0.399 C  
BRANCH  22  23
HETATM   23  N   UNL     1     -10.792   7.076  71.908  1.00  0.00    -0.222 NA 
HETATM   24  C   UNL     1      -9.505   7.097  72.614  1.00  0.00    -0.147 C  
HETATM   25  C   UNL     1     -11.476   5.811  72.216  1.00  0.00    -0.262 C  
ENDBRANCH  22  23
ENDBRANCH  21  22
ENDBRANCH  17  20
ENDBRANCH   5  16
BRANCH  12  26
HETATM   26  N   UNL     1      -8.601  14.181  67.362  1.00  0.00    -0.198 NA 
HETATM   27  H   UNL     1      -7.633  14.301  67.658  1.00  0.00     0.000 HD 
BRANCH  26  28
HETATM   28  C   UNL     1      -8.833  13.006  66.612  1.00  0.00    -0.073 A  
HETATM   29 CL   UNL     1     -11.213  11.982  63.556  1.00  0.00    -0.512 Cl 
HETATM   30  C   UNL     1      -8.069  11.847  66.779  1.00  0.00    -0.108 A  
HETATM   31  C   UNL     1      -9.987  11.893  64.776  1.00  0.00    -0.235 A  
HETATM   32  C   UNL     1      -8.240  10.727  65.940  1.00  0.00    -0.155 A  
HETATM   33  C   UNL     1      -9.823  12.999  65.621  1.00  0.00    -0.181 A  
HETATM   34  C   UNL     1      -9.186  10.750  64.914  1.00  0.00    -0.212 A  
BRANCH  34  35
HETATM   35  O   UNL     1      -9.356   9.769  63.975  1.00  0.00    -0.264 OA 
BRANCH  35  36
HETATM   36  C   UNL     1      -8.218   9.300  63.250  1.00  0.00    -0.176 C  
BRANCH  36  37
HETATM   37  C   UNL     1      -7.953   7.854  63.625  1.00  0.00    -0.118 A  
HETATM   38  C   UNL     1      -7.989   7.452  64.961  1.00  0.00    -0.129 A  
HETATM   39  C   UNL     1      -7.734   6.118  65.275  1.00  0.00    -0.095 A  
HETATM   40  C   UNL     1      -7.452   5.220  64.253  1.00  0.00    -0.062 A  
HETATM   41  C   UNL     1      -7.433   5.696  62.955  1.00  0.00    -0.058 A  
HETATM   42  N   UNL     1      -7.663   6.987  62.620  1.00  0.00    -0.103 NA 
ENDBRANCH  36  37
ENDBRANCH  35  36
ENDBRANCH  34  35
ENDBRANCH  26  28
ENDBRANCH  12  26
ENDBRANCH   3   4
ENDBRANCH   2   3
TORSDOF 11
ENDMDL
MODEL       33
REMARK 921   NORMALIZED FREE ENERGY PREDICTED BY IDOCK:   -5.83 KCAL/MOL
REMARK 922        TOTAL FREE ENERGY PREDICTED BY IDOCK:  -11.34 KCAL/MOL
REMARK 923 INTER-LIGAND FREE ENERGY PREDICTED BY IDOCK:   -9.87 KCAL/MOL
REMARK 924 INTRA-LIGAND FREE ENERGY PREDICTED BY IDOCK:   -1.47 KCAL/MOL
REMARK 927      BINDING AFFINITY PREDICTED BY RF-SCORE:    0.00 PKD
ROOT
HETATM    1  C   UNL     1     -12.271  14.773  64.254  1.00  0.00    -0.402 C  
HETATM    2  C   UNL     1     -12.591  14.104  65.580  1.00  0.00    -0.479 C  
ENDROOT
BRANCH   2   3
HETATM    3  O   UNL     1     -12.758  12.714  65.345  1.00  0.00    -0.635 OA 
BRANCH   3   4
HETATM    4  C   UNL     1     -11.693  11.861  65.426  1.00  0.00    -0.162 A  
HETATM    5  C   UNL     1     -11.100  11.256  66.536  1.00  0.00    -0.216 A  
HETATM    6  C   UNL     1      -6.684   8.470  63.012  1.00  0.00    -0.090 C  
HETATM    7  C   UNL     1      -9.938  10.472  66.368  1.00  0.00    -0.271 A  
HETATM    8  C   UNL     1      -8.518   9.896  62.495  1.00  0.00    -0.167 A  
HETATM    9  C   UNL     1     -11.128  11.621  64.171  1.00  0.00    -0.435 A  
HETATM   10  C   UNL     1      -9.370  10.220  65.083  1.00  0.00    -0.279 A  
HETATM   11  N   UNL     1      -9.604  10.668  62.718  1.00  0.00    -0.315 NA 
HETATM   12  C   UNL     1      -8.201   9.403  64.817  1.00  0.00    -0.145 A  
HETATM   13  C   UNL     1     -10.009  10.825  63.975  1.00  0.00    -0.342 A  
HETATM   14  N   UNL     1      -5.805   7.878  62.536  1.00  0.00    -0.068 NA 
HETATM   15  C   UNL     1      -7.783   9.257  63.480  1.00  0.00    -0.119 A  
BRANCH   5  16
HETATM   16  N   UNL     1     -11.622  11.382  67.837  1.00  0.00    -0.285 N  
HETATM   17  C   UNL     1     -11.216  12.417  68.655  1.00  0.00    -0.271 C  
HETATM   18  H   UNL     1     -12.304  10.705  68.176  1.00  0.00     0.000 HD 
HETATM   19  O   UNL     1     -10.360  13.246  68.364  1.00  0.00    -0.242 OA 
BRANCH  17  20
HETATM   20  C   UNL     1     -11.925  12.444  69.963  1.00  0.00    -0.372 C  
HETATM   21  C   UNL     1     -12.128  13.628  70.566  1.00  0.00    -0.411 C  
BRANCH  21  22
HETATM   22  C   UNL     1     -12.868  13.892  71.846  1.00  0.00    -0.322 C  
BRANCH  22  23
HETATM   23  N   UNL     1     -12.898  15.282  72.321  1.00  0.00    -0.333 NA 
HETATM   24  C   UNL     1     -12.785  15.346  73.784  1.00  0.00    -0.583 C  
HETATM   25  C   UNL     1     -11.764  16.010  71.731  1.00  0.00    -0.509 C  
ENDBRANCH  22  23
ENDBRANCH  21  22
ENDBRANCH  17  20
ENDBRANCH   5  16
BRANCH  12  26
HETATM   26  N   UNL     1      -7.539   8.802  65.942  1.00  0.00    -0.088 NA 
HETATM   27  H   UNL     1      -6.569   9.094  66.057  1.00  0.00     0.000 HD 
BRANCH  26  28
HETATM   28  C   UNL     1      -7.984   7.882  66.918  1.00  0.00    -0.108 A  
HETATM   29 CL   UNL     1     -10.374   4.666  66.943  1.00  0.00    -0.199 Cl 
HETATM   30  C   UNL     1      -7.500   7.887  68.230  1.00  0.00    -0.104 A  
HETATM   31  C   UNL     1      -9.259   5.881  67.474  1.00  0.00    -0.108 A  
HETATM   32  C   UNL     1      -7.868   6.888  69.154  1.00  0.00    -0.111 A  
HETATM   33  C   UNL     1      -8.900   6.884  66.564  1.00  0.00    -0.148 A  
HETATM   34  C   UNL     1      -8.734   5.860  68.775  1.00  0.00    -0.109 A  
BRANCH  34  35
HETATM   35  O   UNL     1      -9.066   4.783  69.551  1.00  0.00    -0.093 OA 
BRANCH  35  36
HETATM   36  C   UNL     1      -8.274   4.489  70.702  1.00  0.00    -0.075 C  
BRANCH  36  37
HETATM   37  C   UNL     1      -9.031   4.913  71.947  1.00  0.00    -0.135 A  
HETATM   38  C   UNL     1     -10.417   4.760  72.017  1.00  0.00    -0.225 A  
HETATM   39  C   UNL     1     -11.086   5.165  73.170  1.00  0.00    -0.391 A  
HETATM   40  C   UNL     1     -10.361   5.709  74.223  1.00  0.00    -0.289 A  
HETATM   41  C   UNL     1      -8.991   5.829  74.076  1.00  0.00    -0.126 A  
HETATM   42  N   UNL     1      -8.315   5.458  72.965  1.00  0.00    -0.112 NA 
ENDBRANCH  36  37
ENDBRANCH  35  36
ENDBRANCH  34  35
ENDBRANCH  26  28
ENDBRANCH  12  26
ENDBRANCH   3   4
ENDBRANCH   2   3
TORSDOF 11
ENDMDL
MODEL       34
REMARK 921   NORMALIZED FREE ENERGY PREDICTED BY IDOCK:   -5.79 KCAL/MOL
REMARK 922        TOTAL FREE ENERGY PREDICTED BY IDOCK:  -11.28 KCAL/MOL
REMARK 923 INTER-LIGAND FREE ENERGY PREDICTED BY IDOCK:   -9.49 KCAL/MOL
REMARK 924 INTRA-LIGAND FREE ENERGY PREDICTED BY IDOCK:   -1.79 KCAL/MOL
REMARK 927      BINDING AFFINITY PREDICTED BY RF-SCORE:    0.00 PKD
ROOT
HETATM    1  C   UNL     1     -11.455   4.824  73.227  1.00  0.00    -0.361 C  
HETATM    2  C   UNL     1     -10.376   5.451  72.360  1.00  0.00    -0.209 C  
ENDROOT
BRANCH   2   3
HETATM    3  O   UNL     1     -10.893   5.595  71.045  1.00  0.00    -0.260 OA 
BRANCH   3   4
HETATM    4  C   UNL     1     -10.850   6.805  70.410  1.00  0.00    -0.262 A  
HETATM    5  C   UNL     1     -10.199   7.188  69.237  1.00  0.00    -0.190 A  
HETATM    6  C   UNL     1     -12.134  13.159  69.778  1.00  0.00    -0.270 C  
HETATM    7  C   UNL     1     -10.236   8.538  68.825  1.00  0.00    -0.217 A  
HETATM    8  C   UNL     1     -12.482  11.210  71.099  1.00  0.00    -0.393 A  
HETATM    9  C   UNL     1     -11.561   7.782  71.113  1.00  0.00    -0.301 A  
HETATM   10  C   UNL     1     -10.972   9.531  69.538  1.00  0.00    -0.217 A  
HETATM   11  N   UNL     1     -12.380   9.914  71.467  1.00  0.00    -0.385 NA 
HETATM   12  C   UNL     1     -11.090  10.929  69.170  1.00  0.00    -0.245 A  
HETATM   13  C   UNL     1     -11.643   9.106  70.709  1.00  0.00    -0.276 A  
HETATM   14  N   UNL     1     -12.391  14.289  69.706  1.00  0.00    -0.325 NA 
HETATM   15  C   UNL     1     -11.867  11.770  69.991  1.00  0.00    -0.422 A  
BRANCH   5  16
HETATM   16  N   UNL     1      -9.506   6.274  68.422  1.00  0.00    -0.119 N  
HETATM   17  C   UNL     1      -8.167   6.018  68.643  1.00  0.00    -0.107 C  
HETATM   18  H   UNL     1      -9.995   5.799  67.663  1.00  0.00     0.000 HD 
HETATM   19  O   UNL     1      -7.477   6.578  69.487  1.00  0.00    -0.088 OA 
BRANCH  17  20
HETATM   20  C   UNL     1      -7.614   4.970  67.742  1.00  0.00    -0.083 C  
HETATM   21  C   UNL     1      -7.862   5.051  66.424  1.00  0.00    -0.099 C  
BRANCH  21  22
HETATM   22  C   UNL     1      -7.356   4.148  65.336  1.00  0.00    -0.072 C  
BRANCH  22  23
HETATM   23  N   UNL     1      -7.010   4.779  64.055  1.00  0.00    -0.048 NA 
HETATM   24  C   UNL     1      -7.867   5.941  63.787  1.00  0.00    -0.115 C  
HETATM   25  C   UNL     1      -5.611   5.232  64.113  1.00  0.00    -0.017 C  
ENDBRANCH  22  23
ENDBRANCH  21  22
ENDBRANCH  17  20
ENDBRANCH   5  16
BRANCH  12  26
HETATM   26  N   UNL     1     -10.395  11.368  67.992  1.00  0.00    -0.179 NA 
HETATM   27  H   UNL     1     -10.537  10.768  67.179  1.00  0.00     0.000 HD 
BRANCH  26  28
HETATM   28  C   UNL     1      -9.551  12.475  67.751  1.00  0.00    -0.203 A  
HETATM   29 CL   UNL     1      -9.811  15.866  65.631  1.00  0.00    -0.363 Cl 
HETATM   30  C   UNL     1      -8.326  12.642  68.404  1.00  0.00    -0.125 A  
HETATM   31  C   UNL     1      -9.210  14.654  66.714  1.00  0.00    -0.264 A  
HETATM   32  C   UNL     1      -7.557  13.811  68.238  1.00  0.00    -0.129 A  
HETATM   33  C   UNL     1      -9.964  13.484  66.872  1.00  0.00    -0.256 A  
HETATM   34  C   UNL     1      -8.005  14.840  67.408  1.00  0.00    -0.197 A  
BRANCH  34  35
HETATM   35  O   UNL     1      -7.398  16.058  67.263  1.00  0.00    -0.167 OA 
BRANCH  35  36
HETATM   36  C   UNL     1      -7.550  17.034  68.295  1.00  0.00    -0.213 C  
BRANCH  36  37
HETATM   37  C   UNL     1      -8.528  18.097  67.831  1.00  0.00    -0.254 A  
HETATM   38  C   UNL     1      -9.751  18.266  68.482  1.00  0.00    -0.379 A  
HETATM   39  C   UNL     1     -10.632  19.245  68.029  1.00  0.00    -0.431 A  
HETATM   40  C   UNL     1     -10.273  20.033  66.942  1.00  0.00    -0.595 A  
HETATM   41  C   UNL     1      -9.045  19.804  66.349  1.00  0.00    -0.382 A  
HETATM   42  N   UNL     1      -8.175  18.852  66.758  1.00  0.00    -0.269 NA 
ENDBRANCH  36  37
ENDBRANCH  35  36
ENDBRANCH  34  35
ENDBRANCH  26  28
ENDBRANCH  12  26
ENDBRANCH   3   4
ENDBRANCH   2   3
TORSDOF 11
ENDMDL
MODEL       35
REMARK 921   NORMALIZED FREE ENERGY PREDICTED BY IDOCK:   -5.73 KCAL/MOL
REMARK 922        TOTAL FREE ENERGY PREDICTED BY IDOCK:  -11.17 KCAL/MOL
REMARK 923 INTER-LIGAND FREE ENERGY PREDICTED BY IDOCK:   -9.18 KCAL/MOL
REMARK 924 INTRA-LIGAND FREE ENERGY PREDICTED BY IDOCK:   -1.98 KCAL/MOL
REMARK 927      BINDING AFFINITY PREDICTED BY RF-SCORE:    0.00 PKD
ROOT
HETATM    1  C   UNL     1     -12.138  11.978  63.491  1.00  0.00    -0.628 C  
HETATM    2  C   UNL     1     -13.025  12.716  64.479  1.00  0.00    -0.146 C  
ENDROOT
BRANCH   2   3
HETATM    3  O   UNL     1     -12.494  12.522  65.782  1.00  0.00    -0.626 OA 
BRANCH   3   4
HETATM    4  C   UNL     1     -11.253  12.995  66.104  1.00  0.00    -0.291 A  
HETATM    5  C   UNL     1     -10.054  12.315  66.323  1.00  0.00    -0.234 A  
HETATM    6  C   UNL     1      -6.958  17.631  67.681  1.00  0.00    -0.176 C  
HETATM    7  C   UNL     1      -8.909  13.030  66.734  1.00  0.00    -0.144 A  
HETATM    8  C   UNL     1      -9.209  17.173  67.058  1.00  0.00    -0.241 A  
HETATM    9  C   UNL     1     -11.254  14.385  66.258  1.00  0.00    -0.338 A  
HETATM   10  C   UNL     1      -8.910  14.450  66.881  1.00  0.00    -0.246 A  
HETATM   11  N   UNL     1     -10.284  16.434  66.705  1.00  0.00    -0.279 NA 
HETATM   12  C   UNL     1      -7.775  15.265  67.266  1.00  0.00    -0.211 A  
HETATM   13  C   UNL     1     -10.134  15.114  66.625  1.00  0.00    -0.264 A  
HETATM   14  N   UNL     1      -6.227  18.491  67.953  1.00  0.00    -0.186 NA 
HETATM   15  C   UNL     1      -7.957  16.660  67.354  1.00  0.00    -0.186 A  
BRANCH   5  16
HETATM   16  N   UNL     1      -9.926  10.926  66.138  1.00  0.00    -0.224 N  
HETATM   17  C   UNL     1     -10.518  10.046  67.022  1.00  0.00    -0.238 C  
HETATM   18  H   UNL     1      -9.393  10.568  65.346  1.00  0.00     0.000 HD 
HETATM   19  O   UNL     1     -11.127  10.374  68.034  1.00  0.00    -0.280 OA 
BRANCH  17  20
HETATM   20  C   UNL     1     -10.349   8.620  66.632  1.00  0.00    -0.303 C  
HETATM   21  C   UNL     1     -10.512   7.668  67.567  1.00  0.00    -0.336 C  
BRANCH  21  22
HETATM   22  C   UNL     1     -10.450   6.179  67.383  1.00  0.00    -0.247 C  
BRANCH  22  23
HETATM   23  N   UNL     1     -10.362   5.362  68.601  1.00  0.00    -0.179 NA 
HETATM   24  C   UNL     1      -8.978   5.277  69.085  1.00  0.00    -0.103 C  
HETATM   25  C   UNL     1     -11.187   5.983  69.649  1.00  0.00    -0.357 C  
ENDBRANCH  22  23
ENDBRANCH  21  22
ENDBRANCH  17  20
ENDBRANCH   5  16
BRANCH  12  26
HETATM   26  N   UNL     1      -6.536  14.593  67.544  1.00  0.00    -0.306 NA 
HETATM   27  H   UNL     1      -5.788  14.814  66.887  1.00  0.00     0.000 HD 
BRANCH  26  28
HETATM   28  C   UNL     1      -6.163  13.682  68.558  1.00  0.00    -0.091 A  
HETATM   29 CL   UNL     1      -5.654  13.869  72.528  1.00  0.00    -0.161 Cl 
HETATM   30  C   UNL     1      -5.979  12.318  68.311  1.00  0.00    -0.054 A  
HETATM   31  C   UNL     1      -5.782  13.231  70.922  1.00  0.00    -0.167 A  
HETATM   32  C   UNL     1      -5.723  11.409  69.358  1.00  0.00    -0.058 A  
HETATM   33  C   UNL     1      -6.022  14.132  69.877  1.00  0.00    -0.133 A  
HETATM   34  C   UNL     1      -5.646  11.856  70.679  1.00  0.00    -0.149 A  
BRANCH  34  35
HETATM   35  O   UNL     1      -5.516  11.050  71.778  1.00  0.00    -0.333 OA 
BRANCH  35  36
HETATM   36  C   UNL     1      -5.506   9.634  71.599  1.00  0.00    -0.072 C  
BRANCH  36  37
HETATM   37  C   UNL     1      -6.909   9.097  71.820  1.00  0.00     0.103 A  
HETATM   38  C   UNL     1      -7.847   9.123  70.788  1.00  0.00    -0.173 A  
HETATM   39  C   UNL     1      -9.128   8.631  71.022  1.00  0.00    -0.248 A  
HETATM   40  C   UNL     1      -9.444   8.122  72.277  1.00  0.00    -0.312 A  
HETATM   41  C   UNL     1      -8.460   8.133  73.249  1.00  0.00    -0.230 A  
HETATM   42  N   UNL     1      -7.211   8.617  73.055  1.00  0.00    -0.337 NA 
ENDBRANCH  36  37
ENDBRANCH  35  36
ENDBRANCH  34  35
ENDBRANCH  26  28
ENDBRANCH  12  26
ENDBRANCH   3   4
ENDBRANCH   2   3
TORSDOF 11
ENDMDL
MODEL       36
REMARK 921   NORMALIZED FREE ENERGY PREDICTED BY IDOCK:   -5.72 KCAL/MOL
REMARK 922        TOTAL FREE ENERGY PREDICTED BY IDOCK:  -11.16 KCAL/MOL
REMARK 923 INTER-LIGAND FREE ENERGY PREDICTED BY IDOCK:   -9.48 KCAL/MOL
REMARK 924 INTRA-LIGAND FREE ENERGY PREDICTED BY IDOCK:   -1.68 KCAL/MOL
REMARK 927      BINDING AFFINITY PREDICTED BY RF-SCORE:    0.00 PKD
ROOT
HETATM    1  C   UNL     1      -5.577   4.584  70.734  1.00  0.00    -0.015 C  
HETATM    2  C   UNL     1      -6.009   5.909  70.128  1.00  0.00    -0.025 C  
ENDROOT
BRANCH   2   3
HETATM    3  O   UNL     1      -6.904   5.637  69.060  1.00  0.00    -0.057 OA 
BRANCH   3   4
HETATM    4  C   UNL     1      -7.601   6.649  68.461  1.00  0.00    -0.097 A  
HETATM    5  C   UNL     1      -8.637   7.446  68.948  1.00  0.00    -0.129 A  
HETATM    6  C   UNL     1      -9.221  10.524  63.482  1.00  0.00    -0.274 C  
HETATM    7  C   UNL     1      -9.262   8.381  68.095  1.00  0.00    -0.141 A  
HETATM    8  C   UNL     1      -7.775   8.784  64.224  1.00  0.00    -0.125 A  
HETATM    9  C   UNL     1      -7.188   6.848  67.140  1.00  0.00    -0.085 A  
HETATM   10  C   UNL     1      -8.831   8.590  66.750  1.00  0.00    -0.158 A  
HETATM   11  N   UNL     1      -7.241   7.878  65.072  1.00  0.00    -0.060 NA 
HETATM   12  C   UNL     1      -9.392   9.549  65.818  1.00  0.00    -0.233 A  
HETATM   13  C   UNL     1      -7.760   7.786  66.293  1.00  0.00    -0.089 A  
HETATM   14  N   UNL     1      -9.473  11.195  62.569  1.00  0.00    -0.265 NA 
HETATM   15  C   UNL     1      -8.834   9.625  64.526  1.00  0.00    -0.257 A  
BRANCH   5  16
HETATM   16  N   UNL     1      -9.090   7.370  70.278  1.00  0.00    -0.151 N  
HETATM   17  C   UNL     1      -8.691   8.311  71.207  1.00  0.00    -0.152 C  
HETATM   18  H   UNL     1      -9.716   6.616  70.558  1.00  0.00     0.000 HD 
HETATM   19  O   UNL     1      -7.896   9.219  70.987  1.00  0.00    -0.240 OA 
BRANCH  17  20
HETATM   20  C   UNL     1      -9.325   8.126  72.540  1.00  0.00    -0.329 C  
HETATM   21  C   UNL     1      -9.599   6.879  72.961  1.00  0.00    -0.178 C  
BRANCH  21  22
HETATM   22  C   UNL     1     -10.174   6.461  74.283  1.00  0.00    -0.344 C  
BRANCH  22  23
HETATM   23  N   UNL     1     -10.269   5.017  74.540  1.00  0.00    -0.254 NA 
HETATM   24  C   UNL     1     -11.191   4.370  73.598  1.00  0.00    -0.251 C  
HETATM   25  C   UNL     1      -8.935   4.419  74.377  1.00  0.00    -0.103 C  
ENDBRANCH  22  23
ENDBRANCH  21  22
ENDBRANCH  17  20
ENDBRANCH   5  16
BRANCH  12  26
HETATM   26  N   UNL     1     -10.491  10.355  66.273  1.00  0.00    -0.197 NA 
HETATM   27  H   UNL     1     -11.395  10.077  65.891  1.00  0.00     0.000 HD 
BRANCH  26  28
HETATM   28  C   UNL     1     -10.551  11.460  67.150  1.00  0.00    -0.243 A  
HETATM   29 CL   UNL     1      -7.890  13.990  68.755  1.00  0.00    -0.126 Cl 
HETATM   30  C   UNL     1     -11.761  12.002  67.594  1.00  0.00    -0.365 A  
HETATM   31  C   UNL     1      -9.401  13.262  68.321  1.00  0.00    -0.205 A  
HETATM   32  C   UNL     1     -11.800  13.176  68.373  1.00  0.00    -0.386 A  
HETATM   33  C   UNL     1      -9.367  12.088  67.558  1.00  0.00    -0.179 A  
HETATM   34  C   UNL     1     -10.618  13.831  68.724  1.00  0.00    -0.239 A  
BRANCH  34  35
HETATM   35  O   UNL     1     -10.546  15.032  69.376  1.00  0.00    -0.241 OA 
BRANCH  35  36
HETATM   36  C   UNL     1     -11.696  15.878  69.398  1.00  0.00    -0.343 C  
BRANCH  36  37
HETATM   37  C   UNL     1     -12.281  15.882  70.799  1.00  0.00    -0.333 A  
HETATM   38  C   UNL     1     -13.539  15.330  71.042  1.00  0.00    -0.486 A  
HETATM   39  C   UNL     1     -14.053  15.356  72.336  1.00  0.00    -0.645 A  
HETATM   40  C   UNL     1     -13.302  15.928  73.356  1.00  0.00    -0.609 A  
HETATM   41  C   UNL     1     -12.065  16.456  73.035  1.00  0.00    -0.482 A  
HETATM   42  N   UNL     1     -11.545  16.458  71.786  1.00  0.00    -0.395 NA 
ENDBRANCH  36  37
ENDBRANCH  35  36
ENDBRANCH  34  35
ENDBRANCH  26  28
ENDBRANCH  12  26
ENDBRANCH   3   4
ENDBRANCH   2   3
TORSDOF 11
ENDMDL
MODEL       37
REMARK 921   NORMALIZED FREE ENERGY PREDICTED BY IDOCK:   -5.72 KCAL/MOL
REMARK 922        TOTAL FREE ENERGY PREDICTED BY IDOCK:  -11.15 KCAL/MOL
REMARK 923 INTER-LIGAND FREE ENERGY PREDICTED BY IDOCK:   -9.37 KCAL/MOL
REMARK 924 INTRA-LIGAND FREE ENERGY PREDICTED BY IDOCK:   -1.78 KCAL/MOL
REMARK 927      BINDING AFFINITY PREDICTED BY RF-SCORE:    0.00 PKD
ROOT
HETATM    1  C   UNL     1      -6.786   8.848  63.251  1.00  0.00    -0.090 C  
HETATM    2  C   UNL     1      -7.054   9.989  64.217  1.00  0.00    -0.130 C  
ENDROOT
BRANCH   2   3
HETATM    3  O   UNL     1      -8.400  10.408  64.045  1.00  0.00    -0.166 OA 
BRANCH   3   4
HETATM    4  C   UNL     1      -9.177  10.714  65.127  1.00  0.00    -0.207 A  
HETATM    5  C   UNL     1      -9.964   9.894  65.937  1.00  0.00    -0.277 A  
HETATM    6  C   UNL     1     -11.966  14.760  69.402  1.00  0.00    -0.303 C  
HETATM    7  C   UNL     1     -10.754  10.468  66.956  1.00  0.00    -0.310 A  
HETATM    8  C   UNL     1     -10.481  14.583  67.550  1.00  0.00    -0.253 A  
HETATM    9  C   UNL     1      -9.169  12.086  65.396  1.00  0.00     0.095 A  
HETATM   10  C   UNL     1     -10.736  11.868  67.235  1.00  0.00    -0.276 A  
HETATM   11  N   UNL     1      -9.776  13.985  66.564  1.00  0.00    -0.286 NA 
HETATM   12  C   UNL     1     -11.488  12.536  68.280  1.00  0.00    -0.308 A  
HETATM   13  C   UNL     1      -9.908  12.669  66.414  1.00  0.00    -0.259 A  
HETATM   14  N   UNL     1     -12.437  15.518  70.144  1.00  0.00    -0.370 NA 
HETATM   15  C   UNL     1     -11.343  13.931  68.417  1.00  0.00    -0.316 A  
BRANCH   5  16
HETATM   16  N   UNL     1      -9.999   8.495  65.792  1.00  0.00    -0.368 N  
HETATM   17  C   UNL     1      -9.006   7.711  66.346  1.00  0.00    -0.167 C  
HETATM   18  H   UNL     1     -10.761   8.058  65.276  1.00  0.00     0.000 HD 
HETATM   19  O   UNL     1      -8.019   8.141  66.933  1.00  0.00    -0.101 OA 
BRANCH  17  20
HETATM   20  C   UNL     1      -9.242   6.252  66.166  1.00  0.00    -0.143 C  
HETATM   21  C   UNL     1      -8.203   5.463  65.841  1.00  0.00    -0.119 C  
BRANCH  21  22
HETATM   22  C   UNL     1      -8.201   3.971  65.673  1.00  0.00    -0.105 C  
BRANCH  22  23
HETATM   23  N   UNL     1      -8.577   3.451  64.351  1.00  0.00    -0.093 NA 
HETATM   24  C   UNL     1     -10.036   3.348  64.216  1.00  0.00    -0.176 C  
HETATM   25  C   UNL     1      -8.075   4.371  63.319  1.00  0.00    -0.089 C  
ENDBRANCH  22  23
ENDBRANCH  21  22
ENDBRANCH  17  20
ENDBRANCH   5  16
BRANCH  12  26
HETATM   26  N   UNL     1     -12.344  11.728  69.104  1.00  0.00    -0.181 NA 
HETATM   27  H   UNL     1     -13.339  11.857  68.920  1.00  0.00     0.000 HD 
BRANCH  26  28
HETATM   28  C   UNL     1     -12.063  10.787  70.120  1.00  0.00    -0.346 A  
HETATM   29 CL   UNL     1     -14.228   8.675  72.747  1.00  0.00    -0.265 Cl 
HETATM   30  C   UNL     1     -10.777  10.284  70.341  1.00  0.00    -0.270 A  
HETATM   31  C   UNL     1     -12.876   9.259  71.835  1.00  0.00    -0.404 A  
HETATM   32  C   UNL     1     -10.540   9.260  71.281  1.00  0.00    -0.417 A  
HETATM   33  C   UNL     1     -13.105  10.286  70.910  1.00  0.00    -0.423 A  
HETATM   34  C   UNL     1     -11.594   8.721  72.020  1.00  0.00    -0.366 A  
BRANCH  34  35
HETATM   35  O   UNL     1     -11.496   7.654  72.871  1.00  0.00    -0.354 OA 
BRANCH  35  36
HETATM   36  C   UNL     1     -11.982   6.381  72.443  1.00  0.00    -0.170 C  
BRANCH  36  37
HETATM   37  C   UNL     1     -10.978   5.764  71.487  1.00  0.00    -0.239 A  
HETATM   38  C   UNL     1      -9.845   5.112  71.975  1.00  0.00    -0.221 A  
HETATM   39  C   UNL     1      -8.938   4.561  71.072  1.00  0.00    -0.165 A  
HETATM   40  C   UNL     1      -9.181   4.672  69.709  1.00  0.00    -0.185 A  
HETATM   41  C   UNL     1     -10.326   5.335  69.304  1.00  0.00    -0.215 A  
HETATM   42  N   UNL     1     -11.217   5.891  70.156  1.00  0.00    -0.332 NA 
ENDBRANCH  36  37
ENDBRANCH  35  36
ENDBRANCH  34  35
ENDBRANCH  26  28
ENDBRANCH  12  26
ENDBRANCH   3   4
ENDBRANCH   2   3
TORSDOF 11
ENDMDL
MODEL       38
REMARK 921   NORMALIZED FREE ENERGY PREDICTED BY IDOCK:   -5.71 KCAL/MOL
REMARK 922        TOTAL FREE ENERGY PREDICTED BY IDOCK:  -11.15 KCAL/MOL
REMARK 923 INTER-LIGAND FREE ENERGY PREDICTED BY IDOCK:   -9.40 KCAL/MOL
REMARK 924 INTRA-LIGAND FREE ENERGY PREDICTED BY IDOCK:   -1.74 KCAL/MOL
REMARK 927      BINDING AFFINITY PREDICTED BY RF-SCORE:    0.00 PKD
ROOT
HETATM    1  C   UNL     1     -12.727  12.249  63.403  1.00  0.00    -0.461 C  
HETATM    2  C   UNL     1     -11.693  12.998  64.225  1.00  0.00    -0.389 C  
ENDROOT
BRANCH   2   3
HETATM    3  O   UNL     1     -10.412  12.470  63.914  1.00  0.00    -0.398 OA 
BRANCH   3   4
HETATM    4  C   UNL     1      -9.899  11.423  64.628  1.00  0.00    -0.259 A  
HETATM    5  C   UNL     1      -9.768  11.246  66.006  1.00  0.00    -0.220 A  
HETATM    6  C   UNL     1      -6.950   5.655  65.304  1.00  0.00    -0.060 C  
HETATM    7  C   UNL     1      -9.116  10.097  66.505  1.00  0.00    -0.166 A  
HETATM    8  C   UNL     1      -7.821   7.244  63.760  1.00  0.00    -0.109 A  
HETATM    9  C   UNL     1      -9.414  10.415  63.790  1.00  0.00    -0.353 A  
HETATM   10  C   UNL     1      -8.631   9.065  65.647  1.00  0.00    -0.187 A  
HETATM   11  N   UNL     1      -8.417   8.380  63.337  1.00  0.00    -0.055 NA 
HETATM   12  C   UNL     1      -7.981   7.841  66.074  1.00  0.00    -0.108 A  
HETATM   13  C   UNL     1      -8.803   9.261  64.256  1.00  0.00    -0.148 A  
HETATM   14  N   UNL     1      -6.427   4.621  65.376  1.00  0.00    -0.035 NA 
HETATM   15  C   UNL     1      -7.571   6.925  65.085  1.00  0.00    -0.102 A  
BRANCH   5  16
HETATM   16  N   UNL     1     -10.274  12.168  66.940  1.00  0.00    -0.208 N  
HETATM   17  C   UNL     1      -9.487  13.209  67.391  1.00  0.00    -0.214 C  
HETATM   18  H   UNL     1     -11.228  12.067  67.286  1.00  0.00     0.000 HD 
HETATM   19  O   UNL     1      -8.314  13.384  67.083  1.00  0.00    -0.187 OA 
BRANCH  17  20
HETATM   20  C   UNL     1     -10.206  14.132  68.312  1.00  0.00    -0.243 C  
HETATM   21  C   UNL     1     -10.024  15.456  68.176  1.00  0.00    -0.221 C  
BRANCH  21  22
HETATM   22  C   UNL     1     -10.689  16.559  68.948  1.00  0.00    -0.337 C  
BRANCH  22  23
HETATM   23  N   UNL     1     -10.153  17.915  68.765  1.00  0.00    -0.382 NA 
HETATM   24  C   UNL     1      -8.698  17.888  68.561  1.00  0.00    -0.292 C  
HETATM   25  C   UNL     1     -10.781  18.517  67.579  1.00  0.00    -0.377 C  
ENDBRANCH  22  23
ENDBRANCH  21  22
ENDBRANCH  17  20
ENDBRANCH   5  16
BRANCH  12  26
HETATM   26  N   UNL     1      -7.788   7.647  67.485  1.00  0.00    -0.117 NA 
HETATM   27  H   UNL     1      -6.810   7.633  67.772  1.00  0.00     0.000 HD 
BRANCH  26  28
HETATM   28  C   UNL     1      -8.703   7.473  68.547  1.00  0.00    -0.128 A  
HETATM   29 CL   UNL     1      -8.948   8.715  72.349  1.00  0.00    -0.277 Cl 
HETATM   30  C   UNL     1      -9.925   6.813  68.384  1.00  0.00    -0.153 A  
HETATM   31  C   UNL     1      -9.366   7.980  70.837  1.00  0.00    -0.153 A  
HETATM   32  C   UNL     1     -10.874   6.754  69.426  1.00  0.00    -0.312 A  
HETATM   33  C   UNL     1      -8.422   8.024  69.803  1.00  0.00    -0.127 A  
HETATM   34  C   UNL     1     -10.611   7.359  70.656  1.00  0.00    -0.223 A  
BRANCH  34  35
HETATM   35  O   UNL     1     -11.501   7.461  71.691  1.00  0.00    -0.251 OA 
BRANCH  35  36
HETATM   36  C   UNL     1     -12.818   7.945  71.426  1.00  0.00    -0.280 C  
BRANCH  36  37
HETATM   37  C   UNL     1     -12.778   9.459  71.326  1.00  0.00    -0.314 A  
HETATM   38  C   UNL     1     -11.982  10.083  70.365  1.00  0.00    -0.318 A  
HETATM   39  C   UNL     1     -11.960  11.475  70.303  1.00  0.00    -0.455 A  
HETATM   40  C   UNL     1     -12.730  12.210  71.196  1.00  0.00    -0.351 A  
HETATM   41  C   UNL     1     -13.490  11.517  72.121  1.00  0.00    -0.114 A  
HETATM   42  N   UNL     1     -13.522  10.168  72.215  1.00  0.00    -0.318 NA 
ENDBRANCH  36  37
ENDBRANCH  35  36
ENDBRANCH  34  35
ENDBRANCH  26  28
ENDBRANCH  12  26
ENDBRANCH   3   4
ENDBRANCH   2   3
TORSDOF 11
ENDMDL
MODEL       39
REMARK 921   NORMALIZED FREE ENERGY PREDICTED BY IDOCK:   -5.68 KCAL/MOL
REMARK 922        TOTAL FREE ENERGY PREDICTED BY IDOCK:  -11.10 KCAL/MOL
REMARK 923 INTER-LIGAND FREE ENERGY PREDICTED BY IDOCK:   -9.17 KCAL/MOL
REMARK 924 INTRA-LIGAND FREE ENERGY PREDICTED BY IDOCK:   -1.93 KCAL/MOL
REMARK 927      BINDING AFFINITY PREDICTED BY RF-SCORE:    0.00 PKD
ROOT
HETATM    1  C   UNL     1      -6.002  10.053  63.372  1.00  0.00    -0.127 C  
HETATM    2  C   UNL     1      -6.894   9.354  64.384  1.00  0.00    -0.091 C  
ENDROOT
BRANCH   2   3
HETATM    3  O   UNL     1      -8.233   9.766  64.153  1.00  0.00    -0.137 OA 
BRANCH   3   4
HETATM    4  C   UNL     1      -9.031  10.152  65.193  1.00  0.00    -0.192 A  
HETATM    5  C   UNL     1      -9.842   9.396  66.041  1.00  0.00    -0.296 A  
HETATM    6  C   UNL     1     -11.880  14.505  69.113  1.00  0.00    -0.319 C  
HETATM    7  C   UNL     1     -10.649  10.045  67.000  1.00  0.00    -0.279 A  
HETATM    8  C   UNL     1     -10.356  14.189  67.312  1.00  0.00    -0.267 A  
HETATM    9  C   UNL     1      -9.018  11.539  65.366  1.00  0.00     0.012 A  
HETATM   10  C   UNL     1     -10.626  11.461  67.182  1.00  0.00    -0.279 A  
HETATM   11  N   UNL     1      -9.635  13.519  66.386  1.00  0.00    -0.273 NA 
HETATM   12  C   UNL     1     -11.395  12.204  68.160  1.00  0.00    -0.293 A  
HETATM   13  C   UNL     1      -9.773  12.197  66.325  1.00  0.00    -0.238 A  
HETATM   14  N   UNL     1     -12.360  15.316  69.790  1.00  0.00    -0.289 NA 
HETATM   15  C   UNL     1     -11.241  13.604  68.203  1.00  0.00    -0.303 A  
BRANCH   5  16
HETATM   16  N   UNL     1      -9.885   7.990  65.994  1.00  0.00    -0.449 N  
HETATM   17  C   UNL     1      -8.949   7.239  66.679  1.00  0.00    -0.150 C  
HETATM   18  H   UNL     1     -10.611   7.523  65.451  1.00  0.00     0.000 HD 
HETATM   19  O   UNL     1      -8.005   7.703  67.309  1.00  0.00    -0.114 OA 
BRANCH  17  20
HETATM   20  C   UNL     1      -9.190   5.774  66.584  1.00  0.00    -0.143 C  
HETATM   21  C   UNL     1      -9.211   5.046  67.713  1.00  0.00    -0.131 C  
BRANCH  21  22
HETATM   22  C   UNL     1      -9.494   3.578  67.855  1.00  0.00    -0.165 C  
BRANCH  22  23
HETATM   23  N   UNL     1      -8.988   2.918  69.066  1.00  0.00    -0.107 NA 
HETATM   24  C   UNL     1      -7.552   2.633  68.955  1.00  0.00    -0.047 C  
HETATM   25  C   UNL     1      -9.201   3.809  70.217  1.00  0.00    -0.149 C  
ENDBRANCH  22  23
ENDBRANCH  21  22
ENDBRANCH  17  20
ENDBRANCH   5  16
BRANCH  12  26
HETATM   26  N   UNL     1     -12.275  11.461  69.019  1.00  0.00    -0.424 NA 
HETATM   27  H   UNL     1     -13.266  11.607  68.825  1.00  0.00     0.000 HD 
BRANCH  26  28
HETATM   28  C   UNL     1     -12.022  10.567  70.083  1.00  0.00    -0.316 A  
HETATM   29 CL   UNL     1     -14.265   8.480  72.666  1.00  0.00    -0.315 Cl 
HETATM   30  C   UNL     1     -10.736  10.111  70.391  1.00  0.00    -0.329 A  
HETATM   31  C   UNL     1     -12.883   9.074  71.807  1.00  0.00    -0.374 A  
HETATM   32  C   UNL     1     -10.521   9.129  71.379  1.00  0.00    -0.414 A  
HETATM   33  C   UNL     1     -13.090  10.060  70.833  1.00  0.00    -0.381 A  
HETATM   34  C   UNL     1     -11.598   8.583  72.080  1.00  0.00    -0.377 A  
BRANCH  34  35
HETATM   35  O   UNL     1     -11.515   7.550  72.973  1.00  0.00    -0.312 OA 
BRANCH  35  36
HETATM   36  C   UNL     1     -11.259   6.233  72.485  1.00  0.00    -0.279 C  
BRANCH  36  37
HETATM   37  C   UNL     1     -10.051   5.663  73.206  1.00  0.00    -0.186 A  
HETATM   38  C   UNL     1     -10.128   4.425  73.845  1.00  0.00    -0.211 A  
HETATM   39  C   UNL     1      -9.005   3.932  74.505  1.00  0.00    -0.102 A  
HETATM   40  C   UNL     1      -7.834   4.680  74.511  1.00  0.00    -0.095 A  
HETATM   41  C   UNL     1      -7.838   5.899  73.856  1.00  0.00    -0.099 A  
HETATM   42  N   UNL     1      -8.916   6.410  73.219  1.00  0.00    -0.128 NA 
ENDBRANCH  36  37
ENDBRANCH  35  36
ENDBRANCH  34  35
ENDBRANCH  26  28
ENDBRANCH  12  26
ENDBRANCH   3   4
ENDBRANCH   2   3
TORSDOF 11
ENDMDL
MODEL       40
REMARK 921   NORMALIZED FREE ENERGY PREDICTED BY IDOCK:   -5.66 KCAL/MOL
REMARK 922        TOTAL FREE ENERGY PREDICTED BY IDOCK:  -11.05 KCAL/MOL
REMARK 923 INTER-LIGAND FREE ENERGY PREDICTED BY IDOCK:   -9.48 KCAL/MOL
REMARK 924 INTRA-LIGAND FREE ENERGY PREDICTED BY IDOCK:   -1.57 KCAL/MOL
REMARK 927      BINDING AFFINITY PREDICTED BY RF-SCORE:    0.00 PKD
ROOT
HETATM    1  C   UNL     1     -10.302   4.688  66.182  1.00  0.00    -0.310 C  
HETATM    2  C   UNL     1     -10.762   5.748  67.170  1.00  0.00    -0.275 C  
ENDROOT
BRANCH   2   3
HETATM    3  O   UNL     1      -9.650   6.572  67.485  1.00  0.00    -0.123 OA 
BRANCH   3   4
HETATM    4  C   UNL     1      -9.790   7.929  67.561  1.00  0.00    -0.170 A  
HETATM    5  C   UNL     1      -9.780   8.780  68.667  1.00  0.00    -0.162 A  
HETATM    6  C   UNL     1     -10.870  13.871  65.119  1.00  0.00    -0.358 C  
HETATM    7  C   UNL     1     -10.035  10.158  68.493  1.00  0.00    -0.177 A  
HETATM    8  C   UNL     1     -10.598  11.561  64.611  1.00  0.00    -0.311 A  
HETATM    9  C   UNL     1     -10.008   8.497  66.301  1.00  0.00    -0.251 A  
HETATM   10  C   UNL     1     -10.246  10.736  67.205  1.00  0.00    -0.255 A  
HETATM   11  N   UNL     1     -10.389  10.246  64.841  1.00  0.00    -0.200 NA 
HETATM   12  C   UNL     1     -10.482  12.140  66.933  1.00  0.00    -0.225 A  
HETATM   13  C   UNL     1     -10.223   9.852  66.100  1.00  0.00    -0.207 A  
HETATM   14  N   UNL     1     -11.062  14.910  64.639  1.00  0.00    -0.355 NA 
HETATM   15  C   UNL     1     -10.664  12.537  65.593  1.00  0.00    -0.297 A  
BRANCH   5  16
HETATM   16  N   UNL     1      -9.511   8.324  69.971  1.00  0.00    -0.166 N  
HETATM   17  C   UNL     1     -10.474   7.635  70.682  1.00  0.00    -0.216 C  
HETATM   18  H   UNL     1      -8.600   8.504  70.392  1.00  0.00     0.000 HD 
HETATM   19  O   UNL     1     -11.615   7.421  70.290  1.00  0.00    -0.232 OA 
BRANCH  17  20
HETATM   20  C   UNL     1      -9.995   7.160  72.009  1.00  0.00    -0.178 C  
HETATM   21  C   UNL     1      -9.233   7.979  72.755  1.00  0.00    -0.318 C  
BRANCH  21  22
HETATM   22  C   UNL     1      -8.698   7.731  74.136  1.00  0.00    -0.238 C  
BRANCH  22  23
HETATM   23  N   UNL     1      -7.237   7.690  74.284  1.00  0.00    -0.116 NA 
HETATM   24  C   UNL     1      -6.751   6.307  74.373  1.00  0.00    -0.082 C  
HETATM   25  C   UNL     1      -6.623   8.328  73.110  1.00  0.00    -0.104 C  
ENDBRANCH  22  23
ENDBRANCH  21  22
ENDBRANCH  17  20
ENDBRANCH   5  16
BRANCH  12  26
HETATM   26  N   UNL     1     -10.524  13.038  68.054  1.00  0.00    -0.222 NA 
HETATM   27  H   UNL     1     -11.310  12.878  68.684  1.00  0.00     0.000 HD 
BRANCH  26  28
HETATM   28  C   UNL     1      -9.678  14.099  68.445  1.00  0.00    -0.226 A  
HETATM   29 CL   UNL     1      -5.773  14.928  68.093  1.00  0.00    -0.128 Cl 
HETATM   30  C   UNL     1     -10.166  15.274  69.026  1.00  0.00    -0.239 A  
HETATM   31  C   UNL     1      -7.458  15.105  68.457  1.00  0.00    -0.121 A  
HETATM   32  C   UNL     1      -9.319  16.367  69.300  1.00  0.00    -0.175 A  
HETATM   33  C   UNL     1      -8.302  14.017  68.199  1.00  0.00    -0.164 A  
HETATM   34  C   UNL     1      -7.959  16.300  68.995  1.00  0.00    -0.238 A  
BRANCH  34  35
HETATM   35  O   UNL     1      -7.072  17.336  69.112  1.00  0.00    -0.244 OA 
BRANCH  35  36
HETATM   36  C   UNL     1      -6.802  18.148  67.969  1.00  0.00    -0.208 C  
BRANCH  36  37
HETATM   37  C   UNL     1      -8.094  18.796  67.505  1.00  0.00    -0.256 A  
HETATM   38  C   UNL     1      -8.807  19.640  68.357  1.00  0.00    -0.362 A  
HETATM   39  C   UNL     1      -9.994  20.214  67.905  1.00  0.00    -0.537 A  
HETATM   40  C   UNL     1     -10.439  19.936  66.619  1.00  0.00    -0.580 A  
HETATM   41  C   UNL     1      -9.677  19.087  65.836  1.00  0.00    -0.030 A  
HETATM   42  N   UNL     1      -8.529  18.505  66.251  1.00  0.00    -0.429 NA 
ENDBRANCH  36  37
ENDBRANCH  35  36
ENDBRANCH  34  35
ENDBRANCH  26  28
ENDBRANCH  12  26
ENDBRANCH   3   4
ENDBRANCH   2   3
TORSDOF 11
ENDMDL
MODEL       41
REMARK 921   NORMALIZED FREE ENERGY PREDICTED BY IDOCK:   -5.63 KCAL/MOL
REMARK 922        TOTAL FREE ENERGY PREDICTED BY IDOCK:  -11.01 KCAL/MOL
REMARK 923 INTER-LIGAND FREE ENERGY PREDICTED BY IDOCK:   -9.25 KCAL/MOL
REMARK 924 INTRA-LIGAND FREE ENERGY PREDICTED BY IDOCK:   -1.77 KCAL/MOL
REMARK 927      BINDING AFFINITY PREDICTED BY RF-SCORE:    0.00 PKD
ROOT
HETATM    1  C   UNL     1     -11.722  15.998  69.439  1.00  0.00    -0.287 C  
HETATM    2  C   UNL     1     -12.086  14.984  70.511  1.00  0.00    -0.326 C  
ENDROOT
BRANCH   2   3
HETATM    3  O   UNL     1     -12.640  13.843  69.871  1.00  0.00    -0.281 OA 
BRANCH   3   4
HETATM    4  C   UNL     1     -12.054  12.616  70.008  1.00  0.00    -0.269 A  
HETATM    5  C   UNL     1     -10.912  12.085  69.407  1.00  0.00    -0.066 A  
HETATM    6  C   UNL     1     -11.645   6.520  72.267  1.00  0.00    -0.292 C  
HETATM    7  C   UNL     1     -10.553  10.742  69.649  1.00  0.00    -0.222 A  
HETATM    8  C   UNL     1     -12.879   8.555  72.326  1.00  0.00    -0.355 A  
HETATM    9  C   UNL     1     -12.778  11.793  70.877  1.00  0.00    -0.328 A  
HETATM   10  C   UNL     1     -11.288   9.907  70.544  1.00  0.00    -0.399 A  
HETATM   11  N   UNL     1     -13.198   9.834  72.027  1.00  0.00    -0.444 NA 
HETATM   12  C   UNL     1     -10.973   8.531  70.875  1.00  0.00    -0.251 A  
HETATM   13  C   UNL     1     -12.426  10.483  71.160  1.00  0.00    -0.412 A  
HETATM   14  N   UNL     1     -11.611   5.443  72.698  1.00  0.00    -0.259 NA 
HETATM   15  C   UNL     1     -11.808   7.859  71.789  1.00  0.00    -0.333 A  
BRANCH   5  16
HETATM   16  N   UNL     1     -10.078  12.844  68.564  1.00  0.00    -0.329 N  
HETATM   17  C   UNL     1     -10.406  13.023  67.235  1.00  0.00    -0.238 C  
HETATM   18  H   UNL     1      -9.227  13.262  68.938  1.00  0.00     0.000 HD 
HETATM   19  O   UNL     1     -11.372  12.515  66.677  1.00  0.00    -0.296 OA 
BRANCH  17  20
HETATM   20  C   UNL     1      -9.458  13.914  66.512  1.00  0.00    -0.288 C  
HETATM   21  C   UNL     1      -9.557  15.243  66.684  1.00  0.00    -0.276 C  
BRANCH  21  22
HETATM   22  C   UNL     1      -8.675  16.313  66.108  1.00  0.00    -0.318 C  
BRANCH  22  23
HETATM   23  N   UNL     1      -9.124  17.703  66.269  1.00  0.00    -0.442 NA 
HETATM   24  C   UNL     1     -10.590  17.788  66.291  1.00  0.00    -0.220 C  
HETATM   25  C   UNL     1      -8.606  18.224  67.542  1.00  0.00    -0.250 C  
ENDBRANCH  22  23
ENDBRANCH  21  22
ENDBRANCH  17  20
ENDBRANCH   5  16
BRANCH  12  26
HETATM   26  N   UNL     1      -9.830   7.939  70.238  1.00  0.00    -0.184 NA 
HETATM   27  H   UNL     1      -9.110   7.623  70.888  1.00  0.00     0.000 HD 
BRANCH  26  28
HETATM   28  C   UNL     1      -9.518   7.713  68.878  1.00  0.00    -0.149 A  
HETATM   29 CL   UNL     1      -6.366   8.415  66.507  1.00  0.00    -0.054 Cl 
HETATM   30  C   UNL     1     -10.362   6.997  68.024  1.00  0.00    -0.234 A  
HETATM   31  C   UNL     1      -7.906   7.843  67.055  1.00  0.00    -0.108 A  
HETATM   32  C   UNL     1      -9.978   6.681  66.704  1.00  0.00    -0.203 A  
HETATM   33  C   UNL     1      -8.298   8.165  68.361  1.00  0.00    -0.126 A  
HETATM   34  C   UNL     1      -8.734   7.082  66.216  1.00  0.00    -0.146 A  
BRANCH  34  35
HETATM   35  O   UNL     1      -8.216   6.735  64.997  1.00  0.00    -0.131 OA 
BRANCH  35  36
HETATM   36  C   UNL     1      -7.453   5.533  64.887  1.00  0.00    -0.074 C  
BRANCH  36  37
HETATM   37  C   UNL     1      -8.382   4.388  64.527  1.00  0.00    -0.111 A  
HETATM   38  C   UNL     1      -9.126   4.427  63.347  1.00  0.00    -0.133 A  
HETATM   39  C   UNL     1      -9.976   3.365  63.047  1.00  0.00    -0.129 A  
HETATM   40  C   UNL     1     -10.063   2.292  63.925  1.00  0.00    -0.104 A  
HETATM   41  C   UNL     1      -9.294   2.329  65.075  1.00  0.00    -0.077 A  
HETATM   42  N   UNL     1      -8.471   3.351  65.400  1.00  0.00    -0.102 NA 
ENDBRANCH  36  37
ENDBRANCH  35  36
ENDBRANCH  34  35
ENDBRANCH  26  28
ENDBRANCH  12  26
ENDBRANCH   3   4
ENDBRANCH   2   3
TORSDOF 11
ENDMDL
MODEL       42
REMARK 921   NORMALIZED FREE ENERGY PREDICTED BY IDOCK:   -5.55 KCAL/MOL
REMARK 922        TOTAL FREE ENERGY PREDICTED BY IDOCK:  -10.88 KCAL/MOL
REMARK 923 INTER-LIGAND FREE ENERGY PREDICTED BY IDOCK:   -9.74 KCAL/MOL
REMARK 924 INTRA-LIGAND FREE ENERGY PREDICTED BY IDOCK:   -1.14 KCAL/MOL
REMARK 927      BINDING AFFINITY PREDICTED BY RF-SCORE:    0.00 PKD
ROOT
HETATM    1  C   UNL     1     -10.121  15.977  65.736  1.00  0.00    -0.393 C  
HETATM    2  C   UNL     1     -11.078  15.654  64.601  1.00  0.00    -0.373 C  
ENDROOT
BRANCH   2   3
HETATM    3  O   UNL     1     -11.897  14.568  65.008  1.00  0.00    -0.372 OA 
BRANCH   3   4
HETATM    4  C   UNL     1     -11.381  13.306  65.106  1.00  0.00    -0.297 A  
HETATM    5  C   UNL     1     -11.451  12.378  66.145  1.00  0.00    -0.379 A  
HETATM    6  C   UNL     1      -7.896   8.206  63.038  1.00  0.00    -0.148 C  
HETATM    7  C   UNL     1     -10.752  11.156  66.041  1.00  0.00    -0.272 A  
HETATM    8  C   UNL     1      -8.697  10.382  62.501  1.00  0.00    -0.231 A  
HETATM    9  C   UNL     1     -10.648  12.959  63.967  1.00  0.00    -0.418 A  
HETATM   10  C   UNL     1     -10.014  10.799  64.872  1.00  0.00    -0.374 A  
HETATM   11  N   UNL     1      -9.351  11.552  62.671  1.00  0.00    -0.283 NA 
HETATM   12  C   UNL     1      -9.296   9.556  64.667  1.00  0.00    -0.134 A  
HETATM   13  C   UNL     1      -9.984  11.750  63.824  1.00  0.00    -0.355 A  
HETATM   14  N   UNL     1      -7.269   7.320  62.627  1.00  0.00    -0.075 NA 
HETATM   15  C   UNL     1      -8.624   9.369  63.443  1.00  0.00    -0.218 A  
BRANCH   5  16
HETATM   16  N   UNL     1     -12.209  12.600  67.310  1.00  0.00    -0.087 N  
HETATM   17  C   UNL     1     -11.677  13.317  68.363  1.00  0.00    -0.354 C  
HETATM   18  H   UNL     1     -13.156  12.229  67.376  1.00  0.00     0.000 HD 
HETATM   19  O   UNL     1     -10.532  13.753  68.406  1.00  0.00    -0.240 OA 
BRANCH  17  20
HETATM   20  C   UNL     1     -12.641  13.524  69.478  1.00  0.00     0.140 C  
HETATM   21  C   UNL     1     -12.455  14.561  70.313  1.00  0.00    -0.405 C  
BRANCH  21  22
HETATM   22  C   UNL     1     -13.329  14.989  71.455  1.00  0.00    -0.417 C  
BRANCH  22  23
HETATM   23  N   UNL     1     -12.790  16.018  72.355  1.00  0.00    -0.435 NA 
HETATM   24  C   UNL     1     -12.757  15.544  73.745  1.00  0.00    -0.597 C  
HETATM   25  C   UNL     1     -11.418  16.342  71.937  1.00  0.00    -0.209 C  
ENDBRANCH  22  23
ENDBRANCH  21  22
ENDBRANCH  17  20
ENDBRANCH   5  16
BRANCH  12  26
HETATM   26  N   UNL     1      -9.309   8.596  65.736  1.00  0.00    -0.388 NA 
HETATM   27  H   UNL     1      -9.493   7.639  65.433  1.00  0.00     0.000 HD 
BRANCH  26  28
HETATM   28  C   UNL     1      -9.115   8.732  67.129  1.00  0.00    -0.132 A  
HETATM   29 CL   UNL     1     -11.498   9.061  70.334  1.00  0.00    -0.243 Cl 
HETATM   30  C   UNL     1      -7.850   8.659  67.722  1.00  0.00    -0.103 A  
HETATM   31  C   UNL     1     -10.071   8.895  69.365  1.00  0.00    -0.202 A  
HETATM   32  C   UNL     1      -7.692   8.679  69.122  1.00  0.00    -0.097 A  
HETATM   33  C   UNL     1     -10.222   8.888  67.972  1.00  0.00    -0.262 A  
HETATM   34  C   UNL     1      -8.806   8.773  69.959  1.00  0.00    -0.146 A  
BRANCH  34  35
HETATM   35  O   UNL     1      -8.776   8.686  71.324  1.00  0.00    -0.159 OA 
BRANCH  35  36
HETATM   36  C   UNL     1      -7.867   7.774  71.940  1.00  0.00    -0.095 C  
BRANCH  36  37
HETATM   37  C   UNL     1      -8.657   6.718  72.690  1.00  0.00    -0.122 A  
HETATM   38  C   UNL     1      -9.993   6.939  73.025  1.00  0.00    -0.212 A  
HETATM   39  C   UNL     1     -10.690   5.954  73.721  1.00  0.00    -0.219 A  
HETATM   40  C   UNL     1     -10.042   4.774  74.063  1.00  0.00    -0.226 A  
HETATM   41  C   UNL     1      -8.716   4.630  73.697  1.00  0.00    -0.106 A  
HETATM   42  N   UNL     1      -8.009   5.574  73.034  1.00  0.00    -0.104 NA 
ENDBRANCH  36  37
ENDBRANCH  35  36
ENDBRANCH  34  35
ENDBRANCH  26  28
ENDBRANCH  12  26
ENDBRANCH   3   4
ENDBRANCH   2   3
TORSDOF 11
ENDMDL
MODEL       43
REMARK 921   NORMALIZED FREE ENERGY PREDICTED BY IDOCK:   -5.55 KCAL/MOL
REMARK 922        TOTAL FREE ENERGY PREDICTED BY IDOCK:  -10.87 KCAL/MOL
REMARK 923 INTER-LIGAND FREE ENERGY PREDICTED BY IDOCK:   -9.03 KCAL/MOL
REMARK 924 INTRA-LIGAND FREE ENERGY PREDICTED BY IDOCK:   -1.84 KCAL/MOL
REMARK 927      BINDING AFFINITY PREDICTED BY RF-SCORE:    0.00 PKD
ROOT
HETATM    1  C   UNL     1     -13.422  15.416  72.769  1.00  0.00    -0.637 C  
HETATM    2  C   UNL     1     -12.295  14.751  71.997  1.00  0.00    -0.341 C  
ENDROOT
BRANCH   2   3
HETATM    3  O   UNL     1     -12.635  13.386  71.805  1.00  0.00    -0.249 OA 
BRANCH   3   4
HETATM    4  C   UNL     1     -12.320  12.748  70.638  1.00  0.00    -0.297 A  
HETATM    5  C   UNL     1     -12.013  11.409  70.393  1.00  0.00    -0.374 A  
HETATM    6  C   UNL     1     -11.019  12.465  64.262  1.00  0.00    -0.351 C  
HETATM    7  C   UNL     1     -11.632  11.004  69.095  1.00  0.00    -0.389 A  
HETATM    8  C   UNL     1     -11.661  13.871  66.073  1.00  0.00    -0.366 A  
HETATM    9  C   UNL     1     -12.282  13.636  69.559  1.00  0.00    -0.316 A  
HETATM   10  C   UNL     1     -11.604  11.911  67.993  1.00  0.00    -0.401 A  
HETATM   11  N   UNL     1     -11.980  14.210  67.341  1.00  0.00    -0.412 NA 
HETATM   12  C   UNL     1     -11.257  11.576  66.626  1.00  0.00    -0.271 A  
HETATM   13  C   UNL     1     -11.947  13.256  68.268  1.00  0.00    -0.302 A  
HETATM   14  N   UNL     1     -10.799  12.462  63.122  1.00  0.00    -0.240 NA 
HETATM   15  C   UNL     1     -11.290  12.602  65.660  1.00  0.00    -0.357 A  
BRANCH   5  16
HETATM   16  N   UNL     1     -12.079  10.421  71.393  1.00  0.00    -0.355 N  
HETATM   17  C   UNL     1     -11.178   9.374  71.401  1.00  0.00    -0.381 C  
HETATM   18  H   UNL     1     -12.796  10.478  72.115  1.00  0.00     0.000 HD 
HETATM   19  O   UNL     1     -10.319   9.183  70.547  1.00  0.00    -0.203 OA 
BRANCH  17  20
HETATM   20  C   UNL     1     -11.341   8.468  72.570  1.00  0.00    -0.357 C  
HETATM   21  C   UNL     1     -10.940   7.190  72.462  1.00  0.00    -0.309 C  
BRANCH  21  22
HETATM   22  C   UNL     1     -10.954   6.130  73.524  1.00  0.00    -0.089 C  
BRANCH  22  23
HETATM   23  N   UNL     1     -10.803   4.738  73.076  1.00  0.00    -0.236 NA 
HETATM   24  C   UNL     1     -10.272   4.675  71.708  1.00  0.00    -0.172 C  
HETATM   25  C   UNL     1      -9.865   4.049  73.975  1.00  0.00    -0.122 C  
ENDBRANCH  22  23
ENDBRANCH  21  22
ENDBRANCH  17  20
ENDBRANCH   5  16
BRANCH  12  26
HETATM   26  N   UNL     1     -10.891  10.215  66.347  1.00  0.00    -0.007 NA 
HETATM   27  H   UNL     1     -11.583   9.703  65.800  1.00  0.00     0.000 HD 
BRANCH  26  28
HETATM   28  C   UNL     1      -9.750   9.455  66.689  1.00  0.00    -0.219 A  
HETATM   29 CL   UNL     1      -5.907  10.260  67.489  1.00  0.00    -0.045 Cl 
HETATM   30  C   UNL     1      -9.812   8.081  66.946  1.00  0.00    -0.318 A  
HETATM   31  C   UNL     1      -7.392   9.388  67.303  1.00  0.00    -0.087 A  
HETATM   32  C   UNL     1      -8.686   7.366  67.401  1.00  0.00    -0.121 A  
HETATM   33  C   UNL     1      -8.512  10.091  66.838  1.00  0.00    -0.125 A  
HETATM   34  C   UNL     1      -7.469   8.020  67.607  1.00  0.00    -0.097 A  
BRANCH  34  35
HETATM   35  O   UNL     1      -6.350   7.451  68.151  1.00  0.00    -0.044 OA 
BRANCH  35  36
HETATM   36  C   UNL     1      -6.502   6.475  69.182  1.00  0.00    -0.040 C  
BRANCH  36  37
HETATM   37  C   UNL     1      -6.469   7.170  70.531  1.00  0.00    -0.047 A  
HETATM   38  C   UNL     1      -5.484   8.117  70.813  1.00  0.00    -0.029 A  
HETATM   39  C   UNL     1      -5.474   8.733  72.063  1.00  0.00    -0.052 A  
HETATM   40  C   UNL     1      -6.444   8.393  72.998  1.00  0.00    -0.109 A  
HETATM   41  C   UNL     1      -7.385   7.444  72.643  1.00  0.00    -0.076 A  
HETATM   42  N   UNL     1      -7.412   6.819  71.443  1.00  0.00    -0.086 NA 
ENDBRANCH  36  37
ENDBRANCH  35  36
ENDBRANCH  34  35
ENDBRANCH  26  28
ENDBRANCH  12  26
ENDBRANCH   3   4
ENDBRANCH   2   3
TORSDOF 11
ENDMDL
MODEL       44
REMARK 921   NORMALIZED FREE ENERGY PREDICTED BY IDOCK:   -5.52 KCAL/MOL
REMARK 922        TOTAL FREE ENERGY PREDICTED BY IDOCK:  -10.83 KCAL/MOL
REMARK 923 INTER-LIGAND FREE ENERGY PREDICTED BY IDOCK:   -8.96 KCAL/MOL
REMARK 924 INTRA-LIGAND FREE ENERGY PREDICTED BY IDOCK:   -1.88 KCAL/MOL
REMARK 927      BINDING AFFINITY PREDICTED BY RF-SCORE:    0.00 PKD
ROOT
HETATM    1  C   UNL     1      -9.798   3.625  64.441  1.00  0.00    -0.185 C  
HETATM    2  C   UNL     1      -9.395   2.608  65.495  1.00  0.00    -0.041 C  
ENDROOT
BRANCH   2   3
HETATM    3  O   UNL     1      -8.305   3.142  66.232  1.00  0.00    -0.095 OA 
BRANCH   3   4
HETATM    4  C   UNL     1      -8.520   4.047  67.233  1.00  0.00    -0.100 A  
HETATM    5  C   UNL     1      -8.366   5.434  67.247  1.00  0.00    -0.107 A  
HETATM    6  C   UNL     1     -10.019   5.841  73.313  1.00  0.00    -0.179 C  
HETATM    7  C   UNL     1      -8.571   6.149  68.447  1.00  0.00    -0.112 A  
HETATM    8  C   UNL     1      -9.819   4.014  71.799  1.00  0.00    -0.179 A  
HETATM    9  C   UNL     1      -8.923   3.422  68.417  1.00  0.00    -0.185 A  
HETATM   10  C   UNL     1      -8.994   5.509  69.651  1.00  0.00    -0.134 A  
HETATM   11  N   UNL     1      -9.570   3.376  70.634  1.00  0.00    -0.179 NA 
HETATM   12  C   UNL     1      -9.258   6.168  70.915  1.00  0.00    -0.154 A  
HETATM   13  C   UNL     1      -9.167   4.106  69.598  1.00  0.00    -0.141 A  
HETATM   14  N   UNL     1     -10.298   6.113  74.406  1.00  0.00    -0.303 NA 
HETATM   15  C   UNL     1      -9.676   5.377  72.003  1.00  0.00    -0.198 A  
BRANCH   5  16
HETATM   16  N   UNL     1      -8.023   6.170  66.098  1.00  0.00    -0.105 N  
HETATM   17  C   UNL     1      -6.725   6.162  65.625  1.00  0.00    -0.048 C  
HETATM   18  H   UNL     1      -8.736   6.713  65.611  1.00  0.00     0.000 HD 
HETATM   19  O   UNL     1      -5.785   5.593  66.169  1.00  0.00    -0.016 OA 
BRANCH  17  20
HETATM   20  C   UNL     1      -6.557   6.928  64.360  1.00  0.00    -0.042 C  
HETATM   21  C   UNL     1      -7.625   7.548  63.830  1.00  0.00    -0.114 C  
BRANCH  21  22
HETATM   22  C   UNL     1      -7.669   8.418  62.607  1.00  0.00    -0.127 C  
BRANCH  22  23
HETATM   23  N   UNL     1      -7.939   9.847  62.817  1.00  0.00    -0.126 NA 
HETATM   24  C   UNL     1      -9.319  10.187  62.446  1.00  0.00    -0.268 C  
HETATM   25  C   UNL     1      -7.746  10.161  64.241  1.00  0.00    -0.131 C  
ENDBRANCH  22  23
ENDBRANCH  21  22
ENDBRANCH  17  20
ENDBRANCH   5  16
BRANCH  12  26
HETATM   26  N   UNL     1      -9.066   7.591  70.977  1.00  0.00    -0.148 NA 
HETATM   27  H   UNL     1      -8.155   7.871  71.341  1.00  0.00     0.000 HD 
BRANCH  26  28
HETATM   28  C   UNL     1      -9.905   8.673  70.627  1.00  0.00    -0.183 A  
HETATM   29 CL   UNL     1     -13.240  10.312  72.125  1.00  0.00    -0.522 Cl 
HETATM   30  C   UNL     1      -9.598   9.554  69.585  1.00  0.00    -0.216 A  
HETATM   31  C   UNL     1     -11.842  10.062  71.132  1.00  0.00    -0.393 A  
HETATM   32  C   UNL     1     -10.387  10.694  69.330  1.00  0.00    -0.240 A  
HETATM   33  C   UNL     1     -11.063   8.924  71.374  1.00  0.00    -0.376 A  
HETATM   34  C   UNL     1     -11.505  10.971  70.118  1.00  0.00    -0.296 A  
BRANCH  34  35
HETATM   35  O   UNL     1     -12.270  12.102  70.032  1.00  0.00    -0.269 OA 
BRANCH  35  36
HETATM   36  C   UNL     1     -11.624  13.375  70.012  1.00  0.00    -0.148 C  
BRANCH  36  37
HETATM   37  C   UNL     1     -12.246  14.263  71.074  1.00  0.00    -0.356 A  
HETATM   38  C   UNL     1     -13.573  14.075  71.465  1.00  0.00    -0.382 A  
HETATM   39  C   UNL     1     -14.119  14.910  72.436  1.00  0.00    -0.554 A  
HETATM   40  C   UNL     1     -13.332  15.909  72.996  1.00  0.00    -0.663 A  
HETATM   41  C   UNL     1     -12.027  16.034  72.555  1.00  0.00    -0.545 A  
HETATM   42  N   UNL     1     -11.473  15.247  71.604  1.00  0.00    -0.396 NA 
ENDBRANCH  36  37
ENDBRANCH  35  36
ENDBRANCH  34  35
ENDBRANCH  26  28
ENDBRANCH  12  26
ENDBRANCH   3   4
ENDBRANCH   2   3
TORSDOF 11
ENDMDL
MODEL       45
REMARK 921   NORMALIZED FREE ENERGY PREDICTED BY IDOCK:   -5.48 KCAL/MOL
REMARK 922        TOTAL FREE ENERGY PREDICTED BY IDOCK:  -10.76 KCAL/MOL
REMARK 923 INTER-LIGAND FREE ENERGY PREDICTED BY IDOCK:   -9.11 KCAL/MOL
REMARK 924 INTRA-LIGAND FREE ENERGY PREDICTED BY IDOCK:   -1.65 KCAL/MOL
REMARK 927      BINDING AFFINITY PREDICTED BY RF-SCORE:    0.00 PKD
ROOT
HETATM    1  C   UNL     1     -12.325  14.676  64.276  1.00  0.00    -0.375 C  
HETATM    2  C   UNL     1     -12.397  14.112  65.685  1.00  0.00    -0.456 C  
ENDROOT
BRANCH   2   3
HETATM    3  O   UNL     1     -12.680  12.724  65.593  1.00  0.00    -0.549 OA 
BRANCH   3   4
HETATM    4  C   UNL     1     -11.669  11.805  65.621  1.00  0.00    -0.026 A  
HETATM    5  C   UNL     1     -11.104  11.112  66.692  1.00  0.00    -0.189 A  
HETATM    6  C   UNL     1      -6.902   8.232  62.986  1.00  0.00    -0.086 C  
HETATM    7  C   UNL     1      -9.995  10.267  66.474  1.00  0.00    -0.280 A  
HETATM    8  C   UNL     1      -8.649   9.792  62.560  1.00  0.00    -0.192 A  
HETATM    9  C   UNL     1     -11.131  11.591  64.348  1.00  0.00    -0.359 A  
HETATM   10  C   UNL     1      -9.455  10.042  65.171  1.00  0.00    -0.331 A  
HETATM   11  N   UNL     1      -9.683  10.618  62.833  1.00  0.00    -0.322 NA 
HETATM   12  C   UNL     1      -8.342   9.169  64.852  1.00  0.00    -0.162 A  
HETATM   13  C   UNL     1     -10.066  10.738  64.101  1.00  0.00    -0.353 A  
HETATM   14  N   UNL     1      -6.066   7.611  62.472  1.00  0.00    -0.063 NA 
HETATM   15  C   UNL     1      -7.945   9.062  63.504  1.00  0.00    -0.150 A  
BRANCH   5  16
HETATM   16  N   UNL     1     -11.605  11.207  68.004  1.00  0.00    -0.288 N  
HETATM   17  C   UNL     1     -11.267  12.280  68.805  1.00  0.00    -0.265 C  
HETATM   18  H   UNL     1     -12.221  10.479  68.365  1.00  0.00     0.000 HD 
HETATM   19  O   UNL     1     -10.490  13.173  68.487  1.00  0.00    -0.249 OA 
BRANCH  17  20
HETATM   20  C   UNL     1     -11.947  12.261  70.129  1.00  0.00    -0.377 C  
HETATM   21  C   UNL     1     -12.286  11.077  70.667  1.00  0.00    -0.480 C  
BRANCH  21  22
HETATM   22  C   UNL     1     -12.916  10.823  72.006  1.00  0.00    -0.339 C  
BRANCH  22  23
HETATM   23  N   UNL     1     -12.972   9.427  72.460  1.00  0.00    -0.344 NA 
HETATM   24  C   UNL     1     -14.013   8.676  71.745  1.00  0.00    -0.434 C  
HETATM   25  C   UNL     1     -11.672   8.791  72.197  1.00  0.00    -0.363 C  
ENDBRANCH  22  23
ENDBRANCH  21  22
ENDBRANCH  17  20
ENDBRANCH   5  16
BRANCH  12  26
HETATM   26  N   UNL     1      -7.708   8.475  65.939  1.00  0.00    -0.095 NA 
HETATM   27  H   UNL     1      -6.783   8.834  66.178  1.00  0.00     0.000 HD 
BRANCH  26  28
HETATM   28  C   UNL     1      -8.128   7.388  66.737  1.00  0.00    -0.123 A  
HETATM   29 CL   UNL     1     -10.488   4.192  66.211  1.00  0.00     0.101 Cl 
HETATM   30  C   UNL     1      -7.622   7.160  68.021  1.00  0.00    -0.111 A  
HETATM   31  C   UNL     1      -9.375   5.303  66.938  1.00  0.00    -0.127 A  
HETATM   32  C   UNL     1      -7.966   6.005  68.753  1.00  0.00    -0.104 A  
HETATM   33  C   UNL     1      -9.041   6.460  66.221  1.00  0.00    -0.167 A  
HETATM   34  C   UNL     1      -8.829   5.053  68.206  1.00  0.00    -0.102 A  
BRANCH  34  35
HETATM   35  O   UNL     1      -9.138   3.848  68.778  1.00  0.00    -0.114 OA 
BRANCH  35  36
HETATM   36  C   UNL     1      -8.440   3.442  69.955  1.00  0.00    -0.056 C  
BRANCH  36  37
HETATM   37  C   UNL     1      -9.341   3.645  71.160  1.00  0.00    -0.148 A  
HETATM   38  C   UNL     1      -9.429   2.666  72.150  1.00  0.00    -0.178 A  
HETATM   39  C   UNL     1     -10.270   2.877  73.240  1.00  0.00    -0.209 A  
HETATM   40  C   UNL     1     -11.001   4.056  73.319  1.00  0.00    -0.313 A  
HETATM   41  C   UNL     1     -10.861   4.977  72.296  1.00  0.00    -0.140 A  
HETATM   42  N   UNL     1     -10.063   4.794  71.219  1.00  0.00    -0.197 NA 
ENDBRANCH  36  37
ENDBRANCH  35  36
ENDBRANCH  34  35
ENDBRANCH  26  28
ENDBRANCH  12  26
ENDBRANCH   3   4
ENDBRANCH   2   3
TORSDOF 11
ENDMDL
MODEL       46
REMARK 921   NORMALIZED FREE ENERGY PREDICTED BY IDOCK:   -5.45 KCAL/MOL
REMARK 922        TOTAL FREE ENERGY PREDICTED BY IDOCK:  -10.71 KCAL/MOL
REMARK 923 INTER-LIGAND FREE ENERGY PREDICTED BY IDOCK:   -9.17 KCAL/MOL
REMARK 924 INTRA-LIGAND FREE ENERGY PREDICTED BY IDOCK:   -1.53 KCAL/MOL
REMARK 927      BINDING AFFINITY PREDICTED BY RF-SCORE:    0.00 PKD
ROOT
HETATM    1  C   UNL     1      -9.992   7.252  73.116  1.00  0.00    -0.295 C  
HETATM    2  C   UNL     1      -9.881   6.600  71.748  1.00  0.00    -0.161 C  
ENDROOT
BRANCH   2   3
HETATM    3  O   UNL     1     -10.991   7.018  70.968  1.00  0.00    -0.240 OA 
BRANCH   3   4
HETATM    4  C   UNL     1     -11.097   8.315  70.548  1.00  0.00    -0.249 A  
HETATM    5  C   UNL     1     -10.475   8.978  69.490  1.00  0.00    -0.219 A  
HETATM    6  C   UNL     1     -13.220  14.461  70.934  1.00  0.00    -0.288 C  
HETATM    7  C   UNL     1     -10.685  10.362  69.309  1.00  0.00    -0.270 A  
HETATM    8  C   UNL     1     -13.333  12.283  71.888  1.00  0.00    -0.329 A  
HETATM    9  C   UNL     1     -11.953   9.055  71.369  1.00  0.00    -0.400 A  
HETATM   10  C   UNL     1     -11.568  11.112  70.143  1.00  0.00    -0.410 A  
HETATM   11  N   UNL     1     -13.065  10.967  72.038  1.00  0.00    -0.458 NA 
HETATM   12  C   UNL     1     -11.866  12.525  70.010  1.00  0.00    -0.289 A  
HETATM   13  C   UNL     1     -12.205  10.406  71.191  1.00  0.00    -0.394 A  
HETATM   14  N   UNL     1     -13.628  15.543  71.040  1.00  0.00    -0.553 NA 
HETATM   15  C   UNL     1     -12.772  13.102  70.922  1.00  0.00    -0.313 A  
BRANCH   5  16
HETATM   16  N   UNL     1      -9.642   8.317  68.567  1.00  0.00    -0.147 N  
HETATM   17  C   UNL     1     -10.184   7.486  67.607  1.00  0.00    -0.213 C  
HETATM   18  H   UNL     1      -8.632   8.453  68.608  1.00  0.00     0.000 HD 
HETATM   19  O   UNL     1     -11.375   7.211  67.511  1.00  0.00    -0.049 OA 
BRANCH  17  20
HETATM   20  C   UNL     1      -9.170   6.934  66.668  1.00  0.00    -0.185 C  
HETATM   21  C   UNL     1      -8.167   7.729  66.256  1.00  0.00    -0.122 C  
BRANCH  21  22
HETATM   22  C   UNL     1      -7.013   7.365  65.368  1.00  0.00    -0.059 C  
BRANCH  22  23
HETATM   23  N   UNL     1      -5.870   8.290  65.351  1.00  0.00    -0.044 NA 
HETATM   24  C   UNL     1      -6.280   9.632  64.918  1.00  0.00    -0.085 C  
HETATM   25  C   UNL     1      -5.317   8.384  66.710  1.00  0.00    -0.032 C  
ENDBRANCH  22  23
ENDBRANCH  21  22
ENDBRANCH  17  20
ENDBRANCH   5  16
BRANCH  12  26
HETATM   26  N   UNL     1     -11.207  13.248  68.958  1.00  0.00    -0.266 NA 
HETATM   27  H   UNL     1     -11.701  13.224  68.066  1.00  0.00     0.000 HD 
BRANCH  26  28
HETATM   28  C   UNL     1     -10.003  13.986  68.931  1.00  0.00    -0.097 A  
HETATM   29 CL   UNL     1      -6.271  13.332  67.625  1.00  0.00    -0.161 Cl 
HETATM   30  C   UNL     1      -9.933  15.324  69.331  1.00  0.00    -0.257 A  
HETATM   31  C   UNL     1      -7.660  14.138  68.276  1.00  0.00    -0.130 A  
HETATM   32  C   UNL     1      -8.749  16.075  69.185  1.00  0.00    -0.248 A  
HETATM   33  C   UNL     1      -8.835  13.392  68.436  1.00  0.00    -0.133 A  
HETATM   34  C   UNL     1      -7.607  15.494  68.632  1.00  0.00    -0.141 A  
BRANCH  34  35
HETATM   35  O   UNL     1      -6.446  16.157  68.341  1.00  0.00    -0.114 OA 
BRANCH  35  36
HETATM   36  C   UNL     1      -6.270  16.701  67.033  1.00  0.00    -0.177 C  
BRANCH  36  37
HETATM   37  C   UNL     1      -6.679  18.163  67.045  1.00  0.00    -0.184 A  
HETATM   38  C   UNL     1      -5.970  19.089  67.810  1.00  0.00    -0.205 A  
HETATM   39  C   UNL     1      -6.374  20.422  67.808  1.00  0.00    -0.292 A  
HETATM   40  C   UNL     1      -7.471  20.800  67.043  1.00  0.00    -0.328 A  
HETATM   41  C   UNL     1      -8.123  19.822  66.313  1.00  0.00    -0.338 A  
HETATM   42  N   UNL     1      -7.763  18.519  66.307  1.00  0.00    -0.301 NA 
ENDBRANCH  36  37
ENDBRANCH  35  36
ENDBRANCH  34  35
ENDBRANCH  26  28
ENDBRANCH  12  26
ENDBRANCH   3   4
ENDBRANCH   2   3
TORSDOF 11
ENDMDL
MODEL       47
REMARK 921   NORMALIZED FREE ENERGY PREDICTED BY IDOCK:   -5.41 KCAL/MOL
REMARK 922        TOTAL FREE ENERGY PREDICTED BY IDOCK:  -10.65 KCAL/MOL
REMARK 923 INTER-LIGAND FREE ENERGY PREDICTED BY IDOCK:   -9.02 KCAL/MOL
REMARK 924 INTRA-LIGAND FREE ENERGY PREDICTED BY IDOCK:   -1.63 KCAL/MOL
REMARK 927      BINDING AFFINITY PREDICTED BY RF-SCORE:    0.00 PKD
ROOT
HETATM    1  C   UNL     1     -11.932  14.383  64.930  1.00  0.00    -0.430 C  
HETATM    2  C   UNL     1     -10.831  13.345  64.793  1.00  0.00    -0.375 C  
ENDROOT
BRANCH   2   3
HETATM    3  O   UNL     1     -11.326  12.107  65.283  1.00  0.00    -0.324 OA 
BRANCH   3   4
HETATM    4  C   UNL     1     -10.566  11.335  66.117  1.00  0.00    -0.258 A  
HETATM    5  C   UNL     1     -10.248  11.502  67.465  1.00  0.00    -0.184 A  
HETATM    6  C   UNL     1      -6.639   6.339  67.546  1.00  0.00    -0.052 C  
HETATM    7  C   UNL     1      -9.361  10.601  68.092  1.00  0.00    -0.152 A  
HETATM    8  C   UNL     1      -7.936   7.392  65.850  1.00  0.00    -0.118 A  
HETATM    9  C   UNL     1     -10.020  10.236  65.447  1.00  0.00    -0.371 A  
HETATM   10  C   UNL     1      -8.813   9.473  67.409  1.00  0.00    -0.134 A  
HETATM   11  N   UNL     1      -8.757   8.307  65.291  1.00  0.00    -0.132 NA 
HETATM   12  C   UNL     1      -7.923   8.483  67.983  1.00  0.00    -0.111 A  
HETATM   13  C   UNL     1      -9.176   9.316  66.050  1.00  0.00    -0.206 A  
HETATM   14  N   UNL     1      -5.946   5.432  67.755  1.00  0.00    -0.021 NA 
HETATM   15  C   UNL     1      -7.484   7.427  67.159  1.00  0.00    -0.106 A  
BRANCH   5  16
HETATM   16  N   UNL     1     -10.790  12.538  68.249  1.00  0.00    -0.224 N  
HETATM   17  C   UNL     1     -11.889  12.305  69.051  1.00  0.00    -0.305 C  
HETATM   18  H   UNL     1     -10.368  13.466  68.224  1.00  0.00     0.000 HD 
HETATM   19  O   UNL     1     -12.504  11.246  69.107  1.00  0.00    -0.378 OA 
BRANCH  17  20
HETATM   20  C   UNL     1     -12.280  13.486  69.869  1.00  0.00    -0.356 C  
HETATM   21  C   UNL     1     -12.777  13.286  71.101  1.00  0.00    -0.404 C  
BRANCH  21  22
HETATM   22  C   UNL     1     -13.173  14.323  72.111  1.00  0.00    -0.402 C  
BRANCH  22  23
HETATM   23  N   UNL     1     -12.085  15.069  72.759  1.00  0.00    -0.342 NA 
HETATM   24  C   UNL     1     -11.807  16.326  72.051  1.00  0.00    -0.487 C  
HETATM   25  C   UNL     1     -12.483  15.387  74.139  1.00  0.00    -0.642 C  
ENDBRANCH  22  23
ENDBRANCH  21  22
ENDBRANCH  17  20
ENDBRANCH   5  16
BRANCH  12  26
HETATM   26  N   UNL     1      -7.539   8.650  69.357  1.00  0.00    -0.090 NA 
HETATM   27  H   UNL     1      -6.751   9.283  69.494  1.00  0.00     0.000 HD 
BRANCH  26  28
HETATM   28  C   UNL     1      -8.050   8.099  70.553  1.00  0.00    -0.104 A  
HETATM   29 CL   UNL     1     -11.527   8.287  72.536  1.00  0.00    -0.458 Cl 
HETATM   30  C   UNL     1      -7.341   7.162  71.312  1.00  0.00    -0.079 A  
HETATM   31  C   UNL     1      -9.919   7.819  72.093  1.00  0.00    -0.193 A  
HETATM   32  C   UNL     1      -7.917   6.538  72.437  1.00  0.00    -0.101 A  
HETATM   33  C   UNL     1      -9.337   8.447  70.984  1.00  0.00    -0.211 A  
HETATM   34  C   UNL     1      -9.223   6.844  72.823  1.00  0.00    -0.134 A  
BRANCH  34  35
HETATM   35  O   UNL     1      -9.917   6.219  73.824  1.00  0.00    -0.181 OA 
BRANCH  35  36
HETATM   36  C   UNL     1     -10.853   5.197  73.481  1.00  0.00    -0.303 C  
BRANCH  36  37
HETATM   37  C   UNL     1     -10.125   4.082  72.753  1.00  0.00    -0.159 A  
HETATM   38  C   UNL     1      -9.374   3.146  73.464  1.00  0.00    -0.109 A  
HETATM   39  C   UNL     1      -8.710   2.138  72.767  1.00  0.00    -0.066 A  
HETATM   40  C   UNL     1      -8.813   2.086  71.382  1.00  0.00    -0.116 A  
HETATM   41  C   UNL     1      -9.575   3.052  70.750  1.00  0.00    -0.133 A  
HETATM   42  N   UNL     1     -10.219   4.050  71.398  1.00  0.00    -0.070 NA 
ENDBRANCH  36  37
ENDBRANCH  35  36
ENDBRANCH  34  35
ENDBRANCH  26  28
ENDBRANCH  12  26
ENDBRANCH   3   4
ENDBRANCH   2   3
TORSDOF 11
ENDMDL
MODEL       48
REMARK 921   NORMALIZED FREE ENERGY PREDICTED BY IDOCK:   -5.36 KCAL/MOL
REMARK 922        TOTAL FREE ENERGY PREDICTED BY IDOCK:  -10.57 KCAL/MOL
REMARK 923 INTER-LIGAND FREE ENERGY PREDICTED BY IDOCK:   -9.07 KCAL/MOL
REMARK 924 INTRA-LIGAND FREE ENERGY PREDICTED BY IDOCK:   -1.50 KCAL/MOL
REMARK 927      BINDING AFFINITY PREDICTED BY RF-SCORE:    0.00 PKD
ROOT
HETATM    1  C   UNL     1     -12.942  15.567  73.202  1.00  0.00    -0.634 C  
HETATM    2  C   UNL     1     -11.913  14.639  72.579  1.00  0.00    -0.091 C  
ENDROOT
BRANCH   2   3
HETATM    3  O   UNL     1     -12.572  13.442  72.195  1.00  0.00    -0.123 OA 
BRANCH   3   4
HETATM    4  C   UNL     1     -12.378  12.909  70.951  1.00  0.00    -0.275 A  
HETATM    5  C   UNL     1     -12.199  11.584  70.552  1.00  0.00    -0.377 A  
HETATM    6  C   UNL     1     -11.461  13.207  64.509  1.00  0.00    -0.353 C  
HETATM    7  C   UNL     1     -11.925  11.292  69.198  1.00  0.00    -0.405 A  
HETATM    8  C   UNL     1     -11.881  14.457  66.490  1.00  0.00    -0.390 A  
HETATM    9  C   UNL     1     -12.324  13.901  69.967  1.00  0.00    -0.378 A  
HETATM   10  C   UNL     1     -11.883  12.306  68.194  1.00  0.00    -0.372 A  
HETATM   11  N   UNL     1     -12.099  14.683  67.804  1.00  0.00    -0.263 NA 
HETATM   12  C   UNL     1     -11.642  12.092  66.780  1.00  0.00    -0.321 A  
HETATM   13  C   UNL     1     -12.095  13.637  68.626  1.00  0.00    -0.290 A  
HETATM   14  N   UNL     1     -11.306  13.308  63.363  1.00  0.00    -0.075 NA 
HETATM   15  C   UNL     1     -11.642  13.214  65.928  1.00  0.00    -0.391 A  
BRANCH   5  16
HETATM   16  N   UNL     1     -12.292  10.504  71.448  1.00  0.00    -0.376 N  
HETATM   17  C   UNL     1     -11.384   9.465  71.387  1.00  0.00    -0.381 C  
HETATM   18  H   UNL     1     -13.035  10.487  72.147  1.00  0.00     0.000 HD 
HETATM   19  O   UNL     1     -10.494   9.361  70.550  1.00  0.00    -0.232 OA 
BRANCH  17  20
HETATM   20  C   UNL     1     -11.581   8.449  72.457  1.00  0.00    -0.426 C  
HETATM   21  C   UNL     1     -11.078   7.216  72.280  1.00  0.00    -0.289 C  
BRANCH  21  22
HETATM   22  C   UNL     1     -11.106   6.066  73.245  1.00  0.00    -0.155 C  
BRANCH  22  23
HETATM   23  N   UNL     1     -10.536   4.793  72.779  1.00  0.00    -0.204 NA 
HETATM   24  C   UNL     1     -10.067   4.898  71.391  1.00  0.00    -0.198 C  
HETATM   25  C   UNL     1      -9.393   4.444  73.635  1.00  0.00    -0.113 C  
ENDBRANCH  22  23
ENDBRANCH  21  22
ENDBRANCH  17  20
ENDBRANCH   5  16
BRANCH  12  26
HETATM   26  N   UNL     1     -11.408  10.744  66.342  1.00  0.00    -0.010 NA 
HETATM   27  H   UNL     1     -12.213  10.309  65.890  1.00  0.00     0.000 HD 
BRANCH  26  28
HETATM   28  C   UNL     1     -10.271   9.909  66.420  1.00  0.00    -0.222 A  
HETATM   29 CL   UNL     1      -9.496   6.250  67.857  1.00  0.00    -0.116 Cl 
HETATM   30  C   UNL     1      -9.054  10.241  65.816  1.00  0.00    -0.202 A  
HETATM   31  C   UNL     1      -9.289   7.770  67.052  1.00  0.00    -0.157 A  
HETATM   32  C   UNL     1      -7.968   9.342  65.806  1.00  0.00    -0.109 A  
HETATM   33  C   UNL     1     -10.360   8.673  67.072  1.00  0.00    -0.368 A  
HETATM   34  C   UNL     1      -8.085   8.086  66.405  1.00  0.00    -0.107 A  
BRANCH  34  35
HETATM   35  O   UNL     1      -7.140   7.098  66.355  1.00  0.00    -0.073 OA 
BRANCH  35  36
HETATM   36  C   UNL     1      -6.791   6.537  65.089  1.00  0.00    -0.047 C  
BRANCH  36  37
HETATM   37  C   UNL     1      -7.367   5.136  64.992  1.00  0.00    -0.068 A  
HETATM   38  C   UNL     1      -8.688   4.941  64.587  1.00  0.00    -0.152 A  
HETATM   39  C   UNL     1      -9.190   3.643  64.515  1.00  0.00    -0.141 A  
HETATM   40  C   UNL     1      -8.366   2.574  64.845  1.00  0.00    -0.089 A  
HETATM   41  C   UNL     1      -7.069   2.850  65.239  1.00  0.00    -0.054 A  
HETATM   42  N   UNL     1      -6.557   4.099  65.332  1.00  0.00    -0.043 NA 
ENDBRANCH  36  37
ENDBRANCH  35  36
ENDBRANCH  34  35
ENDBRANCH  26  28
ENDBRANCH  12  26
ENDBRANCH   3   4
ENDBRANCH   2   3
TORSDOF 11
ENDMDL
MODEL       49
REMARK 921   NORMALIZED FREE ENERGY PREDICTED BY IDOCK:   -5.32 KCAL/MOL
REMARK 922        TOTAL FREE ENERGY PREDICTED BY IDOCK:  -10.50 KCAL/MOL
REMARK 923 INTER-LIGAND FREE ENERGY PREDICTED BY IDOCK:   -8.72 KCAL/MOL
REMARK 924 INTRA-LIGAND FREE ENERGY PREDICTED BY IDOCK:   -1.78 KCAL/MOL
REMARK 927      BINDING AFFINITY PREDICTED BY RF-SCORE:    0.00 PKD
ROOT
HETATM    1  C   UNL     1     -13.199  13.342  65.427  1.00  0.00     0.199 C  
HETATM    2  C   UNL     1     -12.187  14.473  65.500  1.00  0.00    -0.282 C  
ENDROOT
BRANCH   2   3
HETATM    3  O   UNL     1     -11.078  14.128  64.683  1.00  0.00    -0.374 OA 
BRANCH   3   4
HETATM    4  C   UNL     1     -10.340  13.009  64.948  1.00  0.00    -0.324 A  
HETATM    5  C   UNL     1      -9.715  12.594  66.125  1.00  0.00    -0.251 A  
HETATM    6  C   UNL     1      -7.349   7.436  63.388  1.00  0.00    -0.087 C  
HETATM    7  C   UNL     1      -8.927  11.423  66.125  1.00  0.00    -0.207 A  
HETATM    8  C   UNL     1      -8.723   9.213  62.599  1.00  0.00    -0.199 A  
HETATM    9  C   UNL     1     -10.194  12.206  63.813  1.00  0.00    -0.449 A  
HETATM   10  C   UNL     1      -8.788  10.600  64.966  1.00  0.00    -0.212 A  
HETATM   11  N   UNL     1      -9.432  10.362  62.647  1.00  0.00    -0.312 NA 
HETATM   12  C   UNL     1      -8.028   9.369  64.886  1.00  0.00    -0.120 A  
HETATM   13  C   UNL     1      -9.456  11.032  63.796  1.00  0.00    -0.258 A  
HETATM   14  N   UNL     1      -6.836   6.446  63.066  1.00  0.00    -0.040 NA 
HETATM   15  C   UNL     1      -8.007   8.678  63.657  1.00  0.00    -0.160 A  
BRANCH   5  16
HETATM   16  N   UNL     1      -9.846  13.294  67.339  1.00  0.00    -0.223 N  
HETATM   17  C   UNL     1      -9.016  14.360  67.624  1.00  0.00    -0.192 C  
HETATM   18  H   UNL     1     -10.557  13.012  68.013  1.00  0.00     0.000 HD 
HETATM   19  O   UNL     1      -8.094  14.740  66.910  1.00  0.00    -0.182 OA 
BRANCH  17  20
HETATM   20  C   UNL     1      -9.343  15.032  68.910  1.00  0.00    -0.208 C  
HETATM   21  C   UNL     1     -10.554  15.597  69.057  1.00  0.00    -0.234 C  
BRANCH  21  22
HETATM   22  C   UNL     1     -11.113  16.267  70.279  1.00  0.00    -0.332 C  
BRANCH  22  23
HETATM   23  N   UNL     1     -11.711  15.395  71.300  1.00  0.00    -0.341 NA 
HETATM   24  C   UNL     1     -11.937  16.123  72.555  1.00  0.00    -0.561 C  
HETATM   25  C   UNL     1     -13.005  14.904  70.803  1.00  0.00    -0.365 C  
ENDBRANCH  22  23
ENDBRANCH  21  22
ENDBRANCH  17  20
ENDBRANCH   5  16
BRANCH  12  26
HETATM   26  N   UNL     1      -7.334   8.936  66.068  1.00  0.00    -0.089 NA 
HETATM   27  H   UNL     1      -6.487   9.468  66.270  1.00  0.00     0.000 HD 
BRANCH  26  28
HETATM   28  C   UNL     1      -7.607   7.911  67.001  1.00  0.00    -0.100 A  
HETATM   29 CL   UNL     1      -7.006   7.377  70.926  1.00  0.00    -0.058 Cl 
HETATM   30  C   UNL     1      -8.346   6.771  66.668  1.00  0.00    -0.118 A  
HETATM   31  C   UNL     1      -7.550   7.112  69.303  1.00  0.00    -0.102 A  
HETATM   32  C   UNL     1      -8.707   5.819  67.643  1.00  0.00    -0.107 A  
HETATM   33  C   UNL     1      -7.181   8.048  68.328  1.00  0.00    -0.093 A  
HETATM   34  C   UNL     1      -8.332   5.994  68.976  1.00  0.00    -0.111 A  
BRANCH  34  35
HETATM   35  O   UNL     1      -8.723   5.197  70.017  1.00  0.00    -0.104 OA 
BRANCH  35  36
HETATM   36  C   UNL     1     -10.117   4.972  70.230  1.00  0.00    -0.269 C  
BRANCH  36  37
HETATM   37  C   UNL     1     -10.681   6.111  71.060  1.00  0.00    -0.260 A  
HETATM   38  C   UNL     1     -11.448   7.110  70.460  1.00  0.00    -0.334 A  
HETATM   39  C   UNL     1     -11.946   8.147  71.246  1.00  0.00    -0.318 A  
HETATM   40  C   UNL     1     -11.670   8.163  72.607  1.00  0.00    -0.419 A  
HETATM   41  C   UNL     1     -10.900   7.138  73.127  1.00  0.00    -0.335 A  
HETATM   42  N   UNL     1     -10.392   6.126  72.387  1.00  0.00    -0.189 NA 
ENDBRANCH  36  37
ENDBRANCH  35  36
ENDBRANCH  34  35
ENDBRANCH  26  28
ENDBRANCH  12  26
ENDBRANCH   3   4
ENDBRANCH   2   3
TORSDOF 11
ENDMDL
MODEL       50
REMARK 921   NORMALIZED FREE ENERGY PREDICTED BY IDOCK:   -5.18 KCAL/MOL
REMARK 922        TOTAL FREE ENERGY PREDICTED BY IDOCK:  -10.27 KCAL/MOL
REMARK 923 INTER-LIGAND FREE ENERGY PREDICTED BY IDOCK:   -9.41 KCAL/MOL
REMARK 924 INTRA-LIGAND FREE ENERGY PREDICTED BY IDOCK:   -0.86 KCAL/MOL
REMARK 927      BINDING AFFINITY PREDICTED BY RF-SCORE:    0.00 PKD
ROOT
HETATM    1  C   UNL     1     -11.261   5.824  72.027  1.00  0.00    -0.307 C  
HETATM    2  C   UNL     1     -10.124   6.643  72.613  1.00  0.00    -0.174 C  
ENDROOT
BRANCH   2   3
HETATM    3  O   UNL     1     -10.352   8.008  72.296  1.00  0.00    -0.227 OA 
BRANCH   3   4
HETATM    4  C   UNL     1     -10.081   8.486  71.044  1.00  0.00    -0.205 A  
HETATM    5  C   UNL     1     -10.592   9.595  70.368  1.00  0.00    -0.295 A  
HETATM    6  C   UNL     1      -7.253   8.326  65.179  1.00  0.00    -0.079 C  
HETATM    7  C   UNL     1     -10.214   9.834  69.029  1.00  0.00    -0.214 A  
HETATM    8  C   UNL     1      -7.426   7.265  67.303  1.00  0.00    -0.099 A  
HETATM    9  C   UNL     1      -9.166   7.673  70.369  1.00  0.00    -0.156 A  
HETATM   10  C   UNL     1      -9.270   9.009  68.346  1.00  0.00    -0.137 A  
HETATM   11  N   UNL     1      -7.853   7.062  68.568  1.00  0.00    -0.120 NA 
HETATM   12  C   UNL     1      -8.803   9.199  66.987  1.00  0.00    -0.123 A  
HETATM   13  C   UNL     1      -8.750   7.908  69.067  1.00  0.00    -0.138 A  
HETATM   14  N   UNL     1      -6.723   8.259  64.148  1.00  0.00    -0.066 NA 
HETATM   15  C   UNL     1      -7.859   8.287  66.474  1.00  0.00    -0.093 A  
BRANCH   5  16
HETATM   16  N   UNL     1     -11.472  10.511  70.973  1.00  0.00    -0.300 N  
HETATM   17  C   UNL     1     -12.747  10.121  71.335  1.00  0.00    -0.425 C  
HETATM   18  H   UNL     1     -11.167  11.469  71.145  1.00  0.00     0.000 HD 
HETATM   19  O   UNL     1     -13.228   9.014  71.118  1.00  0.00    -0.247 OA 
BRANCH  17  20
HETATM   20  C   UNL     1     -13.512  11.190  72.031  1.00  0.00    -0.280 C  
HETATM   21  C   UNL     1     -13.229  12.475  71.756  1.00  0.00    -0.444 C  
BRANCH  21  22
HETATM   22  C   UNL     1     -13.912  13.701  72.290  1.00  0.00    -0.563 C  
BRANCH  22  23
HETATM   23  N   UNL     1     -13.065  14.690  72.970  1.00  0.00    -0.505 NA 
HETATM   24  C   UNL     1     -11.825  14.932  72.221  1.00  0.00    -0.282 C  
HETATM   25  C   UNL     1     -13.805  15.957  73.073  1.00  0.00    -0.402 C  
ENDBRANCH  22  23
ENDBRANCH  21  22
ENDBRANCH  17  20
ENDBRANCH   5  16
BRANCH  12  26
HETATM   26  N   UNL     1      -9.343  10.306  66.247  1.00  0.00    -0.162 NA 
HETATM   27  H   UNL     1      -9.833  10.035  65.394  1.00  0.00     0.000 HD 
BRANCH  26  28
HETATM   28  C   UNL     1      -9.321  11.699  66.481  1.00  0.00    -0.206 A  
HETATM   29 CL   UNL     1      -7.106  14.195  68.699  1.00  0.00    -0.103 Cl 
HETATM   30  C   UNL     1     -10.141  12.591  65.783  1.00  0.00    -0.278 A  
HETATM   31  C   UNL     1      -8.277  13.619  67.560  1.00  0.00    -0.184 A  
HETATM   32  C   UNL     1     -10.019  13.986  65.948  1.00  0.00    -0.325 A  
HETATM   33  C   UNL     1      -8.412  12.234  67.402  1.00  0.00    -0.176 A  
HETATM   34  C   UNL     1      -9.067  14.514  66.822  1.00  0.00    -0.261 A  
BRANCH  34  35
HETATM   35  O   UNL     1      -8.788  15.845  66.974  1.00  0.00    -0.191 OA 
BRANCH  35  36
HETATM   36  C   UNL     1      -7.624  16.383  66.344  1.00  0.00    -0.158 C  
BRANCH  36  37
HETATM   37  C   UNL     1      -7.724  17.897  66.332  1.00  0.00    -0.276 A  
HETATM   38  C   UNL     1      -6.700  18.668  65.779  1.00  0.00    -0.311 A  
HETATM   39  C   UNL     1      -6.816  20.057  65.790  1.00  0.00    -0.304 A  
HETATM   40  C   UNL     1      -7.946  20.642  66.347  1.00  0.00     0.017 A  
HETATM   41  C   UNL     1      -8.915  19.810  66.877  1.00  0.00    -0.339 A  
HETATM   42  N   UNL     1      -8.825  18.460  66.894  1.00  0.00    -0.271 NA 
ENDBRANCH  36  37
ENDBRANCH  35  36
ENDBRANCH  34  35
ENDBRANCH  26  28
ENDBRANCH  12  26
ENDBRANCH   3   4
ENDBRANCH   2   3
TORSDOF 11
ENDMDL
MODEL       51
REMARK 921   NORMALIZED FREE ENERGY PREDICTED BY IDOCK:   -5.18 KCAL/MOL
REMARK 922        TOTAL FREE ENERGY PREDICTED BY IDOCK:  -10.26 KCAL/MOL
REMARK 923 INTER-LIGAND FREE ENERGY PREDICTED BY IDOCK:   -8.92 KCAL/MOL
REMARK 924 INTRA-LIGAND FREE ENERGY PREDICTED BY IDOCK:   -1.34 KCAL/MOL
REMARK 927      BINDING AFFINITY PREDICTED BY RF-SCORE:    0.00 PKD
ROOT
HETATM    1  C   UNL     1      -5.927  15.663  67.787  1.00  0.00    -0.171 C  
HETATM    2  C   UNL     1      -5.133  14.462  68.270  1.00  0.00    -0.112 C  
ENDROOT
BRANCH   2   3
HETATM    3  O   UNL     1      -5.225  13.445  67.283  1.00  0.00    -0.341 OA 
BRANCH   3   4
HETATM    4  C   UNL     1      -6.058  12.376  67.462  1.00  0.00    -0.148 A  
HETATM    5  C   UNL     1      -7.431  12.252  67.244  1.00  0.00    -0.147 A  
HETATM    6  C   UNL     1      -7.510   6.303  69.315  1.00  0.00    -0.094 C  
HETATM    7  C   UNL     1      -8.089  11.052  67.591  1.00  0.00    -0.116 A  
HETATM    8  C   UNL     1      -5.777   7.915  69.062  1.00  0.00    -0.034 A  
HETATM    9  C   UNL     1      -5.375  11.270  67.978  1.00  0.00    -0.043 A  
HETATM   10  C   UNL     1      -7.388   9.921  68.108  1.00  0.00    -0.080 A  
HETATM   11  N   UNL     1      -5.206   9.099  68.750  1.00  0.00    -0.034 NA 
HETATM   12  C   UNL     1      -7.977   8.644  68.459  1.00  0.00    -0.116 A  
HETATM   13  C   UNL     1      -5.992  10.069  68.292  1.00  0.00    -0.042 A  
HETATM   14  N   UNL     1      -7.721   5.212  69.654  1.00  0.00    -0.068 NA 
HETATM   15  C   UNL     1      -7.129   7.633  68.951  1.00  0.00    -0.079 A  
BRANCH   5  16
HETATM   16  N   UNL     1      -8.203  13.280  66.673  1.00  0.00    -0.378 N  
HETATM   17  C   UNL     1      -9.128  13.966  67.437  1.00  0.00    -0.217 C  
HETATM   18  H   UNL     1      -8.079  13.521  65.690  1.00  0.00     0.000 HD 
HETATM   19  O   UNL     1      -9.393  13.715  68.607  1.00  0.00    -0.164 OA 
BRANCH  17  20
HETATM   20  C   UNL     1      -9.797  15.070  66.696  1.00  0.00    -0.266 C  
HETATM   21  C   UNL     1      -9.710  16.321  67.180  1.00  0.00    -0.240 C  
BRANCH  21  22
HETATM   22  C   UNL     1     -10.251  17.581  66.568  1.00  0.00    -0.342 C  
BRANCH  22  23
HETATM   23  N   UNL     1     -10.658  18.647  67.495  1.00  0.00    -0.423 NA 
HETATM   24  C   UNL     1      -9.755  18.720  68.651  1.00  0.00    -0.390 C  
HETATM   25  C   UNL     1     -10.615  19.934  66.784  1.00  0.00    -0.414 C  
ENDBRANCH  22  23
ENDBRANCH  21  22
ENDBRANCH  17  20
ENDBRANCH   5  16
BRANCH  12  26
HETATM   26  N   UNL     1      -9.397   8.497  68.290  1.00  0.00    -0.138 NA 
HETATM   27  H   UNL     1      -9.662   7.804  67.591  1.00  0.00     0.000 HD 
BRANCH  26  28
HETATM   28  C   UNL     1     -10.492   9.135  68.914  1.00  0.00    -0.218 A  
HETATM   29 CL   UNL     1     -12.374   8.803  72.436  1.00  0.00    -0.439 Cl 
HETATM   30  C   UNL     1     -11.140  10.238  68.349  1.00  0.00    -0.302 A  
HETATM   31  C   UNL     1     -11.922   9.393  70.871  1.00  0.00    -0.280 A  
HETATM   32  C   UNL     1     -12.153  10.931  69.042  1.00  0.00    -0.240 A  
HETATM   33  C   UNL     1     -10.925   8.699  70.172  1.00  0.00    -0.234 A  
HETATM   34  C   UNL     1     -12.536  10.528  70.323  1.00  0.00    -0.235 A  
BRANCH  34  35
HETATM   35  O   UNL     1     -13.422  11.193  71.127  1.00  0.00     0.003 OA 
BRANCH  35  36
HETATM   36  C   UNL     1     -12.942  11.813  72.320  1.00  0.00     0.128 C  
BRANCH  36  37
HETATM   37  C   UNL     1     -12.959  13.320  72.136  1.00  0.00    -0.292 A  
HETATM   38  C   UNL     1     -12.576  13.887  70.920  1.00  0.00    -0.431 A  
HETATM   39  C   UNL     1     -12.594  15.274  70.783  1.00  0.00    -0.474 A  
HETATM   40  C   UNL     1     -12.993  16.059  71.857  1.00  0.00    -0.272 A  
HETATM   41  C   UNL     1     -13.356  15.421  73.030  1.00  0.00    -0.527 A  
HETATM   42  N   UNL     1     -13.336  14.079  73.197  1.00  0.00    -0.516 NA 
ENDBRANCH  36  37
ENDBRANCH  35  36
ENDBRANCH  34  35
ENDBRANCH  26  28
ENDBRANCH  12  26
ENDBRANCH   3   4
ENDBRANCH   2   3
TORSDOF 11
ENDMDL
MODEL       52
REMARK 921   NORMALIZED FREE ENERGY PREDICTED BY IDOCK:   -5.16 KCAL/MOL
REMARK 922        TOTAL FREE ENERGY PREDICTED BY IDOCK:  -10.23 KCAL/MOL
REMARK 923 INTER-LIGAND FREE ENERGY PREDICTED BY IDOCK:   -8.70 KCAL/MOL
REMARK 924 INTRA-LIGAND FREE ENERGY PREDICTED BY IDOCK:   -1.53 KCAL/MOL
REMARK 927      BINDING AFFINITY PREDICTED BY RF-SCORE:    0.00 PKD
ROOT
HETATM    1  C   UNL     1     -13.755  15.699  72.660  1.00  0.00    -0.666 C  
HETATM    2  C   UNL     1     -14.193  14.337  72.147  1.00  0.00    -0.542 C  
ENDROOT
BRANCH   2   3
HETATM    3  O   UNL     1     -13.651  14.159  70.847  1.00  0.00    -0.214 OA 
BRANCH   3   4
HETATM    4  C   UNL     1     -12.756  13.157  70.597  1.00  0.00    -0.130 A  
HETATM    5  C   UNL     1     -11.680  13.104  69.710  1.00  0.00    -0.280 A  
HETATM    6  C   UNL     1     -10.311   7.158  71.280  1.00  0.00    -0.198 C  
HETATM    7  C   UNL     1     -10.945  11.907  69.571  1.00  0.00    -0.090 A  
HETATM    8  C   UNL     1     -11.978   8.692  72.011  1.00  0.00    -0.372 A  
HETATM    9  C   UNL     1     -13.033  12.017  71.357  1.00  0.00    -0.362 A  
HETATM   10  C   UNL     1     -11.224  10.747  70.356  1.00  0.00    -0.270 A  
HETATM   11  N   UNL     1     -12.671   9.850  72.074  1.00  0.00    -0.387 NA 
HETATM   12  C   UNL     1     -10.503   9.491  70.302  1.00  0.00    -0.268 A  
HETATM   13  C   UNL     1     -12.304  10.841  71.266  1.00  0.00    -0.365 A  
HETATM   14  N   UNL     1      -9.907   6.081  71.437  1.00  0.00    -0.171 NA 
HETATM   15  C   UNL     1     -10.913   8.451  71.159  1.00  0.00    -0.292 A  
BRANCH   5  16
HETATM   16  N   UNL     1     -11.277  14.212  68.942  1.00  0.00    -0.253 N  
HETATM   17  C   UNL     1     -10.681  15.301  69.546  1.00  0.00    -0.265 C  
HETATM   18  H   UNL     1     -11.425  14.210  67.933  1.00  0.00     0.000 HD 
HETATM   19  O   UNL     1     -10.513  15.427  70.754  1.00  0.00    -0.209 OA 
BRANCH  17  20
HETATM   20  C   UNL     1     -10.247  16.345  68.578  1.00  0.00    -0.257 C  
HETATM   21  C   UNL     1     -10.331  17.638  68.937  1.00  0.00    -0.323 C  
BRANCH  21  22
HETATM   22  C   UNL     1      -9.895  18.839  68.150  1.00  0.00    -0.352 C  
BRANCH  22  23
HETATM   23  N   UNL     1      -9.625  18.634  66.719  1.00  0.00    -0.305 NA 
HETATM   24  C   UNL     1     -10.593  19.360  65.887  1.00  0.00    -0.459 C  
HETATM   25  C   UNL     1      -8.277  19.135  66.415  1.00  0.00    -0.314 C  
ENDBRANCH  22  23
ENDBRANCH  21  22
ENDBRANCH  17  20
ENDBRANCH   5  16
BRANCH  12  26
HETATM   26  N   UNL     1      -9.417   9.387  69.366  1.00  0.00    -0.165 NA 
HETATM   27  H   UNL     1      -8.555   9.832  69.680  1.00  0.00     0.000 HD 
BRANCH  26  28
HETATM   28  C   UNL     1      -9.324   8.782  68.093  1.00  0.00    -0.140 A  
HETATM   29 CL   UNL     1      -7.581   9.706  64.604  1.00  0.00    -0.120 Cl 
HETATM   30  C   UNL     1      -9.823   7.502  67.831  1.00  0.00    -0.185 A  
HETATM   31  C   UNL     1      -8.439   8.821  65.822  1.00  0.00    -0.148 A  
HETATM   32  C   UNL     1      -9.614   6.872  66.588  1.00  0.00    -0.218 A  
HETATM   33  C   UNL     1      -8.661   9.449  67.055  1.00  0.00    -0.131 A  
HETATM   34  C   UNL     1      -8.898   7.518  65.578  1.00  0.00     0.024 A  
BRANCH  34  35
HETATM   35  O   UNL     1      -8.541   6.958  64.382  1.00  0.00     0.148 OA 
BRANCH  35  36
HETATM   36  C   UNL     1      -7.238   6.390  64.245  1.00  0.00    -0.065 C  
BRANCH  36  37
HETATM   37  C   UNL     1      -7.162   5.121  65.074  1.00  0.00    -0.066 A  
HETATM   38  C   UNL     1      -6.330   5.056  66.192  1.00  0.00    -0.039 A  
HETATM   39  C   UNL     1      -6.275   3.875  66.929  1.00  0.00    -0.032 A  
HETATM   40  C   UNL     1      -7.050   2.790  66.537  1.00  0.00    -0.053 A  
HETATM   41  C   UNL     1      -7.847   2.932  65.416  1.00  0.00    -0.081 A  
HETATM   42  N   UNL     1      -7.911   4.061  64.673  1.00  0.00    -0.085 NA 
ENDBRANCH  36  37
ENDBRANCH  35  36
ENDBRANCH  34  35
ENDBRANCH  26  28
ENDBRANCH  12  26
ENDBRANCH   3   4
ENDBRANCH   2   3
TORSDOF 11
ENDMDL
MODEL       53
REMARK 921   NORMALIZED FREE ENERGY PREDICTED BY IDOCK:   -5.16 KCAL/MOL
REMARK 922        TOTAL FREE ENERGY PREDICTED BY IDOCK:  -10.23 KCAL/MOL
REMARK 923 INTER-LIGAND FREE ENERGY PREDICTED BY IDOCK:   -9.55 KCAL/MOL
REMARK 924 INTRA-LIGAND FREE ENERGY PREDICTED BY IDOCK:   -0.68 KCAL/MOL
REMARK 927      BINDING AFFINITY PREDICTED BY RF-SCORE:    0.00 PKD
ROOT
HETATM    1  C   UNL     1     -12.864  16.314  73.955  1.00  0.00    -0.459 C  
HETATM    2  C   UNL     1     -12.512  14.836  73.958  1.00  0.00    -0.181 C  
ENDROOT
BRANCH   2   3
HETATM    3  O   UNL     1     -13.347  14.180  73.016  1.00  0.00    -0.635 OA 
BRANCH   3   4
HETATM    4  C   UNL     1     -12.908  13.944  71.743  1.00  0.00    -0.335 A  
HETATM    5  C   UNL     1     -12.654  12.742  71.082  1.00  0.00    -0.271 A  
HETATM    6  C   UNL     1     -10.724  15.694  65.862  1.00  0.00    -0.329 C  
HETATM    7  C   UNL     1     -12.116  12.761  69.777  1.00  0.00    -0.305 A  
HETATM    8  C   UNL     1     -11.531  16.466  67.964  1.00  0.00    -0.059 A  
HETATM    9  C   UNL     1     -12.660  15.135  71.054  1.00  0.00    -0.441 A  
HETATM   10  C   UNL     1     -11.873  13.978  69.072  1.00  0.00    -0.391 A  
HETATM   11  N   UNL     1     -12.007  16.388  69.226  1.00  0.00     0.052 NA 
HETATM   12  C   UNL     1     -11.355  14.089  67.722  1.00  0.00    -0.303 A  
HETATM   13  C   UNL     1     -12.167  15.180  69.759  1.00  0.00    -0.289 A  
HETATM   14  N   UNL     1     -10.343  16.052  64.825  1.00  0.00    -0.424 NA 
HETATM   15  C   UNL     1     -11.185  15.378  67.179  1.00  0.00    -0.256 A  
BRANCH   5  16
HETATM   16  N   UNL     1     -12.924  11.488  71.660  1.00  0.00    -0.437 N  
HETATM   17  C   UNL     1     -12.463  10.330  71.064  1.00  0.00    -0.384 C  
HETATM   18  H   UNL     1     -13.464  11.433  72.523  1.00  0.00     0.000 HD 
HETATM   19  O   UNL     1     -11.859  10.284  69.998  1.00  0.00    -0.256 OA 
BRANCH  17  20
HETATM   20  C   UNL     1     -12.771   9.104  71.848  1.00  0.00    -0.464 C  
HETATM   21  C   UNL     1     -11.990   8.021  71.692  1.00  0.00    -0.336 C  
BRANCH  21  22
HETATM   22  C   UNL     1     -12.080   6.711  72.421  1.00  0.00    -0.096 C  
BRANCH  22  23
HETATM   23  N   UNL     1     -10.870   5.878  72.441  1.00  0.00    -0.230 NA 
HETATM   24  C   UNL     1      -9.760   6.536  71.738  1.00  0.00    -0.158 C  
HETATM   25  C   UNL     1     -10.472   5.653  73.838  1.00  0.00    -0.277 C  
ENDBRANCH  22  23
ENDBRANCH  21  22
ENDBRANCH  17  20
ENDBRANCH   5  16
BRANCH  12  26
HETATM   26  N   UNL     1     -11.039  12.871  67.029  1.00  0.00    -0.266 NA 
HETATM   27  H   UNL     1     -11.640  12.682  66.227  1.00  0.00     0.000 HD 
BRANCH  26  28
HETATM   28  C   UNL     1     -10.049  11.888  67.251  1.00  0.00    -0.196 A  
HETATM   29 CL   UNL     1      -9.670   7.977  66.465  1.00  0.00    -0.302 Cl 
HETATM   30  C   UNL     1      -8.792  12.195  67.780  1.00  0.00    -0.172 A  
HETATM   31  C   UNL     1      -9.289   9.589  66.972  1.00  0.00    -0.148 A  
HETATM   32  C   UNL     1      -7.779  11.219  67.883  1.00  0.00    -0.110 A  
HETATM   33  C   UNL     1     -10.296  10.559  66.884  1.00  0.00    -0.293 A  
HETATM   34  C   UNL     1      -8.012   9.910  67.457  1.00  0.00    -0.106 A  
BRANCH  34  35
HETATM   35  O   UNL     1      -7.071   8.918  67.406  1.00  0.00    -0.077 OA 
BRANCH  35  36
HETATM   36  C   UNL     1      -5.832   9.173  66.744  1.00  0.00    -0.051 C  
BRANCH  36  37
HETATM   37  C   UNL     1      -6.081   9.286  65.252  1.00  0.00    -0.063 A  
HETATM   38  C   UNL     1      -5.714  10.441  64.559  1.00  0.00    -0.131 A  
HETATM   39  C   UNL     1      -5.963  10.519  63.191  1.00  0.00    -0.116 A  
HETATM   40  C   UNL     1      -6.568   9.447  62.546  1.00  0.00    -0.096 A  
HETATM   41  C   UNL     1      -6.905   8.339  63.302  1.00  0.00    -0.085 A  
HETATM   42  N   UNL     1      -6.688   8.239  64.634  1.00  0.00    -0.067 NA 
ENDBRANCH  36  37
ENDBRANCH  35  36
ENDBRANCH  34  35
ENDBRANCH  26  28
ENDBRANCH  12  26
ENDBRANCH   3   4
ENDBRANCH   2   3
TORSDOF 11
ENDMDL
MODEL       54
REMARK 921   NORMALIZED FREE ENERGY PREDICTED BY IDOCK:   -5.11 KCAL/MOL
REMARK 922        TOTAL FREE ENERGY PREDICTED BY IDOCK:  -10.16 KCAL/MOL
REMARK 923 INTER-LIGAND FREE ENERGY PREDICTED BY IDOCK:   -8.31 KCAL/MOL
REMARK 924 INTRA-LIGAND FREE ENERGY PREDICTED BY IDOCK:   -1.85 KCAL/MOL
REMARK 927      BINDING AFFINITY PREDICTED BY RF-SCORE:    0.00 PKD
ROOT
HETATM    1  C   UNL     1      -6.868  10.348  65.022  1.00  0.00    -0.065 C  
HETATM    2  C   UNL     1      -7.834   9.889  63.943  1.00  0.00    -0.148 C  
ENDROOT
BRANCH   2   3
HETATM    3  O   UNL     1      -9.117  10.418  64.244  1.00  0.00    -0.199 OA 
BRANCH   3   4
HETATM    4  C   UNL     1      -9.671  10.238  65.480  1.00  0.00    -0.265 A  
HETATM    5  C   UNL     1      -9.927   9.068  66.196  1.00  0.00    -0.241 A  
HETATM    6  C   UNL     1     -12.534  12.229  70.982  1.00  0.00    -0.263 C  
HETATM    7  C   UNL     1     -10.596   9.139  67.437  1.00  0.00    -0.315 A  
HETATM    8  C   UNL     1     -11.559  12.911  68.920  1.00  0.00    -0.315 A  
HETATM    9  C   UNL     1     -10.051  11.454  66.057  1.00  0.00    -0.275 A  
HETATM   10  C   UNL     1     -10.974  10.382  68.028  1.00  0.00    -0.347 A  
HETATM   11  N   UNL     1     -10.953  12.781  67.720  1.00  0.00    -0.229 NA 
HETATM   12  C   UNL     1     -11.632  10.549  69.309  1.00  0.00    -0.236 A  
HETATM   13  C   UNL     1     -10.676  11.553  67.291  1.00  0.00    -0.244 A  
HETATM   14  N   UNL     1     -13.037  12.630  71.948  1.00  0.00    -0.399 NA 
HETATM   15  C   UNL     1     -11.925  11.857  69.742  1.00  0.00    -0.377 A  
BRANCH   5  16
HETATM   16  N   UNL     1      -9.533   7.798  65.737  1.00  0.00    -0.405 N  
HETATM   17  C   UNL     1      -8.414   7.182  66.263  1.00  0.00    -0.138 C  
HETATM   18  H   UNL     1     -10.076   7.329  65.013  1.00  0.00     0.000 HD 
HETATM   19  O   UNL     1      -7.662   7.684  67.091  1.00  0.00    -0.107 OA 
BRANCH  17  20
HETATM   20  C   UNL     1      -8.189   5.814  65.722  1.00  0.00    -0.125 C  
HETATM   21  C   UNL     1      -8.885   5.421  64.642  1.00  0.00     0.005 C  
BRANCH  21  22
HETATM   22  C   UNL     1      -8.772   4.120  63.900  1.00  0.00    -0.119 C  
BRANCH  22  23
HETATM   23  N   UNL     1      -9.661   3.031  64.330  1.00  0.00    -0.152 NA 
HETATM   24  C   UNL     1     -10.686   2.751  63.316  1.00  0.00    -0.231 C  
HETATM   25  C   UNL     1      -8.858   1.816  64.533  1.00  0.00    -0.106 C  
ENDBRANCH  22  23
ENDBRANCH  21  22
ENDBRANCH  17  20
ENDBRANCH   5  16
BRANCH  12  26
HETATM   26  N   UNL     1     -11.952   9.361  70.052  1.00  0.00    -0.444 NA 
HETATM   27  H   UNL     1     -12.835   8.928  69.782  1.00  0.00     0.000 HD 
BRANCH  26  28
HETATM   28  C   UNL     1     -11.270   8.683  71.087  1.00  0.00    -0.272 A  
HETATM   29 CL   UNL     1     -11.564   5.090  72.836  1.00  0.00    -0.317 Cl 
HETATM   30  C   UNL     1     -10.126   9.205  71.700  1.00  0.00    -0.346 A  
HETATM   31  C   UNL     1     -10.972   6.664  72.419  1.00  0.00    -0.244 A  
HETATM   32  C   UNL     1      -9.394   8.459  72.647  1.00  0.00    -0.334 A  
HETATM   33  C   UNL     1     -11.704   7.414  71.490  1.00  0.00    -0.314 A  
HETATM   34  C   UNL     1      -9.798   7.170  72.997  1.00  0.00    -0.195 A  
BRANCH  34  35
HETATM   35  O   UNL     1      -9.103   6.320  73.814  1.00  0.00    -0.126 OA 
BRANCH  35  36
HETATM   36  C   UNL     1      -8.348   5.260  73.226  1.00  0.00    -0.111 C  
BRANCH  36  37
HETATM   37  C   UNL     1      -7.276   5.853  72.331  1.00  0.00    -0.089 A  
HETATM   38  C   UNL     1      -7.285   5.606  70.957  1.00  0.00    -0.076 A  
HETATM   39  C   UNL     1      -6.284   6.158  70.162  1.00  0.00    -0.031 A  
HETATM   40  C   UNL     1      -5.300   6.942  70.751  1.00  0.00    -0.023 A  
HETATM   41  C   UNL     1      -5.358   7.138  72.119  1.00  0.00    -0.037 A  
HETATM   42  N   UNL     1      -6.310   6.605  72.919  1.00  0.00    -0.058 NA 
ENDBRANCH  36  37
ENDBRANCH  35  36
ENDBRANCH  34  35
ENDBRANCH  26  28
ENDBRANCH  12  26
ENDBRANCH   3   4
ENDBRANCH   2   3
TORSDOF 11
ENDMDL
MODEL       55
REMARK 921   NORMALIZED FREE ENERGY PREDICTED BY IDOCK:   -5.11 KCAL/MOL
REMARK 922        TOTAL FREE ENERGY PREDICTED BY IDOCK:  -10.15 KCAL/MOL
REMARK 923 INTER-LIGAND FREE ENERGY PREDICTED BY IDOCK:   -8.70 KCAL/MOL
REMARK 924 INTRA-LIGAND FREE ENERGY PREDICTED BY IDOCK:   -1.44 KCAL/MOL
REMARK 927      BINDING AFFINITY PREDICTED BY RF-SCORE:    0.00 PKD
ROOT
HETATM    1  C   UNL     1     -10.702  18.201  68.665  1.00  0.00     0.103 C  
HETATM    2  C   UNL     1     -10.340  17.203  69.751  1.00  0.00     0.099 C  
ENDROOT
BRANCH   2   3
HETATM    3  O   UNL     1     -11.497  16.437  70.051  1.00  0.00    -0.264 OA 
BRANCH   3   4
HETATM    4  C   UNL     1     -11.487  15.077  69.909  1.00  0.00    -0.289 A  
HETATM    5  C   UNL     1     -10.827  14.269  68.982  1.00  0.00    -0.255 A  
HETATM    6  C   UNL     1     -13.334   9.003  71.364  1.00  0.00    -0.277 C  
HETATM    7  C   UNL     1     -11.047  12.875  68.987  1.00  0.00    -0.284 A  
HETATM    8  C   UNL     1     -13.527  11.303  71.943  1.00  0.00    -0.174 A  
HETATM    9  C   UNL     1     -12.314  14.454  70.849  1.00  0.00    -0.419 A  
HETATM   10  C   UNL     1     -11.883  12.240  69.955  1.00  0.00    -0.383 A  
HETATM   11  N   UNL     1     -13.311  12.635  71.867  1.00  0.00    -0.451 NA 
HETATM   12  C   UNL     1     -12.139  10.816  70.053  1.00  0.00    -0.345 A  
HETATM   13  C   UNL     1     -12.517  13.083  70.898  1.00  0.00    -0.310 A  
HETATM   14  N   UNL     1     -13.688   7.938  71.662  1.00  0.00    -0.363 NA 
HETATM   15  C   UNL     1     -12.990  10.362  71.080  1.00  0.00    -0.506 A  
BRANCH   5  16
HETATM   16  N   UNL     1      -9.926  14.785  68.033  1.00  0.00    -0.216 N  
HETATM   17  C   UNL     1     -10.370  15.161  66.781  1.00  0.00    -0.273 C  
HETATM   18  H   UNL     1      -8.939  14.882  68.271  1.00  0.00     0.000 HD 
HETATM   19  O   UNL     1     -11.521  15.030  66.377  1.00  0.00    -0.321 OA 
BRANCH  17  20
HETATM   20  C   UNL     1      -9.302  15.758  65.933  1.00  0.00    -0.356 C  
HETATM   21  C   UNL     1      -8.401  16.575  66.505  1.00  0.00    -0.327 C  
BRANCH  21  22
HETATM   22  C   UNL     1      -7.215  17.230  65.859  1.00  0.00    -0.034 C  
BRANCH  22  23
HETATM   23  N   UNL     1      -7.006  18.656  66.145  1.00  0.00    -0.238 NA 
HETATM   24  C   UNL     1      -7.371  18.979  67.531  1.00  0.00    -0.226 C  
HETATM   25  C   UNL     1      -5.584  18.976  65.948  1.00  0.00    -0.153 C  
ENDBRANCH  22  23
ENDBRANCH  21  22
ENDBRANCH  17  20
ENDBRANCH   5  16
BRANCH  12  26
HETATM   26  N   UNL     1     -11.511   9.959  69.086  1.00  0.00    -0.462 NA 
HETATM   27  H   UNL     1     -11.957   9.972  68.169  1.00  0.00     0.000 HD 
BRANCH  26  28
HETATM   28  C   UNL     1     -10.390   9.102  69.170  1.00  0.00    -0.212 A  
HETATM   29 CL   UNL     1      -7.040   8.977  71.364  1.00  0.00    -0.094 Cl 
HETATM   30  C   UNL     1     -10.305   7.905  68.452  1.00  0.00    -0.235 A  
HETATM   31  C   UNL     1      -8.280   8.523  70.243  1.00  0.00    -0.115 A  
HETATM   32  C   UNL     1      -9.233   7.009  68.641  1.00  0.00    -0.131 A  
HETATM   33  C   UNL     1      -9.341   9.416  70.042  1.00  0.00    -0.253 A  
HETATM   34  C   UNL     1      -8.221   7.300  69.558  1.00  0.00    -0.131 A  
BRANCH  34  35
HETATM   35  O   UNL     1      -7.201   6.456  69.901  1.00  0.00    -0.070 OA 
BRANCH  35  36
HETATM   36  C   UNL     1      -7.308   5.695  71.105  1.00  0.00    -0.085 C  
BRANCH  36  37
HETATM   37  C   UNL     1      -8.080   4.420  70.818  1.00  0.00    -0.071 A  
HETATM   38  C   UNL     1      -7.785   3.654  69.690  1.00  0.00    -0.051 A  
HETATM   39  C   UNL     1      -8.515   2.492  69.449  1.00  0.00    -0.100 A  
HETATM   40  C   UNL     1      -9.518   2.122  70.336  1.00  0.00    -0.164 A  
HETATM   41  C   UNL     1      -9.752   2.935  71.430  1.00  0.00    -0.151 A  
HETATM   42  N   UNL     1      -9.069   4.075  71.683  1.00  0.00    -0.117 NA 
ENDBRANCH  36  37
ENDBRANCH  35  36
ENDBRANCH  34  35
ENDBRANCH  26  28
ENDBRANCH  12  26
ENDBRANCH   3   4
ENDBRANCH   2   3
TORSDOF 11
ENDMDL
MODEL       56
REMARK 921   NORMALIZED FREE ENERGY PREDICTED BY IDOCK:   -5.10 KCAL/MOL
REMARK 922        TOTAL FREE ENERGY PREDICTED BY IDOCK:  -10.13 KCAL/MOL
REMARK 923 INTER-LIGAND FREE ENERGY PREDICTED BY IDOCK:   -8.95 KCAL/MOL
REMARK 924 INTRA-LIGAND FREE ENERGY PREDICTED BY IDOCK:   -1.18 KCAL/MOL
REMARK 927      BINDING AFFINITY PREDICTED BY RF-SCORE:    0.00 PKD
ROOT
HETATM    1  C   UNL     1     -13.391  15.391  72.974  1.00  0.00    -0.632 C  
HETATM    2  C   UNL     1     -12.294  14.702  72.180  1.00  0.00    -0.298 C  
ENDROOT
BRANCH   2   3
HETATM    3  O   UNL     1     -12.726  13.384  71.879  1.00  0.00    -0.266 OA 
BRANCH   3   4
HETATM    4  C   UNL     1     -12.390  12.795  70.692  1.00  0.00    -0.297 A  
HETATM    5  C   UNL     1     -12.097  11.464  70.393  1.00  0.00    -0.384 A  
HETATM    6  C   UNL     1     -10.920  12.785  64.346  1.00  0.00    -0.361 C  
HETATM    7  C   UNL     1     -11.687  11.113  69.088  1.00  0.00    -0.408 A  
HETATM    8  C   UNL     1     -11.589  14.116  66.203  1.00  0.00    -0.370 A  
HETATM    9  C   UNL     1     -12.308  13.731  69.657  1.00  0.00    -0.284 A  
HETATM   10  C   UNL     1     -11.615  12.069  68.030  1.00  0.00    -0.407 A  
HETATM   11  N   UNL     1     -11.937  14.402  67.477  1.00  0.00    -0.379 NA 
HETATM   12  C   UNL     1     -11.236  11.792  66.659  1.00  0.00    -0.323 A  
HETATM   13  C   UNL     1     -11.944  13.406  68.359  1.00  0.00    -0.324 A  
HETATM   14  N   UNL     1     -10.669  12.831  63.214  1.00  0.00    -0.102 NA 
HETATM   15  C   UNL     1     -11.227  12.861  65.742  1.00  0.00    -0.324 A  
BRANCH   5  16
HETATM   16  N   UNL     1     -12.206  10.432  71.343  1.00  0.00    -0.372 N  
HETATM   17  C   UNL     1     -11.224   9.466  71.441  1.00  0.00    -0.381 C  
HETATM   18  H   UNL     1     -13.014  10.398  71.964  1.00  0.00     0.000 HD 
HETATM   19  O   UNL     1     -10.246   9.385  70.705  1.00  0.00    -0.259 OA 
BRANCH  17  20
HETATM   20  C   UNL     1     -11.458   8.500  72.548  1.00  0.00    -0.368 C  
HETATM   21  C   UNL     1     -10.906   7.277  72.471  1.00  0.00    -0.312 C  
BRANCH  21  22
HETATM   22  C   UNL     1     -10.961   6.178  73.492  1.00  0.00    -0.089 C  
BRANCH  22  23
HETATM   23  N   UNL     1     -10.525   4.844  73.056  1.00  0.00    -0.185 NA 
HETATM   24  C   UNL     1     -10.111   4.855  71.647  1.00  0.00    -0.198 C  
HETATM   25  C   UNL     1      -9.379   4.428  73.879  1.00  0.00    -0.112 C  
ENDBRANCH  22  23
ENDBRANCH  21  22
ENDBRANCH  17  20
ENDBRANCH   5  16
BRANCH  12  26
HETATM   26  N   UNL     1     -10.885  10.439  66.326  1.00  0.00    -0.030 NA 
HETATM   27  H   UNL     1     -11.567   9.966  65.734  1.00  0.00     0.000 HD 
BRANCH  26  28
HETATM   28  C   UNL     1      -9.768   9.643  66.668  1.00  0.00    -0.209 A  
HETATM   29 CL   UNL     1      -8.787   5.776  66.293  1.00  0.00    -0.135 Cl 
HETATM   30  C   UNL     1      -8.589  10.186  67.187  1.00  0.00    -0.125 A  
HETATM   31  C   UNL     1      -8.666   7.469  66.640  1.00  0.00    -0.138 A  
HETATM   32  C   UNL     1      -7.447   9.390  67.409  1.00  0.00    -0.091 A  
HETATM   33  C   UNL     1      -9.802   8.263  66.433  1.00  0.00    -0.283 A  
HETATM   34  C   UNL     1      -7.469   8.026  67.114  1.00  0.00    -0.092 A  
BRANCH  34  35
HETATM   35  O   UNL     1      -6.390   7.186  67.184  1.00  0.00    -0.048 OA 
BRANCH  35  36
HETATM   36  C   UNL     1      -5.195   7.537  66.485  1.00  0.00    -0.024 C  
BRANCH  36  37
HETATM   37  C   UNL     1      -5.539   7.847  65.040  1.00  0.00    -0.037 A  
HETATM   38  C   UNL     1      -5.275   9.108  64.505  1.00  0.00    -0.050 A  
HETATM   39  C   UNL     1      -5.609   9.365  63.177  1.00  0.00    -0.080 A  
HETATM   40  C   UNL     1      -6.194   8.362  62.415  1.00  0.00    -0.088 A  
HETATM   41  C   UNL     1      -6.425   7.138  63.018  1.00  0.00    -0.052 A  
HETATM   42  N   UNL     1      -6.125   6.863  64.308  1.00  0.00    -0.035 NA 
ENDBRANCH  36  37
ENDBRANCH  35  36
ENDBRANCH  34  35
ENDBRANCH  26  28
ENDBRANCH  12  26
ENDBRANCH   3   4
ENDBRANCH   2   3
TORSDOF 11
ENDMDL
MODEL       57
REMARK 921   NORMALIZED FREE ENERGY PREDICTED BY IDOCK:   -5.07 KCAL/MOL
REMARK 922        TOTAL FREE ENERGY PREDICTED BY IDOCK:  -10.09 KCAL/MOL
REMARK 923 INTER-LIGAND FREE ENERGY PREDICTED BY IDOCK:   -8.71 KCAL/MOL
REMARK 924 INTRA-LIGAND FREE ENERGY PREDICTED BY IDOCK:   -1.39 KCAL/MOL
REMARK 927      BINDING AFFINITY PREDICTED BY RF-SCORE:    0.00 PKD
ROOT
HETATM    1  C   UNL     1      -5.797  17.610  70.060  1.00  0.00    -0.229 C  
HETATM    2  C   UNL     1      -5.997  16.426  69.130  1.00  0.00    -0.148 C  
ENDROOT
BRANCH   2   3
HETATM    3  O   UNL     1      -7.092  15.663  69.614  1.00  0.00    -0.195 OA 
BRANCH   3   4
HETATM    4  C   UNL     1      -7.796  14.846  68.774  1.00  0.00    -0.149 A  
HETATM    5  C   UNL     1      -7.792  13.456  68.650  1.00  0.00    -0.073 A  
HETATM    6  C   UNL     1     -11.901  13.585  63.876  1.00  0.00    -0.411 C  
HETATM    7  C   UNL     1      -8.554  12.841  67.633  1.00  0.00    -0.181 A  
HETATM    8  C   UNL     1     -10.908  15.284  65.215  1.00  0.00    -0.403 A  
HETATM    9  C   UNL     1      -8.605  15.578  67.900  1.00  0.00    -0.156 A  
HETATM   10  C   UNL     1      -9.388  13.591  66.749  1.00  0.00    -0.262 A  
HETATM   11  N   UNL     1     -10.129  15.821  66.180  1.00  0.00    -0.295 NA 
HETATM   12  C   UNL     1     -10.225  13.040  65.701  1.00  0.00    -0.287 A  
HETATM   13  C   UNL     1      -9.391  14.996  66.917  1.00  0.00    -0.241 A  
HETATM   14  N   UNL     1     -12.643  13.409  63.001  1.00  0.00    -0.574 NA 
HETATM   15  C   UNL     1     -10.992  13.932  64.925  1.00  0.00    -0.391 A  
BRANCH   5  16
HETATM   16  N   UNL     1      -7.061  12.620  69.515  1.00  0.00    -0.324 N  
HETATM   17  C   UNL     1      -5.929  11.969  69.066  1.00  0.00    -0.068 C  
HETATM   18  H   UNL     1      -7.369  12.495  70.478  1.00  0.00     0.000 HD 
HETATM   19  O   UNL     1      -5.511  12.006  67.914  1.00  0.00    -0.049 OA 
BRANCH  17  20
HETATM   20  C   UNL     1      -5.238  11.193  70.130  1.00  0.00    -0.062 C  
HETATM   21  C   UNL     1      -5.893  10.181  70.725  1.00  0.00    -0.094 C  
BRANCH  21  22
HETATM   22  C   UNL     1      -5.371   9.236  71.768  1.00  0.00    -0.064 C  
BRANCH  22  23
HETATM   23  N   UNL     1      -6.341   8.728  72.749  1.00  0.00    -0.229 NA 
HETATM   24  C   UNL     1      -7.536   8.190  72.086  1.00  0.00    -0.102 C  
HETATM   25  C   UNL     1      -5.710   7.650  73.525  1.00  0.00    -0.048 C  
ENDBRANCH  22  23
ENDBRANCH  21  22
ENDBRANCH  17  20
ENDBRANCH   5  16
BRANCH  12  26
HETATM   26  N   UNL     1     -10.210  11.616  65.516  1.00  0.00    -0.249 NA 
HETATM   27  H   UNL     1     -10.180  11.324  64.539  1.00  0.00     0.000 HD 
BRANCH  26  28
HETATM   28  C   UNL     1     -10.229  10.544  66.437  1.00  0.00    -0.237 A  
HETATM   29 CL   UNL     1      -8.348   7.022  66.771  1.00  0.00    -0.113 Cl 
HETATM   30  C   UNL     1     -10.953  10.594  67.632  1.00  0.00    -0.370 A  
HETATM   31  C   UNL     1      -9.353   8.383  67.145  1.00  0.00    -0.153 A  
HETATM   32  C   UNL     1     -10.864   9.564  68.590  1.00  0.00    -0.177 A  
HETATM   33  C   UNL     1      -9.456   9.403  66.190  1.00  0.00    -0.287 A  
HETATM   34  C   UNL     1     -10.042   8.458  68.365  1.00  0.00    -0.198 A  
BRANCH  34  35
HETATM   35  O   UNL     1      -9.794   7.462  69.270  1.00  0.00    -0.164 OA 
BRANCH  35  36
HETATM   36  C   UNL     1     -10.811   6.494  69.528  1.00  0.00    -0.304 C  
BRANCH  36  37
HETATM   37  C   UNL     1     -10.727   6.063  70.981  1.00  0.00    -0.265 A  
HETATM   38  C   UNL     1     -11.027   6.964  72.004  1.00  0.00    -0.266 A  
HETATM   39  C   UNL     1     -10.934   6.542  73.328  1.00  0.00    -0.224 A  
HETATM   40  C   UNL     1     -10.546   5.236  73.602  1.00  0.00    -0.322 A  
HETATM   41  C   UNL     1     -10.264   4.404  72.533  1.00  0.00    -0.181 A  
HETATM   42  N   UNL     1     -10.332   4.789  71.238  1.00  0.00    -0.159 NA 
ENDBRANCH  36  37
ENDBRANCH  35  36
ENDBRANCH  34  35
ENDBRANCH  26  28
ENDBRANCH  12  26
ENDBRANCH   3   4
ENDBRANCH   2   3
TORSDOF 11
ENDMDL
MODEL       58
REMARK 921   NORMALIZED FREE ENERGY PREDICTED BY IDOCK:   -5.03 KCAL/MOL
REMARK 922        TOTAL FREE ENERGY PREDICTED BY IDOCK:  -10.03 KCAL/MOL
REMARK 923 INTER-LIGAND FREE ENERGY PREDICTED BY IDOCK:   -8.24 KCAL/MOL
REMARK 924 INTRA-LIGAND FREE ENERGY PREDICTED BY IDOCK:   -1.79 KCAL/MOL
REMARK 927      BINDING AFFINITY PREDICTED BY RF-SCORE:    0.00 PKD
ROOT
HETATM    1  C   UNL     1     -11.947  14.461  64.455  1.00  0.00    -0.487 C  
HETATM    2  C   UNL     1     -10.878  13.432  64.126  1.00  0.00    -0.290 C  
ENDROOT
BRANCH   2   3
HETATM    3  O   UNL     1     -11.285  12.183  64.664  1.00  0.00    -0.305 OA 
BRANCH   3   4
HETATM    4  C   UNL     1     -10.407  11.412  65.373  1.00  0.00    -0.279 A  
HETATM    5  C   UNL     1      -9.889  11.578  66.658  1.00  0.00    -0.202 A  
HETATM    6  C   UNL     1      -6.299   6.422  66.186  1.00  0.00    -0.042 C  
HETATM    7  C   UNL     1      -8.916  10.678  67.143  1.00  0.00    -0.143 A  
HETATM    8  C   UNL     1      -7.839   7.474  64.707  1.00  0.00    -0.126 A  
HETATM    9  C   UNL     1      -9.965  10.315  64.627  1.00  0.00    -0.377 A  
HETATM   10  C   UNL     1      -8.475   9.552  66.383  1.00  0.00    -0.131 A  
HETATM   11  N   UNL     1      -8.737   8.388  64.279  1.00  0.00     0.076 NA 
HETATM   12  C   UNL     1      -7.507   8.563  66.814  1.00  0.00    -0.083 A  
HETATM   13  C   UNL     1      -9.038   9.395  65.094  1.00  0.00    -0.225 A  
HETATM   14  N   UNL     1      -5.581   5.516  66.287  1.00  0.00    -0.013 NA 
HETATM   15  C   UNL     1      -7.195   7.509  65.933  1.00  0.00    -0.066 A  
BRANCH   5  16
HETATM   16  N   UNL     1     -10.308  12.612  67.516  1.00  0.00    -0.216 N  
HETATM   17  C   UNL     1      -9.680  13.841  67.487  1.00  0.00    -0.230 C  
HETATM   18  H   UNL     1     -11.080  12.452  68.162  1.00  0.00     0.000 HD 
HETATM   19  O   UNL     1      -8.708  14.114  66.791  1.00  0.00    -0.208 OA 
BRANCH  17  20
HETATM   20  C   UNL     1     -10.300  14.839  68.400  1.00  0.00    -0.233 C  
HETATM   21  C   UNL     1     -10.057  16.145  68.196  1.00  0.00    -0.237 C  
BRANCH  21  22
HETATM   22  C   UNL     1     -10.623  17.313  68.950  1.00  0.00    -0.276 C  
BRANCH  22  23
HETATM   23  N   UNL     1     -10.180  18.651  68.531  1.00  0.00    -0.380 NA 
HETATM   24  C   UNL     1      -8.716  18.723  68.442  1.00  0.00    -0.337 C  
HETATM   25  C   UNL     1     -10.745  18.943  67.205  1.00  0.00    -0.449 C  
ENDBRANCH  22  23
ENDBRANCH  21  22
ENDBRANCH  17  20
ENDBRANCH   5  16
BRANCH  12  26
HETATM   26  N   UNL     1      -6.920   8.729  68.115  1.00  0.00    -0.073 NA 
HETATM   27  H   UNL     1      -6.170   9.419  68.147  1.00  0.00     0.000 HD 
BRANCH  26  28
HETATM   28  C   UNL     1      -7.190   8.113  69.358  1.00  0.00    -0.067 A  
HETATM   29 CL   UNL     1      -6.189   8.808  73.175  1.00  0.00    -0.084 Cl 
HETATM   30  C   UNL     1      -8.082   7.044  69.488  1.00  0.00    -0.130 A  
HETATM   31  C   UNL     1      -6.947   8.108  71.783  1.00  0.00    -0.076 A  
HETATM   32  C   UNL     1      -8.426   6.523  70.752  1.00  0.00    -0.134 A  
HETATM   33  C   UNL     1      -6.598   8.614  70.524  1.00  0.00    -0.039 A  
HETATM   34  C   UNL     1      -7.879   7.068  71.915  1.00  0.00    -0.094 A  
BRANCH  34  35
HETATM   35  O   UNL     1      -8.228   6.717  73.191  1.00  0.00    -0.111 OA 
BRANCH  35  36
HETATM   36  C   UNL     1      -9.243   7.465  73.860  1.00  0.00    -0.265 C  
BRANCH  36  37
HETATM   37  C   UNL     1     -10.510   7.438  73.024  1.00  0.00    -0.323 A  
HETATM   38  C   UNL     1     -10.988   8.605  72.428  1.00  0.00    -0.323 A  
HETATM   39  C   UNL     1     -12.158   8.551  71.673  1.00  0.00    -0.373 A  
HETATM   40  C   UNL     1     -12.820   7.338  71.529  1.00  0.00    -0.430 A  
HETATM   41  C   UNL     1     -12.284   6.226  72.153  1.00  0.00    -0.203 A  
HETATM   42  N   UNL     1     -11.159   6.250  72.903  1.00  0.00    -0.253 NA 
ENDBRANCH  36  37
ENDBRANCH  35  36
ENDBRANCH  34  35
ENDBRANCH  26  28
ENDBRANCH  12  26
ENDBRANCH   3   4
ENDBRANCH   2   3
TORSDOF 11
ENDMDL
MODEL       59
REMARK 921   NORMALIZED FREE ENERGY PREDICTED BY IDOCK:   -4.98 KCAL/MOL
REMARK 922        TOTAL FREE ENERGY PREDICTED BY IDOCK:   -9.94 KCAL/MOL
REMARK 923 INTER-LIGAND FREE ENERGY PREDICTED BY IDOCK:   -8.97 KCAL/MOL
REMARK 924 INTRA-LIGAND FREE ENERGY PREDICTED BY IDOCK:   -0.98 KCAL/MOL
REMARK 927      BINDING AFFINITY PREDICTED BY RF-SCORE:    0.00 PKD
ROOT
HETATM    1  C   UNL     1     -11.456  15.458  72.542  1.00  0.00    -0.441 C  
HETATM    2  C   UNL     1     -12.696  15.743  71.711  1.00  0.00    -0.456 C  
ENDROOT
BRANCH   2   3
HETATM    3  O   UNL     1     -12.469  15.255  70.397  1.00  0.00    -0.349 OA 
BRANCH   3   4
HETATM    4  C   UNL     1     -12.162  13.940  70.187  1.00  0.00    -0.358 A  
HETATM    5  C   UNL     1     -11.356  13.342  69.217  1.00  0.00    -0.253 A  
HETATM    6  C   UNL     1     -12.601   7.545  71.348  1.00  0.00    -0.351 C  
HETATM    7  C   UNL     1     -11.263  11.935  69.154  1.00  0.00    -0.314 A  
HETATM    8  C   UNL     1     -13.286   9.717  72.042  1.00  0.00    -0.457 A  
HETATM    9  C   UNL     1     -12.815  13.105  71.099  1.00  0.00    -0.349 A  
HETATM   10  C   UNL     1     -11.923  11.086  70.093  1.00  0.00    -0.443 A  
HETATM   11  N   UNL     1     -13.370  11.065  72.031  1.00  0.00    -0.403 NA 
HETATM   12  C   UNL     1     -11.857   9.638  70.122  1.00  0.00    -0.031 A  
HETATM   13  C   UNL     1     -12.711  11.723  71.081  1.00  0.00    -0.305 A  
HETATM   14  N   UNL     1     -12.707   6.416  71.594  1.00  0.00    -0.096 NA 
HETATM   15  C   UNL     1     -12.570   8.959  71.130  1.00  0.00    -0.228 A  
BRANCH   5  16
HETATM   16  N   UNL     1     -10.607  14.089  68.289  1.00  0.00    -0.242 N  
HETATM   17  C   UNL     1     -11.187  14.527  67.115  1.00  0.00    -0.333 C  
HETATM   18  H   UNL     1      -9.631  14.307  68.485  1.00  0.00     0.000 HD 
HETATM   19  O   UNL     1     -12.331  14.268  66.759  1.00  0.00    -0.429 OA 
BRANCH  17  20
HETATM   20  C   UNL     1     -10.277  15.367  66.289  1.00  0.00    -0.303 C  
HETATM   21  C   UNL     1     -10.230  16.690  66.518  1.00  0.00    -0.314 C  
BRANCH  21  22
HETATM   22  C   UNL     1      -9.348  17.707  65.852  1.00  0.00     0.079 C  
BRANCH  22  23
HETATM   23  N   UNL     1      -9.474  19.098  66.311  1.00  0.00    -0.365 NA 
HETATM   24  C   UNL     1      -8.326  19.905  65.880  1.00  0.00    -0.187 C  
HETATM   25  C   UNL     1     -10.697  19.677  65.735  1.00  0.00    -0.392 C  
ENDBRANCH  22  23
ENDBRANCH  21  22
ENDBRANCH  17  20
ENDBRANCH   5  16
BRANCH  12  26
HETATM   26  N   UNL     1     -11.072   8.987  69.109  1.00  0.00    -0.439 NA 
HETATM   27  H   UNL     1     -11.596   8.751  68.266  1.00  0.00     0.000 HD 
BRANCH  26  28
HETATM   28  C   UNL     1      -9.710   8.614  69.065  1.00  0.00    -0.173 A  
HETATM   29 CL   UNL     1      -7.693   5.158  68.856  1.00  0.00    -0.080 Cl 
HETATM   30  C   UNL     1      -8.678   9.552  68.969  1.00  0.00    -0.142 A  
HETATM   31  C   UNL     1      -8.030   6.857  68.884  1.00  0.00    -0.116 A  
HETATM   32  C   UNL     1      -7.335   9.154  68.807  1.00  0.00    -0.075 A  
HETATM   33  C   UNL     1      -9.362   7.258  69.059  1.00  0.00    -0.148 A  
HETATM   34  C   UNL     1      -7.002   7.800  68.739  1.00  0.00    -0.067 A  
BRANCH  34  35
HETATM   35  O   UNL     1      -5.754   7.307  68.472  1.00  0.00    -0.021 OA 
BRANCH  35  36
HETATM   36  C   UNL     1      -5.537   6.600  67.251  1.00  0.00    -0.013 C  
BRANCH  36  37
HETATM   37  C   UNL     1      -5.961   7.478  66.087  1.00  0.00    -0.037 A  
HETATM   38  C   UNL     1      -7.047   7.118  65.289  1.00  0.00    -0.060 A  
HETATM   39  C   UNL     1      -7.408   7.939  64.224  1.00  0.00    -0.088 A  
HETATM   40  C   UNL     1      -6.682   9.099  63.981  1.00  0.00    -0.089 A  
HETATM   41  C   UNL     1      -5.617   9.386  64.816  1.00  0.00    -0.063 A  
HETATM   42  N   UNL     1      -5.234   8.601  65.849  1.00  0.00    -0.030 NA 
ENDBRANCH  36  37
ENDBRANCH  35  36
ENDBRANCH  34  35
ENDBRANCH  26  28
ENDBRANCH  12  26
ENDBRANCH   3   4
ENDBRANCH   2   3
TORSDOF 11
ENDMDL
MODEL       60
REMARK 921   NORMALIZED FREE ENERGY PREDICTED BY IDOCK:   -4.97 KCAL/MOL
REMARK 922        TOTAL FREE ENERGY PREDICTED BY IDOCK:   -9.93 KCAL/MOL
REMARK 923 INTER-LIGAND FREE ENERGY PREDICTED BY IDOCK:   -8.16 KCAL/MOL
REMARK 924 INTRA-LIGAND FREE ENERGY PREDICTED BY IDOCK:   -1.77 KCAL/MOL
REMARK 927      BINDING AFFINITY PREDICTED BY RF-SCORE:    0.00 PKD
ROOT
HETATM    1  C   UNL     1      -9.753   2.830  64.528  1.00  0.00    -0.098 C  
HETATM    2  C   UNL     1      -9.260   1.975  65.683  1.00  0.00    -0.006 C  
ENDROOT
BRANCH   2   3
HETATM    3  O   UNL     1      -8.194   2.663  66.319  1.00  0.00    -0.082 OA 
BRANCH   3   4
HETATM    4  C   UNL     1      -8.448   3.673  67.204  1.00  0.00    -0.101 A  
HETATM    5  C   UNL     1      -8.266   5.051  67.081  1.00  0.00    -0.107 A  
HETATM    6  C   UNL     1     -10.265   6.127  72.958  1.00  0.00    -0.195 C  
HETATM    7  C   UNL     1      -8.526   5.894  68.184  1.00  0.00    -0.114 A  
HETATM    8  C   UNL     1     -10.015   4.147  71.661  1.00  0.00    -0.170 A  
HETATM    9  C   UNL     1      -8.933   3.184  68.420  1.00  0.00    -0.188 A  
HETATM   10  C   UNL     1      -9.033   5.392  69.421  1.00  0.00    -0.124 A  
HETATM   11  N   UNL     1      -9.712   3.385  70.587  1.00  0.00    -0.161 NA 
HETATM   12  C   UNL     1      -9.357   6.186  70.590  1.00  0.00    -0.165 A  
HETATM   13  C   UNL     1      -9.232   3.994  69.506  1.00  0.00    -0.151 A  
HETATM   14  N   UNL     1     -10.602   6.519  73.997  1.00  0.00    -0.266 NA 
HETATM   15  C   UNL     1      -9.856   5.521  71.728  1.00  0.00    -0.216 A  
BRANCH   5  16
HETATM   16  N   UNL     1      -7.840   5.655  65.883  1.00  0.00    -0.099 N  
HETATM   17  C   UNL     1      -6.498   5.894  65.661  1.00  0.00    -0.043 C  
HETATM   18  H   UNL     1      -8.526   5.918  65.176  1.00  0.00     0.000 HD 
HETATM   19  O   UNL     1      -5.603   5.671  66.469  1.00  0.00    -0.015 OA 
BRANCH  17  20
HETATM   20  C   UNL     1      -6.219   6.464  64.315  1.00  0.00    -0.030 C  
HETATM   21  C   UNL     1      -7.142   7.254  63.740  1.00  0.00    -0.069 C  
BRANCH  21  22
HETATM   22  C   UNL     1      -7.044   7.977  62.429  1.00  0.00    -0.087 C  
BRANCH  22  23
HETATM   23  N   UNL     1      -7.183   9.440  62.465  1.00  0.00    -0.100 NA 
HETATM   24  C   UNL     1      -8.218   9.852  63.422  1.00  0.00    -0.161 C  
HETATM   25  C   UNL     1      -5.900  10.027  62.881  1.00  0.00    -0.114 C  
ENDBRANCH  22  23
ENDBRANCH  21  22
ENDBRANCH  17  20
ENDBRANCH   5  16
BRANCH  12  26
HETATM   26  N   UNL     1      -9.139   7.604  70.513  1.00  0.00    -0.151 NA 
HETATM   27  H   UNL     1      -8.249   7.909  70.908  1.00  0.00     0.000 HD 
BRANCH  26  28
HETATM   28  C   UNL     1      -9.928   8.654  69.991  1.00  0.00    -0.185 A  
HETATM   29 CL   UNL     1     -12.848  11.011  71.395  1.00  0.00    -0.532 Cl 
HETATM   30  C   UNL     1      -9.711   9.196  68.721  1.00  0.00    -0.167 A  
HETATM   31  C   UNL     1     -11.644  10.349  70.340  1.00  0.00    -0.337 A  
HETATM   32  C   UNL     1     -10.432  10.319  68.267  1.00  0.00    -0.230 A  
HETATM   33  C   UNL     1     -10.934   9.224  70.781  1.00  0.00    -0.349 A  
HETATM   34  C   UNL     1     -11.390  10.922  69.085  1.00  0.00    -0.283 A  
BRANCH  34  35
HETATM   35  O   UNL     1     -12.063  12.077  68.792  1.00  0.00    -0.273 OA 
BRANCH  35  36
HETATM   36  C   UNL     1     -11.316  13.243  68.444  1.00  0.00    -0.291 C  
BRANCH  36  37
HETATM   37  C   UNL     1     -11.445  13.487  66.952  1.00  0.00    -0.344 A  
HETATM   38  C   UNL     1     -11.013  14.690  66.392  1.00  0.00    -0.325 A  
HETATM   39  C   UNL     1     -11.152  14.888  65.020  1.00  0.00    -0.422 A  
HETATM   40  C   UNL     1     -11.713  13.884  64.240  1.00  0.00    -0.406 A  
HETATM   41  C   UNL     1     -12.118  12.721  64.870  1.00  0.00    -0.438 A  
HETATM   42  N   UNL     1     -12.010  12.505  66.201  1.00  0.00    -0.569 NA 
ENDBRANCH  36  37
ENDBRANCH  35  36
ENDBRANCH  34  35
ENDBRANCH  26  28
ENDBRANCH  12  26
ENDBRANCH   3   4
ENDBRANCH   2   3
TORSDOF 11
ENDMDL
MODEL       61
REMARK 921   NORMALIZED FREE ENERGY PREDICTED BY IDOCK:   -4.93 KCAL/MOL
REMARK 922        TOTAL FREE ENERGY PREDICTED BY IDOCK:   -9.86 KCAL/MOL
REMARK 923 INTER-LIGAND FREE ENERGY PREDICTED BY IDOCK:   -8.46 KCAL/MOL
REMARK 924 INTRA-LIGAND FREE ENERGY PREDICTED BY IDOCK:   -1.40 KCAL/MOL
REMARK 927      BINDING AFFINITY PREDICTED BY RF-SCORE:    0.00 PKD
ROOT
HETATM    1  C   UNL     1     -13.383  15.651  72.812  1.00  0.00    -0.640 C  
HETATM    2  C   UNL     1     -14.309  14.828  71.933  1.00  0.00    -0.570 C  
ENDROOT
BRANCH   2   3
HETATM    3  O   UNL     1     -13.599  14.468  70.758  1.00  0.00    -0.253 OA 
BRANCH   3   4
HETATM    4  C   UNL     1     -12.883  13.304  70.707  1.00  0.00    -0.121 A  
HETATM    5  C   UNL     1     -11.724  12.985  69.998  1.00  0.00    -0.215 A  
HETATM    6  C   UNL     1     -11.733   7.047  72.102  1.00  0.00    -0.283 C  
HETATM    7  C   UNL     1     -11.216  11.669  70.043  1.00  0.00    -0.053 A  
HETATM    8  C   UNL     1     -13.166   8.909  72.480  1.00  0.00    -0.382 A  
HETATM    9  C   UNL     1     -13.474  12.301  71.480  1.00  0.00     0.039 A  
HETATM   10  C   UNL     1     -11.815  10.649  70.843  1.00  0.00    -0.433 A  
HETATM   11  N   UNL     1     -13.630  10.173  72.369  1.00  0.00    -0.184 NA 
HETATM   12  C   UNL     1     -11.343   9.284  70.972  1.00  0.00    -0.320 A  
HETATM   13  C   UNL     1     -12.974  11.011  71.571  1.00  0.00    -0.448 A  
HETATM   14  N   UNL     1     -11.566   5.933  72.382  1.00  0.00    -0.310 NA 
HETATM   15  C   UNL     1     -12.058   8.410  71.816  1.00  0.00    -0.379 A  
BRANCH   5  16
HETATM   16  N   UNL     1     -11.016  13.934  69.237  1.00  0.00    -0.373 N  
HETATM   17  C   UNL     1     -10.485  15.057  69.840  1.00  0.00    -0.154 C  
HETATM   18  H   UNL     1     -10.894  13.790  68.235  1.00  0.00     0.000 HD 
HETATM   19  O   UNL     1     -10.626  15.351  71.022  1.00  0.00    -0.191 OA 
BRANCH  17  20
HETATM   20  C   UNL     1      -9.702  15.910  68.905  1.00  0.00    -0.230 C  
HETATM   21  C   UNL     1      -9.175  15.350  67.803  1.00  0.00    -0.183 C  
BRANCH  21  22
HETATM   22  C   UNL     1      -8.411  16.029  66.703  1.00  0.00    -0.296 C  
BRANCH  22  23
HETATM   23  N   UNL     1      -7.259  16.849  67.104  1.00  0.00    -0.163 NA 
HETATM   24  C   UNL     1      -6.104  16.011  67.451  1.00  0.00    -0.139 C  
HETATM   25  C   UNL     1      -6.884  17.721  65.980  1.00  0.00    -0.292 C  
ENDBRANCH  22  23
ENDBRANCH  21  22
ENDBRANCH  17  20
ENDBRANCH   5  16
BRANCH  12  26
HETATM   26  N   UNL     1     -10.178   8.909  70.221  1.00  0.00    -0.192 NA 
HETATM   27  H   UNL     1      -9.296   9.120  70.689  1.00  0.00     0.000 HD 
BRANCH  26  28
HETATM   28  C   UNL     1     -10.027   8.302  68.954  1.00  0.00    -0.186 A  
HETATM   29 CL   UNL     1      -9.573   9.602  65.191  1.00  0.00    -0.353 Cl 
HETATM   30  C   UNL     1      -9.887   6.919  68.796  1.00  0.00    -0.149 A  
HETATM   31  C   UNL     1      -9.676   8.537  66.553  1.00  0.00    -0.260 A  
HETATM   32  C   UNL     1      -9.619   6.346  67.536  1.00  0.00    -0.129 A  
HETATM   33  C   UNL     1      -9.955   9.100  67.805  1.00  0.00    -0.236 A  
HETATM   34  C   UNL     1      -9.487   7.155  66.405  1.00  0.00    -0.123 A  
BRANCH  34  35
HETATM   35  O   UNL     1      -9.118   6.718  65.162  1.00  0.00     0.245 OA 
BRANCH  35  36
HETATM   36  C   UNL     1      -8.354   5.516  65.050  1.00  0.00    -0.146 C  
BRANCH  36  37
HETATM   37  C   UNL     1      -9.228   4.428  64.453  1.00  0.00    -0.149 A  
HETATM   38  C   UNL     1      -9.355   3.194  65.091  1.00  0.00    -0.143 A  
HETATM   39  C   UNL     1     -10.158   2.212  64.515  1.00  0.00     0.229 A  
HETATM   40  C   UNL     1     -10.816   2.483  63.321  1.00  0.00    -0.235 A  
HETATM   41  C   UNL     1     -10.637   3.730  62.749  1.00  0.00    -0.201 A  
HETATM   42  N   UNL     1      -9.854   4.698  63.277  1.00  0.00     0.142 NA 
ENDBRANCH  36  37
ENDBRANCH  35  36
ENDBRANCH  34  35
ENDBRANCH  26  28
ENDBRANCH  12  26
ENDBRANCH   3   4
ENDBRANCH   2   3
TORSDOF 11
ENDMDL
MODEL       62
REMARK 921   NORMALIZED FREE ENERGY PREDICTED BY IDOCK:   -4.91 KCAL/MOL
REMARK 922        TOTAL FREE ENERGY PREDICTED BY IDOCK:   -9.82 KCAL/MOL
REMARK 923 INTER-LIGAND FREE ENERGY PREDICTED BY IDOCK:   -8.78 KCAL/MOL
REMARK 924 INTRA-LIGAND FREE ENERGY PREDICTED BY IDOCK:   -1.05 KCAL/MOL
REMARK 927      BINDING AFFINITY PREDICTED BY RF-SCORE:    0.00 PKD
ROOT
HETATM    1  C   UNL     1      -7.665  10.882  62.413  1.00  0.00    -0.142 C  
HETATM    2  C   UNL     1      -9.052  10.549  62.935  1.00  0.00    -0.282 C  
ENDROOT
BRANCH   2   3
HETATM    3  O   UNL     1      -9.632  11.743  63.442  1.00  0.00    -0.315 OA 
BRANCH   3   4
HETATM    4  C   UNL     1     -10.077  11.806  64.733  1.00  0.00    -0.263 A  
HETATM    5  C   UNL     1     -10.290  10.793  65.668  1.00  0.00    -0.230 A  
HETATM    6  C   UNL     1     -12.405  14.845  70.003  1.00  0.00    -0.312 C  
HETATM    7  C   UNL     1     -10.844  11.107  66.927  1.00  0.00    -0.333 A  
HETATM    8  C   UNL     1     -11.604  15.114  67.777  1.00  0.00    -0.289 A  
HETATM    9  C   UNL     1     -10.383  13.117  65.109  1.00  0.00    -0.326 A  
HETATM   10  C   UNL     1     -11.146  12.448  67.312  1.00  0.00    -0.329 A  
HETATM   11  N   UNL     1     -11.110  14.751  66.573  1.00  0.00    -0.330 NA 
HETATM   12  C   UNL     1     -11.685  12.863  68.593  1.00  0.00    -0.324 A  
HETATM   13  C   UNL     1     -10.894  13.457  66.352  1.00  0.00    -0.289 A  
HETATM   14  N   UNL     1     -12.813  15.430  70.919  1.00  0.00    -0.450 NA 
HETATM   15  C   UNL     1     -11.915  14.237  68.804  1.00  0.00    -0.346 A  
BRANCH   5  16
HETATM   16  N   UNL     1      -9.960   9.448  65.415  1.00  0.00    -0.407 N  
HETATM   17  C   UNL     1      -8.905   8.851  66.077  1.00  0.00    -0.172 C  
HETATM   18  H   UNL     1     -10.504   8.911  64.740  1.00  0.00     0.000 HD 
HETATM   19  O   UNL     1      -8.156   9.424  66.860  1.00  0.00    -0.108 OA 
BRANCH  17  20
HETATM   20  C   UNL     1      -8.748   7.408  65.749  1.00  0.00    -0.132 C  
HETATM   21  C   UNL     1      -9.596   6.522  66.299  1.00  0.00    -0.096 C  
BRANCH  21  22
HETATM   22  C   UNL     1      -9.658   5.041  66.061  1.00  0.00    -0.168 C  
BRANCH  22  23
HETATM   23  N   UNL     1      -9.158   4.554  64.767  1.00  0.00    -0.151 NA 
HETATM   24  C   UNL     1      -8.040   3.618  64.948  1.00  0.00    -0.090 C  
HETATM   25  C   UNL     1     -10.247   3.855  64.070  1.00  0.00    -0.208 C  
ENDBRANCH  22  23
ENDBRANCH  21  22
ENDBRANCH  17  20
ENDBRANCH   5  16
BRANCH  12  26
HETATM   26  N   UNL     1     -11.959  11.839  69.563  1.00  0.00    -0.309 NA 
HETATM   27  H   UNL     1     -12.931  11.810  69.872  1.00  0.00     0.000 HD 
BRANCH  26  28
HETATM   28  C   UNL     1     -11.132  10.866  70.168  1.00  0.00    -0.161 A  
HETATM   29 CL   UNL     1     -11.665   7.885  72.791  1.00  0.00    -0.395 Cl 
HETATM   30  C   UNL     1      -9.791  10.695  69.811  1.00  0.00     0.051 A  
HETATM   31  C   UNL     1     -10.910   8.937  71.641  1.00  0.00    -0.349 A  
HETATM   32  C   UNL     1      -9.017   9.642  70.341  1.00  0.00    -0.239 A  
HETATM   33  C   UNL     1     -11.670   9.993  71.121  1.00  0.00    -0.472 A  
HETATM   34  C   UNL     1      -9.579   8.738  71.244  1.00  0.00    -0.253 A  
BRANCH  34  35
HETATM   35  O   UNL     1      -8.957   7.620  71.731  1.00  0.00    -0.117 OA 
BRANCH  35  36
HETATM   36  C   UNL     1      -7.560   7.447  71.493  1.00  0.00    -0.085 C  
BRANCH  36  37
HETATM   37  C   UNL     1      -7.339   6.122  70.785  1.00  0.00    -0.082 A  
HETATM   38  C   UNL     1      -7.458   6.034  69.398  1.00  0.00    -0.088 A  
HETATM   39  C   UNL     1      -7.257   4.803  68.777  1.00  0.00    -0.057 A  
HETATM   40  C   UNL     1      -6.939   3.694  69.550  1.00  0.00    -0.042 A  
HETATM   41  C   UNL     1      -6.841   3.862  70.920  1.00  0.00    -0.032 A  
HETATM   42  N   UNL     1      -7.045   5.040  71.552  1.00  0.00    -0.052 NA 
ENDBRANCH  36  37
ENDBRANCH  35  36
ENDBRANCH  34  35
ENDBRANCH  26  28
ENDBRANCH  12  26
ENDBRANCH   3   4
ENDBRANCH   2   3
TORSDOF 11
ENDMDL
MODEL       63
REMARK 921   NORMALIZED FREE ENERGY PREDICTED BY IDOCK:   -4.88 KCAL/MOL
REMARK 922        TOTAL FREE ENERGY PREDICTED BY IDOCK:   -9.78 KCAL/MOL
REMARK 923 INTER-LIGAND FREE ENERGY PREDICTED BY IDOCK:   -8.15 KCAL/MOL
REMARK 924 INTRA-LIGAND FREE ENERGY PREDICTED BY IDOCK:   -1.63 KCAL/MOL
REMARK 927      BINDING AFFINITY PREDICTED BY RF-SCORE:    0.00 PKD
ROOT
HETATM    1  C   UNL     1      -8.947   6.434  72.804  1.00  0.00    -0.124 C  
HETATM    2  C   UNL     1      -8.673   5.567  71.587  1.00  0.00    -0.136 C  
ENDROOT
BRANCH   2   3
HETATM    3  O   UNL     1      -7.484   6.036  70.968  1.00  0.00    -0.087 OA 
BRANCH   3   4
HETATM    4  C   UNL     1      -7.441   7.277  70.397  1.00  0.00    -0.083 A  
HETATM    5  C   UNL     1      -8.007   7.749  69.212  1.00  0.00    -0.125 A  
HETATM    6  C   UNL     1      -5.508  13.482  69.965  1.00  0.00    -0.105 C  
HETATM    7  C   UNL     1      -7.744   9.069  68.786  1.00  0.00    -0.095 A  
HETATM    8  C   UNL     1      -5.430  11.489  71.264  1.00  0.00     0.057 A  
HETATM    9  C   UNL     1      -6.663   8.164  71.147  1.00  0.00    -0.044 A  
HETATM   10  C   UNL     1      -6.958   9.975  69.561  1.00  0.00    -0.078 A  
HETATM   11  N   UNL     1      -5.682  10.206  71.602  1.00  0.00    -0.291 NA 
HETATM   12  C   UNL     1      -6.665  11.352  69.216  1.00  0.00    -0.113 A  
HETATM   13  C   UNL     1      -6.420   9.476  70.770  1.00  0.00    -0.097 A  
HETATM   14  N   UNL     1      -5.142  14.584  69.932  1.00  0.00    -0.092 NA 
HETATM   15  C   UNL     1      -5.874  12.107  70.106  1.00  0.00    -0.162 A  
BRANCH   5  16
HETATM   16  N   UNL     1      -8.855   6.961  68.411  1.00  0.00    -0.124 N  
HETATM   17  C   UNL     1     -10.224   7.013  68.582  1.00  0.00    -0.176 C  
HETATM   18  H   UNL     1      -8.456   6.347  67.701  1.00  0.00     0.000 HD 
HETATM   19  O   UNL     1     -10.798   7.670  69.444  1.00  0.00    -0.212 OA 
BRANCH  17  20
HETATM   20  C   UNL     1     -10.970   6.178  67.602  1.00  0.00    -0.400 C  
HETATM   21  C   UNL     1     -10.309   5.666  66.550  1.00  0.00    -0.287 C  
BRANCH  21  22
HETATM   22  C   UNL     1     -10.844   4.755  65.483  1.00  0.00    -0.038 C  
BRANCH  22  23
HETATM   23  N   UNL     1      -9.880   4.249  64.496  1.00  0.00    -0.154 NA 
HETATM   24  C   UNL     1      -8.834   3.443  65.140  1.00  0.00    -0.124 C  
HETATM   25  C   UNL     1     -10.593   3.404  63.526  1.00  0.00    -0.260 C  
ENDBRANCH  22  23
ENDBRANCH  21  22
ENDBRANCH  17  20
ENDBRANCH   5  16
BRANCH  12  26
HETATM   26  N   UNL     1      -7.195  11.857  67.980  1.00  0.00    -0.083 NA 
HETATM   27  H   UNL     1      -6.820  11.398  67.150  1.00  0.00     0.000 HD 
BRANCH  26  28
HETATM   28  C   UNL     1      -8.139  12.871  67.702  1.00  0.00    -0.167 A  
HETATM   29 CL   UNL     1     -12.035  13.439  68.446  1.00  0.00    -0.388 Cl 
HETATM   30  C   UNL     1      -7.782  14.087  67.112  1.00  0.00    -0.004 A  
HETATM   31  C   UNL     1     -10.408  13.732  67.929  1.00  0.00    -0.244 A  
HETATM   32  C   UNL     1      -8.717  15.130  66.951  1.00  0.00    -0.289 A  
HETATM   33  C   UNL     1      -9.477  12.694  68.074  1.00  0.00    -0.209 A  
HETATM   34  C   UNL     1     -10.036  14.969  67.382  1.00  0.00    -0.226 A  
BRANCH  34  35
HETATM   35  O   UNL     1     -10.991  15.948  67.379  1.00  0.00    -0.318 OA 
BRANCH  35  36
HETATM   36  C   UNL     1     -11.019  16.890  68.452  1.00  0.00    -0.296 C  
BRANCH  36  37
HETATM   37  C   UNL     1     -10.188  18.102  68.069  1.00  0.00    -0.380 A  
HETATM   38  C   UNL     1     -10.693  19.053  67.181  1.00  0.00    -0.541 A  
HETATM   39  C   UNL     1      -9.904  20.150  66.842  1.00  0.00    -0.593 A  
HETATM   40  C   UNL     1      -8.636  20.274  67.396  1.00  0.00    -0.420 A  
HETATM   41  C   UNL     1      -8.207  19.289  68.267  1.00  0.00    -0.337 A  
HETATM   42  N   UNL     1      -8.944  18.206  68.604  1.00  0.00    -0.302 NA 
ENDBRANCH  36  37
ENDBRANCH  35  36
ENDBRANCH  34  35
ENDBRANCH  26  28
ENDBRANCH  12  26
ENDBRANCH   3   4
ENDBRANCH   2   3
TORSDOF 11
ENDMDL
MODEL       64
REMARK 921   NORMALIZED FREE ENERGY PREDICTED BY IDOCK:   -4.82 KCAL/MOL
REMARK 922        TOTAL FREE ENERGY PREDICTED BY IDOCK:   -9.68 KCAL/MOL
REMARK 923 INTER-LIGAND FREE ENERGY PREDICTED BY IDOCK:   -8.28 KCAL/MOL
REMARK 924 INTRA-LIGAND FREE ENERGY PREDICTED BY IDOCK:   -1.40 KCAL/MOL
REMARK 927      BINDING AFFINITY PREDICTED BY RF-SCORE:    0.00 PKD
ROOT
HETATM    1  C   UNL     1     -10.730   4.149  64.761  1.00  0.00    -0.151 C  
HETATM    2  C   UNL     1      -9.907   3.254  65.671  1.00  0.00     0.133 C  
ENDROOT
BRANCH   2   3
HETATM    3  O   UNL     1      -8.552   3.671  65.594  1.00  0.00    -0.109 OA 
BRANCH   3   4
HETATM    4  C   UNL     1      -8.233   5.000  65.583  1.00  0.00    -0.117 A  
HETATM    5  C   UNL     1      -8.425   5.985  66.552  1.00  0.00    -0.115 A  
HETATM    6  C   UNL     1      -5.991  10.482  62.871  1.00  0.00    -0.134 C  
HETATM    7  C   UNL     1      -8.083   7.325  66.266  1.00  0.00    -0.121 A  
HETATM    8  C   UNL     1      -6.335   8.145  62.575  1.00  0.00    -0.087 A  
HETATM    9  C   UNL     1      -7.656   5.382  64.367  1.00  0.00    -0.075 A  
HETATM   10  C   UNL     1      -7.485   7.710  65.028  1.00  0.00    -0.090 A  
HETATM   11  N   UNL     1      -6.718   6.887  62.887  1.00  0.00    -0.046 NA 
HETATM   12  C   UNL     1      -7.074   9.052  64.665  1.00  0.00    -0.089 A  
HETATM   13  C   UNL     1      -7.278   6.683  64.076  1.00  0.00    -0.067 A  
HETATM   14  N   UNL     1      -5.577  11.432  62.349  1.00  0.00     0.014 NA 
HETATM   15  C   UNL     1      -6.491   9.249  63.397  1.00  0.00    -0.091 A  
BRANCH   5  16
HETATM   16  N   UNL     1      -8.941   5.701  67.830  1.00  0.00    -0.109 N  
HETATM   17  C   UNL     1     -10.260   5.980  68.129  1.00  0.00    -0.178 C  
HETATM   18  H   UNL     1      -8.337   5.286  68.539  1.00  0.00     0.000 HD 
HETATM   19  O   UNL     1     -11.048   6.531  67.369  1.00  0.00    -0.357 OA 
BRANCH  17  20
HETATM   20  C   UNL     1     -10.657   5.544  69.495  1.00  0.00    -0.366 C  
HETATM   21  C   UNL     1      -9.958   5.997  70.550  1.00  0.00    -0.233 C  
BRANCH  21  22
HETATM   22  C   UNL     1     -10.220   5.738  72.005  1.00  0.00    -0.201 C  
BRANCH  22  23
HETATM   23  N   UNL     1      -9.934   6.837  72.938  1.00  0.00    -0.168 NA 
HETATM   24  C   UNL     1     -10.793   7.997  72.671  1.00  0.00    -0.368 C  
HETATM   25  C   UNL     1     -10.187   6.372  74.310  1.00  0.00    -0.344 C  
ENDBRANCH  22  23
ENDBRANCH  21  22
ENDBRANCH  17  20
ENDBRANCH   5  16
BRANCH  12  26
HETATM   26  N   UNL     1      -7.299  10.099  65.622  1.00  0.00    -0.137 NA 
HETATM   27  H   UNL     1      -6.446  10.547  65.956  1.00  0.00     0.000 HD 
BRANCH  26  28
HETATM   28  C   UNL     1      -8.484  10.623  66.187  1.00  0.00    -0.159 A  
HETATM   29 CL   UNL     1     -10.287  10.421  69.760  1.00  0.00    -0.270 Cl 
HETATM   30  C   UNL     1      -9.302  11.531  65.507  1.00  0.00    -0.203 A  
HETATM   31  C   UNL     1      -9.936  10.882  68.127  1.00  0.00    -0.174 A  
HETATM   32  C   UNL     1     -10.413  12.131  66.132  1.00  0.00    -0.281 A  
HETATM   33  C   UNL     1      -8.840  10.278  67.496  1.00  0.00    -0.128 A  
HETATM   34  C   UNL     1     -10.726  11.829  67.459  1.00  0.00    -0.221 A  
BRANCH  34  35
HETATM   35  O   UNL     1     -11.708  12.435  68.195  1.00  0.00    -0.322 OA 
BRANCH  35  36
HETATM   36  C   UNL     1     -11.461  13.729  68.745  1.00  0.00    -0.303 C  
BRANCH  36  37
HETATM   37  C   UNL     1     -12.316  13.911  69.986  1.00  0.00    -0.316 A  
HETATM   38  C   UNL     1     -12.787  15.176  70.340  1.00  0.00    -0.346 A  
HETATM   39  C   UNL     1     -13.563  15.314  71.489  1.00  0.00    -0.593 A  
HETATM   40  C   UNL     1     -13.852  14.191  72.254  1.00  0.00    -0.643 A  
HETATM   41  C   UNL     1     -13.346  12.972  71.838  1.00  0.00    -0.446 A  
HETATM   42  N   UNL     1     -12.579  12.810  70.736  1.00  0.00    -0.276 NA 
ENDBRANCH  36  37
ENDBRANCH  35  36
ENDBRANCH  34  35
ENDBRANCH  26  28
ENDBRANCH  12  26
ENDBRANCH   3   4
ENDBRANCH   2   3
TORSDOF 11
ENDMDL
MODEL       65
REMARK 921   NORMALIZED FREE ENERGY PREDICTED BY IDOCK:   -4.76 KCAL/MOL
REMARK 922        TOTAL FREE ENERGY PREDICTED BY IDOCK:   -9.59 KCAL/MOL
REMARK 923 INTER-LIGAND FREE ENERGY PREDICTED BY IDOCK:   -8.65 KCAL/MOL
REMARK 924 INTRA-LIGAND FREE ENERGY PREDICTED BY IDOCK:   -0.94 KCAL/MOL
REMARK 927      BINDING AFFINITY PREDICTED BY RF-SCORE:    0.00 PKD
ROOT
HETATM    1  C   UNL     1     -12.200   6.830  71.038  1.00  0.00    -0.405 C  
HETATM    2  C   UNL     1     -11.020   7.785  70.985  1.00  0.00    -0.244 C  
ENDROOT
BRANCH   2   3
HETATM    3  O   UNL     1     -10.586   7.878  69.636  1.00  0.00    -0.234 OA 
BRANCH   3   4
HETATM    4  C   UNL     1     -10.069   9.047  69.151  1.00  0.00    -0.195 A  
HETATM    5  C   UNL     1      -8.749   9.492  69.081  1.00  0.00    -0.146 A  
HETATM    6  C   UNL     1     -10.447  15.025  66.594  1.00  0.00    -0.284 C  
HETATM    7  C   UNL     1      -8.472  10.793  68.608  1.00  0.00    -0.143 A  
HETATM    8  C   UNL     1     -11.674  13.104  67.278  1.00  0.00    -0.374 A  
HETATM    9  C   UNL     1     -11.074   9.906  68.697  1.00  0.00    -0.182 A  
HETATM   10  C   UNL     1      -9.500  11.665  68.135  1.00  0.00    -0.191 A  
HETATM   11  N   UNL     1     -11.883  11.865  67.776  1.00  0.00    -0.573 NA 
HETATM   12  C   UNL     1      -9.303  13.000  67.605  1.00  0.00    -0.202 A  
HETATM   13  C   UNL     1     -10.826  11.174  68.194  1.00  0.00    -0.219 A  
HETATM   14  N   UNL     1     -10.563  16.085  66.133  1.00  0.00    -0.313 NA 
HETATM   15  C   UNL     1     -10.437  13.719  67.176  1.00  0.00    -0.272 A  
BRANCH   5  16
HETATM   16  N   UNL     1      -7.657   8.686  69.454  1.00  0.00    -0.090 N  
HETATM   17  C   UNL     1      -7.237   8.644  70.768  1.00  0.00    -0.067 C  
HETATM   18  H   UNL     1      -7.173   8.131  68.749  1.00  0.00     0.000 HD 
HETATM   19  O   UNL     1      -7.711   9.317  71.677  1.00  0.00    -0.336 OA 
BRANCH  17  20
HETATM   20  C   UNL     1      -6.124   7.684  70.998  1.00  0.00    -0.035 C  
HETATM   21  C   UNL     1      -6.413   6.381  71.159  1.00  0.00    -0.049 C  
BRANCH  21  22
HETATM   22  C   UNL     1      -5.453   5.242  71.339  1.00  0.00    -0.009 C  
BRANCH  22  23
HETATM   23  N   UNL     1      -6.028   3.938  71.700  1.00  0.00    -0.013 NA 
HETATM   24  C   UNL     1      -7.317   4.098  72.385  1.00  0.00    -0.067 C  
HETATM   25  C   UNL     1      -6.243   3.159  70.472  1.00  0.00    -0.023 C  
ENDBRANCH  22  23
ENDBRANCH  21  22
ENDBRANCH  17  20
ENDBRANCH   5  16
BRANCH  12  26
HETATM   26  N   UNL     1      -7.960  13.507  67.561  1.00  0.00    -0.171 NA 
HETATM   27  H   UNL     1      -7.274  12.838  67.210  1.00  0.00     0.000 HD 
BRANCH  26  28
HETATM   28  C   UNL     1      -7.413  14.762  67.913  1.00  0.00    -0.145 A  
HETATM   29 CL   UNL     1      -5.343  17.619  66.013  1.00  0.00    -0.227 Cl 
HETATM   30  C   UNL     1      -7.629  15.351  69.163  1.00  0.00    -0.198 A  
HETATM   31  C   UNL     1      -6.227  16.784  67.248  1.00  0.00    -0.174 A  
HETATM   32  C   UNL     1      -7.173  16.653  69.451  1.00  0.00    -0.132 A  
HETATM   33  C   UNL     1      -6.670  15.484  66.971  1.00  0.00     0.135 A  
HETATM   34  C   UNL     1      -6.488  17.392  68.485  1.00  0.00    -0.180 A  
BRANCH  34  35
HETATM   35  O   UNL     1      -6.103  18.699  68.618  1.00  0.00    -0.203 OA 
BRANCH  35  36
HETATM   36  C   UNL     1      -6.499  19.641  67.621  1.00  0.00    -0.213 C  
BRANCH  36  37
HETATM   37  C   UNL     1      -8.008  19.592  67.464  1.00  0.00    -0.273 A  
HETATM   38  C   UNL     1      -8.582  19.378  66.211  1.00  0.00    -0.360 A  
HETATM   39  C   UNL     1      -9.970  19.345  66.097  1.00  0.00    -0.501 A  
HETATM   40  C   UNL     1     -10.751  19.524  67.232  1.00  0.00    -0.604 A  
HETATM   41  C   UNL     1     -10.107  19.733  68.438  1.00  0.00    -0.454 A  
HETATM   42  N   UNL     1      -8.762  19.784  68.578  1.00  0.00    -0.281 NA 
ENDBRANCH  36  37
ENDBRANCH  35  36
ENDBRANCH  34  35
ENDBRANCH  26  28
ENDBRANCH  12  26
ENDBRANCH   3   4
ENDBRANCH   2   3
TORSDOF 11
ENDMDL
MODEL       66
REMARK 921   NORMALIZED FREE ENERGY PREDICTED BY IDOCK:   -4.73 KCAL/MOL
REMARK 922        TOTAL FREE ENERGY PREDICTED BY IDOCK:   -9.53 KCAL/MOL
REMARK 923 INTER-LIGAND FREE ENERGY PREDICTED BY IDOCK:   -8.47 KCAL/MOL
REMARK 924 INTRA-LIGAND FREE ENERGY PREDICTED BY IDOCK:   -1.06 KCAL/MOL
REMARK 927      BINDING AFFINITY PREDICTED BY RF-SCORE:    0.00 PKD
ROOT
HETATM    1  C   UNL     1     -11.423  15.431  72.513  1.00  0.00    -0.441 C  
HETATM    2  C   UNL     1     -12.609  15.743  71.615  1.00  0.00    -0.459 C  
ENDROOT
BRANCH   2   3
HETATM    3  O   UNL     1     -12.330  15.233  70.320  1.00  0.00    -0.334 OA 
BRANCH   3   4
HETATM    4  C   UNL     1     -12.073  13.903  70.137  1.00  0.00    -0.349 A  
HETATM    5  C   UNL     1     -11.252  13.259  69.210  1.00  0.00    -0.208 A  
HETATM    6  C   UNL     1     -12.850   7.548  71.337  1.00  0.00    -0.342 C  
HETATM    7  C   UNL     1     -11.220  11.848  69.164  1.00  0.00    -0.314 A  
HETATM    8  C   UNL     1     -13.467   9.756  71.979  1.00  0.00    -0.407 A  
HETATM    9  C   UNL     1     -12.803  13.109  71.026  1.00  0.00    -0.295 A  
HETATM   10  C   UNL     1     -11.958  11.040  70.081  1.00  0.00    -0.443 A  
HETATM   11  N   UNL     1     -13.490  11.106  71.951  1.00  0.00    -0.288 NA 
HETATM   12  C   UNL     1     -11.958   9.591  70.127  1.00  0.00     0.092 A  
HETATM   13  C   UNL     1     -12.760  11.723  71.026  1.00  0.00    -0.275 A  
HETATM   14  N   UNL     1     -13.017   6.427  71.589  1.00  0.00     0.020 NA 
HETATM   15  C   UNL     1     -12.745   8.956  71.108  1.00  0.00    -0.201 A  
BRANCH   5  16
HETATM   16  N   UNL     1     -10.429  13.961  68.310  1.00  0.00    -0.243 N  
HETATM   17  C   UNL     1     -10.921  14.366  67.085  1.00  0.00    -0.303 C  
HETATM   18  H   UNL     1      -9.465  14.171  68.563  1.00  0.00     0.000 HD 
HETATM   19  O   UNL     1     -12.044  14.112  66.662  1.00  0.00    -0.429 OA 
BRANCH  17  20
HETATM   20  C   UNL     1      -9.944  15.163  66.294  1.00  0.00    -0.307 C  
HETATM   21  C   UNL     1      -8.985  15.844  66.945  1.00  0.00    -0.257 C  
BRANCH  21  22
HETATM   22  C   UNL     1      -7.869  16.653  66.350  1.00  0.00    -0.312 C  
BRANCH  22  23
HETATM   23  N   UNL     1      -6.931  17.282  67.290  1.00  0.00    -0.158 NA 
HETATM   24  C   UNL     1      -5.715  17.738  66.603  1.00  0.00    -0.171 C  
HETATM   25  C   UNL     1      -7.585  18.446  67.906  1.00  0.00    -0.246 C  
ENDBRANCH  22  23
ENDBRANCH  21  22
ENDBRANCH  17  20
ENDBRANCH   5  16
BRANCH  12  26
HETATM   26  N   UNL     1     -11.159   8.895  69.157  1.00  0.00    -0.429 NA 
HETATM   27  H   UNL     1     -11.659   8.658  68.300  1.00  0.00     0.000 HD 
BRANCH  26  28
HETATM   28  C   UNL     1      -9.809   8.478  69.170  1.00  0.00    -0.186 A  
HETATM   29 CL   UNL     1      -7.586   6.044  71.449  1.00  0.00    -0.097 Cl 
HETATM   30  C   UNL     1      -8.905   8.827  68.162  1.00  0.00    -0.141 A  
HETATM   31  C   UNL     1      -8.058   7.103  70.161  1.00  0.00    -0.130 A  
HETATM   32  C   UNL     1      -7.596   8.304  68.134  1.00  0.00    -0.098 A  
HETATM   33  C   UNL     1      -9.353   7.636  70.192  1.00  0.00    -0.157 A  
HETATM   34  C   UNL     1      -7.168   7.416  69.122  1.00  0.00    -0.084 A  
BRANCH  34  35
HETATM   35  O   UNL     1      -5.966   6.764  69.129  1.00  0.00    -0.021 OA 
BRANCH  35  36
HETATM   36  C   UNL     1      -5.951   5.340  69.020  1.00  0.00    -0.021 C  
BRANCH  36  37
HETATM   37  C   UNL     1      -6.719   4.931  67.777  1.00  0.00    -0.051 A  
HETATM   38  C   UNL     1      -7.908   4.209  67.887  1.00  0.00    -0.079 A  
HETATM   39  C   UNL     1      -8.588   3.840  66.728  1.00  0.00    -0.108 A  
HETATM   40  C   UNL     1      -8.069   4.201  65.490  1.00  0.00    -0.101 A  
HETATM   41  C   UNL     1      -6.885   4.915  65.464  1.00  0.00    -0.061 A  
HETATM   42  N   UNL     1      -6.195   5.274  66.572  1.00  0.00    -0.034 NA 
ENDBRANCH  36  37
ENDBRANCH  35  36
ENDBRANCH  34  35
ENDBRANCH  26  28
ENDBRANCH  12  26
ENDBRANCH   3   4
ENDBRANCH   2   3
TORSDOF 11
ENDMDL
MODEL       67
REMARK 921   NORMALIZED FREE ENERGY PREDICTED BY IDOCK:   -4.72 KCAL/MOL
REMARK 922        TOTAL FREE ENERGY PREDICTED BY IDOCK:   -9.51 KCAL/MOL
REMARK 923 INTER-LIGAND FREE ENERGY PREDICTED BY IDOCK:   -9.00 KCAL/MOL
REMARK 924 INTRA-LIGAND FREE ENERGY PREDICTED BY IDOCK:   -0.51 KCAL/MOL
REMARK 927      BINDING AFFINITY PREDICTED BY RF-SCORE:    0.00 PKD
ROOT
HETATM    1  C   UNL     1      -8.515   5.369  66.887  1.00  0.00    -0.107 C  
HETATM    2  C   UNL     1      -9.176   6.672  67.305  1.00  0.00    -0.125 C  
ENDROOT
BRANCH   2   3
HETATM    3  O   UNL     1      -8.630   7.719  66.516  1.00  0.00    -0.130 OA 
BRANCH   3   4
HETATM    4  C   UNL     1      -9.160   8.977  66.569  1.00  0.00    -0.163 A  
HETATM    5  C   UNL     1      -9.326   9.846  67.648  1.00  0.00    -0.140 A  
HETATM    6  C   UNL     1     -12.121  14.215  64.072  1.00  0.00    -0.348 C  
HETATM    7  C   UNL     1      -9.989  11.078  67.461  1.00  0.00    -0.199 A  
HETATM    8  C   UNL     1     -11.213  12.065  63.603  1.00  0.00    -0.450 A  
HETATM    9  C   UNL     1      -9.624   9.394  65.317  1.00  0.00    -0.251 A  
HETATM   10  C   UNL     1     -10.452  11.506  66.180  1.00  0.00    -0.296 A  
HETATM   11  N   UNL     1     -10.608  10.882  63.848  1.00  0.00    -0.313 NA 
HETATM   12  C   UNL     1     -11.111  12.764  65.892  1.00  0.00    -0.287 A  
HETATM   13  C   UNL     1     -10.245  10.615  65.100  1.00  0.00    -0.299 A  
HETATM   14  N   UNL     1     -12.645  15.128  63.583  1.00  0.00    -0.389 NA 
HETATM   15  C   UNL     1     -11.496  13.025  64.562  1.00  0.00    -0.389 A  
BRANCH   5  16
HETATM   16  N   UNL     1      -8.843   9.552  68.937  1.00  0.00    -0.134 N  
HETATM   17  C   UNL     1      -9.700   9.089  69.915  1.00  0.00    -0.183 C  
HETATM   18  H   UNL     1      -7.855   9.683  69.150  1.00  0.00     0.000 HD 
HETATM   19  O   UNL     1     -10.911   8.954  69.779  1.00  0.00    -0.230 OA 
BRANCH  17  20
HETATM   20  C   UNL     1      -9.010   8.755  71.191  1.00  0.00    -0.280 C  
HETATM   21  C   UNL     1      -8.019   7.848  71.174  1.00  0.00    -0.091 C  
BRANCH  21  22
HETATM   22  C   UNL     1      -7.155   7.410  72.321  1.00  0.00    -0.067 C  
BRANCH  22  23
HETATM   23  N   UNL     1      -6.742   6.000  72.342  1.00  0.00    -0.067 NA 
HETATM   24  C   UNL     1      -6.972   5.398  73.661  1.00  0.00    -0.085 C  
HETATM   25  C   UNL     1      -7.531   5.261  71.345  1.00  0.00    -0.095 C  
ENDBRANCH  22  23
ENDBRANCH  21  22
ENDBRANCH  17  20
ENDBRANCH   5  16
BRANCH  12  26
HETATM   26  N   UNL     1     -11.338  13.663  66.990  1.00  0.00    -0.312 NA 
HETATM   27  H   UNL     1     -12.131  13.407  67.578  1.00  0.00     0.000 HD 
BRANCH  26  28
HETATM   28  C   UNL     1     -10.667  14.835  67.404  1.00  0.00    -0.281 A  
HETATM   29 CL   UNL     1      -7.686  17.091  65.961  1.00  0.00    -0.279 Cl 
HETATM   30  C   UNL     1     -11.070  15.576  68.520  1.00  0.00    -0.307 A  
HETATM   31  C   UNL     1      -8.990  16.548  66.964  1.00  0.00    -0.204 A  
HETATM   32  C   UNL     1     -10.460  16.805  68.846  1.00  0.00    -0.332 A  
HETATM   33  C   UNL     1      -9.591  15.321  66.652  1.00  0.00    -0.276 A  
HETATM   34  C   UNL     1      -9.429  17.314  68.055  1.00  0.00    -0.271 A  
BRANCH  34  35
HETATM   35  O   UNL     1      -8.847  18.543  68.212  1.00  0.00    -0.294 OA 
BRANCH  35  36
HETATM   36  C   UNL     1      -7.448  18.683  67.961  1.00  0.00    -0.251 C  
BRANCH  36  37
HETATM   37  C   UNL     1      -6.707  18.708  69.286  1.00  0.00    -0.243 A  
HETATM   38  C   UNL     1      -6.857  19.786  70.159  1.00  0.00    -0.073 A  
HETATM   39  C   UNL     1      -6.158  19.785  71.364  1.00  0.00    -0.110 A  
HETATM   40  C   UNL     1      -5.331  18.711  71.671  1.00  0.00    -0.167 A  
HETATM   41  C   UNL     1      -5.234  17.682  70.752  1.00  0.00    -0.264 A  
HETATM   42  N   UNL     1      -5.889  17.661  69.568  1.00  0.00    -0.226 NA 
ENDBRANCH  36  37
ENDBRANCH  35  36
ENDBRANCH  34  35
ENDBRANCH  26  28
ENDBRANCH  12  26
ENDBRANCH   3   4
ENDBRANCH   2   3
TORSDOF 11
ENDMDL
MODEL       68
REMARK 921   NORMALIZED FREE ENERGY PREDICTED BY IDOCK:   -4.72 KCAL/MOL
REMARK 922        TOTAL FREE ENERGY PREDICTED BY IDOCK:   -9.51 KCAL/MOL
REMARK 923 INTER-LIGAND FREE ENERGY PREDICTED BY IDOCK:   -8.61 KCAL/MOL
REMARK 924 INTRA-LIGAND FREE ENERGY PREDICTED BY IDOCK:   -0.90 KCAL/MOL
REMARK 927      BINDING AFFINITY PREDICTED BY RF-SCORE:    0.00 PKD
ROOT
HETATM    1  C   UNL     1      -8.248   4.397  62.664  1.00  0.00    -0.081 C  
HETATM    2  C   UNL     1      -8.897   4.281  64.033  1.00  0.00    -0.138 C  
ENDROOT
BRANCH   2   3
HETATM    3  O   UNL     1      -7.889   4.461  65.017  1.00  0.00    -0.087 OA 
BRANCH   3   4
HETATM    4  C   UNL     1      -7.869   5.585  65.795  1.00  0.00    -0.104 A  
HETATM    5  C   UNL     1      -8.412   5.821  67.059  1.00  0.00    -0.107 A  
HETATM    6  C   UNL     1      -6.500  11.823  67.072  1.00  0.00    -0.147 C  
HETATM    7  C   UNL     1      -8.331   7.111  67.626  1.00  0.00    -0.117 A  
HETATM    8  C   UNL     1      -6.280  10.049  65.501  1.00  0.00    -0.092 A  
HETATM    9  C   UNL     1      -7.217   6.643  65.155  1.00  0.00    -0.074 A  
HETATM   10  C   UNL     1      -7.656   8.187  66.975  1.00  0.00    -0.096 A  
HETATM   11  N   UNL     1      -6.421   8.806  64.989  1.00  0.00    -0.064 NA 
HETATM   12  C   UNL     1      -7.498   9.530  67.497  1.00  0.00    -0.091 A  
HETATM   13  C   UNL     1      -7.093   7.910  65.707  1.00  0.00    -0.060 A  
HETATM   14  N   UNL     1      -6.230  12.937  67.258  1.00  0.00    -0.284 NA 
HETATM   15  C   UNL     1      -6.791  10.468  66.718  1.00  0.00    -0.103 A  
BRANCH   5  16
HETATM   16  N   UNL     1      -9.036   4.812  67.816  1.00  0.00    -0.108 N  
HETATM   17  C   UNL     1      -8.286   3.981  68.625  1.00  0.00    -0.075 C  
HETATM   18  H   UNL     1     -10.047   4.693  67.766  1.00  0.00     0.000 HD 
HETATM   19  O   UNL     1      -7.063   4.003  68.709  1.00  0.00    -0.052 OA 
BRANCH  17  20
HETATM   20  C   UNL     1      -9.112   3.026  69.412  1.00  0.00    -0.198 C  
HETATM   21  C   UNL     1      -9.046   3.064  70.754  1.00  0.00    -0.186 C  
BRANCH  21  22
HETATM   22  C   UNL     1      -9.831   2.243  71.736  1.00  0.00    -0.152 C  
BRANCH  22  23
HETATM   23  N   UNL     1     -10.361   2.944  72.914  1.00  0.00    -0.150 NA 
HETATM   24  C   UNL     1     -11.446   2.180  73.544  1.00  0.00    -0.200 C  
HETATM   25  C   UNL     1      -9.277   3.113  73.893  1.00  0.00    -0.084 C  
ENDBRANCH  22  23
ENDBRANCH  21  22
ENDBRANCH  17  20
ENDBRANCH   5  16
BRANCH  12  26
HETATM   26  N   UNL     1      -8.084   9.820  68.777  1.00  0.00    -0.099 NA 
HETATM   27  H   UNL     1      -7.404   9.930  69.529  1.00  0.00     0.000 HD 
BRANCH  26  28
HETATM   28  C   UNL     1      -9.427   9.982  69.185  1.00  0.00    -0.207 A  
HETATM   29 CL   UNL     1     -11.641   8.763  72.295  1.00  0.00    -0.427 Cl 
HETATM   30  C   UNL     1     -10.322  10.816  68.508  1.00  0.00    -0.202 A  
HETATM   31  C   UNL     1     -11.169   9.579  70.841  1.00  0.00    -0.341 A  
HETATM   32  C   UNL     1     -11.622  11.054  69.000  1.00  0.00    -0.392 A  
HETATM   33  C   UNL     1      -9.883   9.336  70.341  1.00  0.00    -0.290 A  
HETATM   34  C   UNL     1     -12.049  10.455  70.187  1.00  0.00    -0.256 A  
BRANCH  34  35
HETATM   35  O   UNL     1     -13.241  10.703  70.812  1.00  0.00    -0.293 OA 
BRANCH  35  36
HETATM   36  C   UNL     1     -13.233  11.360  72.080  1.00  0.00    -0.327 C  
BRANCH  36  37
HETATM   37  C   UNL     1     -13.301  12.860  71.861  1.00  0.00    -0.435 A  
HETATM   38  C   UNL     1     -12.350  13.502  71.067  1.00  0.00    -0.422 A  
HETATM   39  C   UNL     1     -12.434  14.882  70.891  1.00  0.00    -0.395 A  
HETATM   40  C   UNL     1     -13.460  15.586  71.507  1.00  0.00    -0.582 A  
HETATM   41  C   UNL     1     -14.362  14.878  72.281  1.00  0.00    -0.429 A  
HETATM   42  N   UNL     1     -14.299  13.542  72.481  1.00  0.00    -0.662 NA 
ENDBRANCH  36  37
ENDBRANCH  35  36
ENDBRANCH  34  35
ENDBRANCH  26  28
ENDBRANCH  12  26
ENDBRANCH   3   4
ENDBRANCH   2   3
TORSDOF 11
ENDMDL
MODEL       69
REMARK 921   NORMALIZED FREE ENERGY PREDICTED BY IDOCK:   -4.69 KCAL/MOL
REMARK 922        TOTAL FREE ENERGY PREDICTED BY IDOCK:   -9.46 KCAL/MOL
REMARK 923 INTER-LIGAND FREE ENERGY PREDICTED BY IDOCK:   -7.90 KCAL/MOL
REMARK 924 INTRA-LIGAND FREE ENERGY PREDICTED BY IDOCK:   -1.57 KCAL/MOL
REMARK 927      BINDING AFFINITY PREDICTED BY RF-SCORE:    0.00 PKD
ROOT
HETATM    1  C   UNL     1     -12.099   6.557  70.419  1.00  0.00    -0.172 C  
HETATM    2  C   UNL     1     -11.042   7.647  70.487  1.00  0.00    -0.255 C  
ENDROOT
BRANCH   2   3
HETATM    3  O   UNL     1     -10.292   7.612  69.281  1.00  0.00    -0.209 OA 
BRANCH   3   4
HETATM    4  C   UNL     1      -9.842   8.769  68.709  1.00  0.00    -0.171 A  
HETATM    5  C   UNL     1      -8.564   9.327  68.680  1.00  0.00    -0.127 A  
HETATM    6  C   UNL     1     -10.538  14.395  65.501  1.00  0.00    -0.347 C  
HETATM    7  C   UNL     1      -8.365  10.593  68.089  1.00  0.00    -0.121 A  
HETATM    8  C   UNL     1     -11.643  12.446  66.305  1.00  0.00    -0.393 A  
HETATM    9  C   UNL     1     -10.880   9.480  68.098  1.00  0.00    -0.208 A  
HETATM   10  C   UNL     1      -9.425  11.312  67.457  1.00  0.00    -0.177 A  
HETATM   11  N   UNL     1     -11.782  11.250  66.919  1.00  0.00    -0.403 NA 
HETATM   12  C   UNL     1      -9.304  12.599  66.800  1.00  0.00    -0.232 A  
HETATM   13  C   UNL     1     -10.704  10.708  67.479  1.00  0.00    -0.272 A  
HETATM   14  N   UNL     1     -10.709  15.386  64.922  1.00  0.00    -0.425 NA 
HETATM   15  C   UNL     1     -10.459  13.161  66.221  1.00  0.00    -0.291 A  
BRANCH   5  16
HETATM   16  N   UNL     1      -7.438   8.669  69.210  1.00  0.00    -0.080 N  
HETATM   17  C   UNL     1      -7.114   8.805  70.545  1.00  0.00    -0.050 C  
HETATM   18  H   UNL     1      -6.858   8.089  68.604  1.00  0.00     0.000 HD 
HETATM   19  O   UNL     1      -7.710   9.524  71.340  1.00  0.00    -0.297 OA 
BRANCH  17  20
HETATM   20  C   UNL     1      -5.944   7.981  70.952  1.00  0.00    -0.033 C  
HETATM   21  C   UNL     1      -6.156   6.736  71.412  1.00  0.00    -0.037 C  
BRANCH  21  22
HETATM   22  C   UNL     1      -5.128   5.719  71.816  1.00  0.00    -0.013 C  
BRANCH  22  23
HETATM   23  N   UNL     1      -5.486   4.813  72.917  1.00  0.00    -0.008 NA 
HETATM   24  C   UNL     1      -6.608   5.347  73.700  1.00  0.00    -0.073 C  
HETATM   25  C   UNL     1      -5.884   3.515  72.352  1.00  0.00    -0.008 C  
ENDBRANCH  22  23
ENDBRANCH  21  22
ENDBRANCH  17  20
ENDBRANCH   5  16
BRANCH  12  26
HETATM   26  N   UNL     1      -8.010  13.223  66.792  1.00  0.00    -0.367 NA 
HETATM   27  H   UNL     1      -7.325  12.749  66.204  1.00  0.00     0.000 HD 
BRANCH  26  28
HETATM   28  C   UNL     1      -7.512  14.372  67.447  1.00  0.00    -0.159 A  
HETATM   29 CL   UNL     1      -9.102  17.737  68.931  1.00  0.00    -0.189 Cl 
HETATM   30  C   UNL     1      -6.175  14.493  67.838  1.00  0.00    -0.167 A  
HETATM   31  C   UNL     1      -7.947  16.506  68.540  1.00  0.00    -0.216 A  
HETATM   32  C   UNL     1      -5.726  15.595  68.594  1.00  0.00    -0.098 A  
HETATM   33  C   UNL     1      -8.385  15.416  67.777  1.00  0.00    -0.156 A  
HETATM   34  C   UNL     1      -6.616  16.601  68.973  1.00  0.00    -0.198 A  
BRANCH  34  35
HETATM   35  O   UNL     1      -6.315  17.651  69.798  1.00  0.00    -0.227 OA 
BRANCH  35  36
HETATM   36  C   UNL     1      -5.209  18.492  69.470  1.00  0.00    -0.187 C  
BRANCH  36  37
HETATM   37  C   UNL     1      -5.595  19.388  68.308  1.00  0.00    -0.200 A  
HETATM   38  C   UNL     1      -6.348  20.543  68.526  1.00  0.00    -0.341 A  
HETATM   39  C   UNL     1      -6.694  21.342  67.438  1.00  0.00    -0.374 A  
HETATM   40  C   UNL     1      -6.281  20.974  66.164  1.00  0.00    -0.302 A  
HETATM   41  C   UNL     1      -5.539  19.814  66.030  1.00  0.00    -0.165 A  
HETATM   42  N   UNL     1      -5.200  19.011  67.064  1.00  0.00    -0.147 NA 
ENDBRANCH  36  37
ENDBRANCH  35  36
ENDBRANCH  34  35
ENDBRANCH  26  28
ENDBRANCH  12  26
ENDBRANCH   3   4
ENDBRANCH   2   3
TORSDOF 11
ENDMDL
MODEL       70
REMARK 921   NORMALIZED FREE ENERGY PREDICTED BY IDOCK:   -4.66 KCAL/MOL
REMARK 922        TOTAL FREE ENERGY PREDICTED BY IDOCK:   -9.42 KCAL/MOL
REMARK 923 INTER-LIGAND FREE ENERGY PREDICTED BY IDOCK:   -8.00 KCAL/MOL
REMARK 924 INTRA-LIGAND FREE ENERGY PREDICTED BY IDOCK:   -1.41 KCAL/MOL
REMARK 927      BINDING AFFINITY PREDICTED BY RF-SCORE:    0.00 PKD
ROOT
HETATM    1  C   UNL     1     -13.217  13.118  65.260  1.00  0.00     0.333 C  
HETATM    2  C   UNL     1     -12.424  14.384  64.984  1.00  0.00    -0.359 C  
ENDROOT
BRANCH   2   3
HETATM    3  O   UNL     1     -11.261  14.027  64.251  1.00  0.00    -0.335 OA 
BRANCH   3   4
HETATM    4  C   UNL     1     -10.472  12.989  64.662  1.00  0.00    -0.380 A  
HETATM    5  C   UNL     1      -9.852  12.755  65.890  1.00  0.00    -0.238 A  
HETATM    6  C   UNL     1      -7.161   7.441  63.840  1.00  0.00    -0.065 C  
HETATM    7  C   UNL     1      -9.004  11.637  66.044  1.00  0.00    -0.149 A  
HETATM    8  C   UNL     1      -8.608   9.031  62.818  1.00  0.00    -0.189 A  
HETATM    9  C   UNL     1     -10.259  12.064  63.635  1.00  0.00    -0.470 A  
HETATM   10  C   UNL     1      -8.797  10.689  64.997  1.00  0.00    -0.212 A  
HETATM   11  N   UNL     1      -9.376  10.138  62.715  1.00  0.00    -0.300 NA 
HETATM   12  C   UNL     1      -7.972   9.500  65.080  1.00  0.00    -0.119 A  
HETATM   13  C   UNL     1      -9.461  10.939  63.773  1.00  0.00    -0.275 A  
HETATM   14  N   UNL     1      -6.590   6.448  63.648  1.00  0.00    -0.032 NA 
HETATM   15  C   UNL     1      -7.888   8.668  63.945  1.00  0.00    -0.147 A  
BRANCH   5  16
HETATM   16  N   UNL     1     -10.046  13.588  67.007  1.00  0.00    -0.241 N  
HETATM   17  C   UNL     1      -9.474  14.844  67.049  1.00  0.00    -0.229 C  
HETATM   18  H   UNL     1     -10.611  13.262  67.791  1.00  0.00     0.000 HD 
HETATM   19  O   UNL     1      -8.732  15.305  66.189  1.00  0.00    -0.245 OA 
BRANCH  17  20
HETATM   20  C   UNL     1      -9.846  15.618  68.265  1.00  0.00    -0.209 C  
HETATM   21  C   UNL     1     -10.742  15.093  69.119  1.00  0.00    -0.253 C  
BRANCH  21  22
HETATM   22  C   UNL     1     -11.211  15.667  70.425  1.00  0.00    -0.357 C  
BRANCH  22  23
HETATM   23  N   UNL     1     -12.394  15.045  71.037  1.00  0.00    -0.304 NA 
HETATM   24  C   UNL     1     -12.492  13.624  70.679  1.00  0.00    -0.347 C  
HETATM   25  C   UNL     1     -12.284  15.154  72.499  1.00  0.00    -0.380 C  
ENDBRANCH  22  23
ENDBRANCH  21  22
ENDBRANCH  17  20
ENDBRANCH   5  16
BRANCH  12  26
HETATM   26  N   UNL     1      -7.283   9.252  66.316  1.00  0.00    -0.087 NA 
HETATM   27  H   UNL     1      -6.427   9.795  66.430  1.00  0.00     0.000 HD 
BRANCH  26  28
HETATM   28  C   UNL     1      -7.571   8.396  67.402  1.00  0.00    -0.098 A  
HETATM   29 CL   UNL     1      -6.815   8.407  71.337  1.00  0.00    -0.062 Cl 
HETATM   30  C   UNL     1      -8.390   7.270  67.273  1.00  0.00    -0.119 A  
HETATM   31  C   UNL     1      -7.451   7.942  69.794  1.00  0.00    -0.088 A  
HETATM   32  C   UNL     1      -8.760   6.497  68.393  1.00  0.00    -0.121 A  
HETATM   33  C   UNL     1      -7.075   8.699  68.676  1.00  0.00    -0.068 A  
HETATM   34  C   UNL     1      -8.312   6.842  69.669  1.00  0.00    -0.133 A  
BRANCH  34  35
HETATM   35  O   UNL     1      -8.699   6.234  70.832  1.00  0.00    -0.134 OA 
BRANCH  35  36
HETATM   36  C   UNL     1     -10.091   6.033  71.077  1.00  0.00    -0.192 C  
BRANCH  36  37
HETATM   37  C   UNL     1     -10.280   4.717  71.811  1.00  0.00    -0.188 A  
HETATM   38  C   UNL     1     -10.856   4.693  73.081  1.00  0.00    -0.338 A  
HETATM   39  C   UNL     1     -11.010   3.471  73.733  1.00  0.00    -0.308 A  
HETATM   40  C   UNL     1     -10.588   2.306  73.105  1.00  0.00    -0.250 A  
HETATM   41  C   UNL     1     -10.024   2.413  71.847  1.00  0.00    -0.150 A  
HETATM   42  N   UNL     1      -9.849   3.586  71.195  1.00  0.00    -0.163 NA 
ENDBRANCH  36  37
ENDBRANCH  35  36
ENDBRANCH  34  35
ENDBRANCH  26  28
ENDBRANCH  12  26
ENDBRANCH   3   4
ENDBRANCH   2   3
TORSDOF 11
ENDMDL
MODEL       71
REMARK 921   NORMALIZED FREE ENERGY PREDICTED BY IDOCK:   -4.66 KCAL/MOL
REMARK 922        TOTAL FREE ENERGY PREDICTED BY IDOCK:   -9.41 KCAL/MOL
REMARK 923 INTER-LIGAND FREE ENERGY PREDICTED BY IDOCK:   -8.08 KCAL/MOL
REMARK 924 INTRA-LIGAND FREE ENERGY PREDICTED BY IDOCK:   -1.33 KCAL/MOL
REMARK 927      BINDING AFFINITY PREDICTED BY RF-SCORE:    0.00 PKD
ROOT
HETATM    1  C   UNL     1     -13.904   7.690  71.817  1.00  0.00    -0.432 C  
HETATM    2  C   UNL     1     -13.793   9.120  72.319  1.00  0.00    -0.463 C  
ENDROOT
BRANCH   2   3
HETATM    3  O   UNL     1     -12.429   9.507  72.256  1.00  0.00    -0.322 OA 
BRANCH   3   4
HETATM    4  C   UNL     1     -11.820   9.714  71.050  1.00  0.00    -0.347 A  
HETATM    5  C   UNL     1     -10.881   8.941  70.366  1.00  0.00    -0.236 A  
HETATM    6  C   UNL     1     -10.456  13.109  65.661  1.00  0.00    -0.282 C  
HETATM    7  C   UNL     1     -10.329   9.417  69.157  1.00  0.00    -0.221 A  
HETATM    8  C   UNL     1     -11.742  13.040  67.663  1.00  0.00    -0.366 A  
HETATM    9  C   UNL     1     -12.214  10.925  70.474  1.00  0.00    -0.459 A  
HETATM   10  C   UNL     1     -10.742  10.649  68.565  1.00  0.00    -0.252 A  
HETATM   11  N   UNL     1     -12.207  12.554  68.835  1.00  0.00    -0.086 NA 
HETATM   12  C   UNL     1     -10.253  11.196  67.315  1.00  0.00    -0.193 A  
HETATM   13  C   UNL     1     -11.715  11.397  69.269  1.00  0.00    -0.337 A  
HETATM   14  N   UNL     1     -10.248  13.747  64.714  1.00  0.00    -0.387 NA 
HETATM   15  C   UNL     1     -10.780  12.427  66.876  1.00  0.00    -0.269 A  
BRANCH   5  16
HETATM   16  N   UNL     1     -10.459   7.679  70.825  1.00  0.00    -0.208 N  
HETATM   17  C   UNL     1     -10.900   6.527  70.206  1.00  0.00    -0.279 C  
HETATM   18  H   UNL     1      -9.823   7.616  71.620  1.00  0.00     0.000 HD 
HETATM   19  O   UNL     1     -11.709   6.493  69.285  1.00  0.00    -0.250 OA 
BRANCH  17  20
HETATM   20  C   UNL     1     -10.295   5.289  70.768  1.00  0.00    -0.309 C  
HETATM   21  C   UNL     1      -9.868   4.334  69.924  1.00  0.00    -0.267 C  
BRANCH  21  22
HETATM   22  C   UNL     1      -9.177   3.047  70.268  1.00  0.00    -0.143 C  
BRANCH  22  23
HETATM   23  N   UNL     1      -7.937   2.744  69.540  1.00  0.00    -0.042 NA 
HETATM   24  C   UNL     1      -6.985   3.859  69.627  1.00  0.00    -0.042 C  
HETATM   25  C   UNL     1      -7.317   1.551  70.137  1.00  0.00    -0.033 C  
ENDBRANCH  22  23
ENDBRANCH  21  22
ENDBRANCH  17  20
ENDBRANCH   5  16
BRANCH  12  26
HETATM   26  N   UNL     1      -9.252  10.448  66.607  1.00  0.00    -0.154 NA 
HETATM   27  H   UNL     1      -8.781  10.976  65.872  1.00  0.00     0.000 HD 
BRANCH  26  28
HETATM   28  C   UNL     1      -8.800   9.116  66.739  1.00  0.00    -0.127 A  
HETATM   29 CL   UNL     1     -10.370   5.482  66.113  1.00  0.00    -0.185 Cl 
HETATM   30  C   UNL     1      -7.477   8.801  67.068  1.00  0.00    -0.091 A  
HETATM   31  C   UNL     1      -9.224   6.730  66.476  1.00  0.00    -0.162 A  
HETATM   32  C   UNL     1      -7.019   7.468  67.079  1.00  0.00    -0.083 A  
HETATM   33  C   UNL     1      -9.677   8.056  66.480  1.00  0.00    -0.297 A  
HETATM   34  C   UNL     1      -7.885   6.420  66.759  1.00  0.00    -0.104 A  
BRANCH  34  35
HETATM   35  O   UNL     1      -7.520   5.108  66.628  1.00  0.00    -0.085 OA 
BRANCH  35  36
HETATM   36  C   UNL     1      -6.828   4.696  65.449  1.00  0.00    -0.061 C  
BRANCH  36  37
HETATM   37  C   UNL     1      -7.590   3.556  64.799  1.00  0.00    -0.077 A  
HETATM   38  C   UNL     1      -7.788   3.535  63.418  1.00  0.00    -0.068 A  
HETATM   39  C   UNL     1      -8.499   2.480  62.851  1.00  0.00    -0.078 A  
HETATM   40  C   UNL     1      -8.992   1.472  63.671  1.00  0.00    -0.089 A  
HETATM   41  C   UNL     1      -8.756   1.566  65.031  1.00  0.00    -0.110 A  
HETATM   42  N   UNL     1      -8.082   2.585  65.612  1.00  0.00    -0.083 NA 
ENDBRANCH  36  37
ENDBRANCH  35  36
ENDBRANCH  34  35
ENDBRANCH  26  28
ENDBRANCH  12  26
ENDBRANCH   3   4
ENDBRANCH   2   3
TORSDOF 11
ENDMDL
MODEL       72
REMARK 921   NORMALIZED FREE ENERGY PREDICTED BY IDOCK:   -4.64 KCAL/MOL
REMARK 922        TOTAL FREE ENERGY PREDICTED BY IDOCK:   -9.38 KCAL/MOL
REMARK 923 INTER-LIGAND FREE ENERGY PREDICTED BY IDOCK:   -8.63 KCAL/MOL
REMARK 924 INTRA-LIGAND FREE ENERGY PREDICTED BY IDOCK:   -0.75 KCAL/MOL
REMARK 927      BINDING AFFINITY PREDICTED BY RF-SCORE:    0.00 PKD
ROOT
HETATM    1  C   UNL     1      -5.637   4.364  70.588  1.00  0.00    -0.012 C  
HETATM    2  C   UNL     1      -6.268   5.668  70.130  1.00  0.00    -0.026 C  
ENDROOT
BRANCH   2   3
HETATM    3  O   UNL     1      -7.073   5.395  68.993  1.00  0.00    -0.055 OA 
BRANCH   3   4
HETATM    4  C   UNL     1      -7.756   6.401  68.366  1.00  0.00    -0.104 A  
HETATM    5  C   UNL     1      -8.773   7.233  68.835  1.00  0.00    -0.128 A  
HETATM    6  C   UNL     1      -9.344  10.141  63.276  1.00  0.00    -0.294 C  
HETATM    7  C   UNL     1      -9.387   8.151  67.957  1.00  0.00    -0.144 A  
HETATM    8  C   UNL     1      -7.925   8.400  64.064  1.00  0.00    -0.151 A  
HETATM    9  C   UNL     1      -7.350   6.549  67.037  1.00  0.00    -0.079 A  
HETATM   10  C   UNL     1      -8.963   8.308  66.602  1.00  0.00    -0.179 A  
HETATM   11  N   UNL     1      -7.401   7.512  64.937  1.00  0.00    -0.074 NA 
HETATM   12  C   UNL     1      -9.514   9.246  65.644  1.00  0.00    -0.256 A  
HETATM   13  C   UNL     1      -7.911   7.469  66.164  1.00  0.00    -0.111 A  
HETATM   14  N   UNL     1      -9.591  10.787  62.343  1.00  0.00    -0.185 NA 
HETATM   15  C   UNL     1      -8.966   9.269  64.346  1.00  0.00    -0.163 A  
BRANCH   5  16
HETATM   16  N   UNL     1      -9.216   7.209  70.171  1.00  0.00    -0.155 N  
HETATM   17  C   UNL     1      -8.818   8.191  71.056  1.00  0.00    -0.143 C  
HETATM   18  H   UNL     1      -9.835   6.462  70.486  1.00  0.00     0.000 HD 
HETATM   19  O   UNL     1      -8.032   9.095  70.793  1.00  0.00    -0.139 OA 
BRANCH  17  20
HETATM   20  C   UNL     1      -9.442   8.056  72.401  1.00  0.00    -0.279 C  
HETATM   21  C   UNL     1      -9.909   6.855  72.782  1.00  0.00    -0.188 C  
BRANCH  21  22
HETATM   22  C   UNL     1     -10.514   6.483  74.105  1.00  0.00    -0.239 C  
BRANCH  22  23
HETATM   23  N   UNL     1     -10.512   5.056  74.457  1.00  0.00    -0.320 NA 
HETATM   24  C   UNL     1     -11.253   4.263  73.467  1.00  0.00    -0.272 C  
HETATM   25  C   UNL     1      -9.122   4.578  74.494  1.00  0.00    -0.106 C  
ENDBRANCH  22  23
ENDBRANCH  21  22
ENDBRANCH  17  20
ENDBRANCH   5  16
BRANCH  12  26
HETATM   26  N   UNL     1     -10.594  10.087  66.080  1.00  0.00    -0.072 NA 
HETATM   27  H   UNL     1     -11.422   9.575  66.386  1.00  0.00     0.000 HD 
BRANCH  26  28
HETATM   28  C   UNL     1     -10.722  11.492  66.164  1.00  0.00    -0.274 A  
HETATM   29 CL   UNL     1     -11.313  14.143  69.110  1.00  0.00    -0.296 Cl 
HETATM   30  C   UNL     1     -10.530  12.330  65.061  1.00  0.00    -0.322 A  
HETATM   31  C   UNL     1     -10.998  13.486  67.538  1.00  0.00    -0.268 A  
HETATM   32  C   UNL     1     -10.545  13.734  65.193  1.00  0.00    -0.385 A  
HETATM   33  C   UNL     1     -10.995  12.092  67.399  1.00  0.00    -0.311 A  
HETATM   34  C   UNL     1     -10.756  14.325  66.440  1.00  0.00    -0.297 A  
BRANCH  34  35
HETATM   35  O   UNL     1     -10.679  15.666  66.700  1.00  0.00    -0.308 OA 
BRANCH  35  36
HETATM   36  C   UNL     1      -9.548  16.398  66.228  1.00  0.00    -0.311 C  
BRANCH  36  37
HETATM   37  C   UNL     1      -9.338  17.612  67.115  1.00  0.00    -0.245 A  
HETATM   38  C   UNL     1     -10.424  18.393  67.513  1.00  0.00    -0.445 A  
HETATM   39  C   UNL     1     -10.199  19.505  68.321  1.00  0.00    -0.552 A  
HETATM   40  C   UNL     1      -8.902  19.811  68.714  1.00  0.00    -0.205 A  
HETATM   41  C   UNL     1      -7.879  18.989  68.276  1.00  0.00    -0.315 A  
HETATM   42  N   UNL     1      -8.064  17.911  67.481  1.00  0.00    -0.223 NA 
ENDBRANCH  36  37
ENDBRANCH  35  36
ENDBRANCH  34  35
ENDBRANCH  26  28
ENDBRANCH  12  26
ENDBRANCH   3   4
ENDBRANCH   2   3
TORSDOF 11
ENDMDL
MODEL       73
REMARK 921   NORMALIZED FREE ENERGY PREDICTED BY IDOCK:   -4.64 KCAL/MOL
REMARK 922        TOTAL FREE ENERGY PREDICTED BY IDOCK:   -9.38 KCAL/MOL
REMARK 923 INTER-LIGAND FREE ENERGY PREDICTED BY IDOCK:   -7.71 KCAL/MOL
REMARK 924 INTRA-LIGAND FREE ENERGY PREDICTED BY IDOCK:   -1.67 KCAL/MOL
REMARK 927      BINDING AFFINITY PREDICTED BY RF-SCORE:    0.00 PKD
ROOT
HETATM    1  C   UNL     1      -8.947   4.544  74.535  1.00  0.00    -0.110 C  
HETATM    2  C   UNL     1      -9.658   5.763  73.970  1.00  0.00    -0.153 C  
ENDROOT
BRANCH   2   3
HETATM    3  O   UNL     1      -8.731   6.485  73.173  1.00  0.00    -0.122 OA 
BRANCH   3   4
HETATM    4  C   UNL     1      -8.677   6.291  71.821  1.00  0.00    -0.133 A  
HETATM    5  C   UNL     1      -9.468   6.818  70.799  1.00  0.00    -0.165 A  
HETATM    6  C   UNL     1      -6.402   3.561  66.363  1.00  0.00    -0.032 C  
HETATM    7  C   UNL     1      -9.267   6.392  69.468  1.00  0.00    -0.144 A  
HETATM    8  C   UNL     1      -6.161   3.717  68.726  1.00  0.00    -0.028 A  
HETATM    9  C   UNL     1      -7.673   5.384  71.470  1.00  0.00    -0.105 A  
HETATM   10  C   UNL     1      -8.234   5.474  69.111  1.00  0.00    -0.095 A  
HETATM   11  N   UNL     1      -6.423   4.130  69.985  1.00  0.00    -0.031 NA 
HETATM   12  C   UNL     1      -7.937   5.009  67.770  1.00  0.00    -0.095 A  
HETATM   13  C   UNL     1      -7.432   4.978  70.166  1.00  0.00    -0.059 A  
HETATM   14  N   UNL     1      -5.961   3.053  65.416  1.00  0.00    -0.019 NA 
HETATM   15  C   UNL     1      -6.870   4.104  67.601  1.00  0.00    -0.051 A  
BRANCH   5  16
HETATM   16  N   UNL     1     -10.466   7.782  71.033  1.00  0.00    -0.203 N  
HETATM   17  C   UNL     1     -10.180   9.128  70.912  1.00  0.00    -0.282 C  
HETATM   18  H   UNL     1     -11.406   7.485  71.294  1.00  0.00     0.000 HD 
HETATM   19  O   UNL     1      -9.071   9.588  70.661  1.00  0.00    -0.245 OA 
BRANCH  17  20
HETATM   20  C   UNL     1     -11.367  10.001  71.116  1.00  0.00    -0.397 C  
HETATM   21  C   UNL     1     -11.463  11.141  70.412  1.00  0.00    -0.265 C  
BRANCH  21  22
HETATM   22  C   UNL     1     -12.592  12.131  70.414  1.00  0.00    -0.032 C  
BRANCH  22  23
HETATM   23  N   UNL     1     -12.300  13.474  69.895  1.00  0.00    -0.270 NA 
HETATM   24  C   UNL     1     -12.309  14.473  70.972  1.00  0.00    -0.347 C  
HETATM   25  C   UNL     1     -10.965  13.463  69.277  1.00  0.00    -0.109 C  
ENDBRANCH  22  23
ENDBRANCH  21  22
ENDBRANCH  17  20
ENDBRANCH   5  16
BRANCH  12  26
HETATM   26  N   UNL     1      -8.761   5.497  66.699  1.00  0.00    -0.115 NA 
HETATM   27  H   UNL     1      -9.384   4.794  66.301  1.00  0.00     0.000 HD 
BRANCH  26  28
HETATM   28  C   UNL     1      -8.868   6.770  66.095  1.00  0.00    -0.148 A  
HETATM   29 CL   UNL     1     -10.894  10.141  66.861  1.00  0.00    -0.230 Cl 
HETATM   30  C   UNL     1      -8.075   7.155  65.010  1.00  0.00    -0.119 A  
HETATM   31  C   UNL     1      -9.789   9.026  66.128  1.00  0.00    -0.278 A  
HETATM   32  C   UNL     1      -8.115   8.469  64.500  1.00  0.00    -0.158 A  
HETATM   33  C   UNL     1      -9.756   7.716  66.623  1.00  0.00    -0.283 A  
HETATM   34  C   UNL     1      -8.957   9.424  65.071  1.00  0.00    -0.211 A  
BRANCH  34  35
HETATM   35  O   UNL     1      -8.992  10.749  64.731  1.00  0.00    -0.192 OA 
BRANCH  35  36
HETATM   36  C   UNL     1      -9.890  11.177  63.707  1.00  0.00    -0.331 C  
BRANCH  36  37
HETATM   37  C   UNL     1     -10.553  12.472  64.137  1.00  0.00    -0.398 A  
HETATM   38  C   UNL     1     -11.666  12.959  63.452  1.00  0.00    -0.526 A  
HETATM   39  C   UNL     1     -12.248  14.155  63.866  1.00  0.00    -0.288 A  
HETATM   40  C   UNL     1     -11.710  14.835  64.951  1.00  0.00    -0.390 A  
HETATM   41  C   UNL     1     -10.603  14.289  65.577  1.00  0.00    -0.340 A  
HETATM   42  N   UNL     1     -10.008  13.138  65.189  1.00  0.00    -0.203 NA 
ENDBRANCH  36  37
ENDBRANCH  35  36
ENDBRANCH  34  35
ENDBRANCH  26  28
ENDBRANCH  12  26
ENDBRANCH   3   4
ENDBRANCH   2   3
TORSDOF 11
ENDMDL
MODEL       74
REMARK 921   NORMALIZED FREE ENERGY PREDICTED BY IDOCK:   -4.62 KCAL/MOL
REMARK 922        TOTAL FREE ENERGY PREDICTED BY IDOCK:   -9.35 KCAL/MOL
REMARK 923 INTER-LIGAND FREE ENERGY PREDICTED BY IDOCK:   -8.18 KCAL/MOL
REMARK 924 INTRA-LIGAND FREE ENERGY PREDICTED BY IDOCK:   -1.17 KCAL/MOL
REMARK 927      BINDING AFFINITY PREDICTED BY RF-SCORE:    0.00 PKD
ROOT
HETATM    1  C   UNL     1     -10.768  18.628  68.166  1.00  0.00    -0.185 C  
HETATM    2  C   UNL     1     -10.127  17.756  69.232  1.00  0.00    -0.135 C  
ENDROOT
BRANCH   2   3
HETATM    3  O   UNL     1     -11.160  17.069  69.923  1.00  0.00    -0.029 OA 
BRANCH   3   4
HETATM    4  C   UNL     1     -11.230  15.704  69.889  1.00  0.00    -0.331 A  
HETATM    5  C   UNL     1     -10.617  14.787  69.035  1.00  0.00    -0.248 A  
HETATM    6  C   UNL     1     -13.446   9.885  71.802  1.00  0.00    -0.353 C  
HETATM    7  C   UNL     1     -10.920  13.413  69.148  1.00  0.00    -0.213 A  
HETATM    8  C   UNL     1     -13.503  12.232  72.196  1.00  0.00    -0.327 A  
HETATM    9  C   UNL     1     -12.097  15.208  70.867  1.00  0.00    -0.388 A  
HETATM   10  C   UNL     1     -11.797  12.908  70.155  1.00  0.00    -0.319 A  
HETATM   11  N   UNL     1     -13.207  13.538  72.016  1.00  0.00    -0.419 NA 
HETATM   12  C   UNL     1     -12.138  11.514  70.363  1.00  0.00    -0.382 A  
HETATM   13  C   UNL     1     -12.383  13.860  71.023  1.00  0.00    -0.376 A  
HETATM   14  N   UNL     1     -13.864   8.871  72.180  1.00  0.00    -0.449 NA 
HETATM   15  C   UNL     1     -13.019  11.195  71.415  1.00  0.00    -0.506 A  
BRANCH   5  16
HETATM   16  N   UNL     1      -9.682  15.172  68.055  1.00  0.00    -0.208 N  
HETATM   17  C   UNL     1     -10.086  15.394  66.754  1.00  0.00    -0.262 C  
HETATM   18  H   UNL     1      -8.701  15.287  68.309  1.00  0.00     0.000 HD 
HETATM   19  O   UNL     1     -11.226  15.226  66.336  1.00  0.00    -0.315 OA 
BRANCH  17  20
HETATM   20  C   UNL     1      -8.986  15.869  65.871  1.00  0.00    -0.251 C  
HETATM   21  C   UNL     1      -7.936  16.499  66.425  1.00  0.00    -0.352 C  
BRANCH  21  22
HETATM   22  C   UNL     1      -6.699  17.002  65.738  1.00  0.00     0.643 C  
BRANCH  22  23
HETATM   23  N   UNL     1      -6.260  18.364  66.073  1.00  0.00    -0.195 NA 
HETATM   24  C   UNL     1      -6.243  19.224  64.883  1.00  0.00    -0.273 C  
HETATM   25  C   UNL     1      -7.197  18.936  67.052  1.00  0.00    -0.209 C  
ENDBRANCH  22  23
ENDBRANCH  21  22
ENDBRANCH  17  20
ENDBRANCH   5  16
BRANCH  12  26
HETATM   26  N   UNL     1     -11.559  10.547  69.472  1.00  0.00    -0.332 NA 
HETATM   27  H   UNL     1     -11.915  10.597  68.517  1.00  0.00     0.000 HD 
BRANCH  26  28
HETATM   28  C   UNL     1     -10.588   9.541  69.674  1.00  0.00    -0.228 A  
HETATM   29 CL   UNL     1     -10.653   5.584  70.306  1.00  0.00    -0.363 Cl 
HETATM   30  C   UNL     1      -9.216   9.789  69.567  1.00  0.00    -0.226 A  
HETATM   31  C   UNL     1     -10.060   7.185  70.011  1.00  0.00    -0.188 A  
HETATM   32  C   UNL     1      -8.270   8.747  69.655  1.00  0.00    -0.113 A  
HETATM   33  C   UNL     1     -10.994   8.226  69.936  1.00  0.00    -0.166 A  
HETATM   34  C   UNL     1      -8.687   7.429  69.854  1.00  0.00    -0.141 A  
BRANCH  34  35
HETATM   35  O   UNL     1      -7.869   6.333  69.842  1.00  0.00    -0.105 OA 
BRANCH  35  36
HETATM   36  C   UNL     1      -7.508   5.753  68.588  1.00  0.00    -0.085 C  
BRANCH  36  37
HETATM   37  C   UNL     1      -6.708   4.488  68.839  1.00  0.00    -0.046 A  
HETATM   38  C   UNL     1      -6.714   3.886  70.097  1.00  0.00    -0.033 A  
HETATM   39  C   UNL     1      -5.964   2.730  70.300  1.00  0.00    -0.019 A  
HETATM   40  C   UNL     1      -5.230   2.200  69.246  1.00  0.00    -0.012 A  
HETATM   41  C   UNL     1      -5.274   2.856  68.028  1.00  0.00    -0.012 A  
HETATM   42  N   UNL     1      -5.982   3.988  67.805  1.00  0.00    -0.026 NA 
ENDBRANCH  36  37
ENDBRANCH  35  36
ENDBRANCH  34  35
ENDBRANCH  26  28
ENDBRANCH  12  26
ENDBRANCH   3   4
ENDBRANCH   2   3
TORSDOF 11
ENDMDL
MODEL       75
REMARK 921   NORMALIZED FREE ENERGY PREDICTED BY IDOCK:   -4.58 KCAL/MOL
REMARK 922        TOTAL FREE ENERGY PREDICTED BY IDOCK:   -9.28 KCAL/MOL
REMARK 923 INTER-LIGAND FREE ENERGY PREDICTED BY IDOCK:   -7.51 KCAL/MOL
REMARK 924 INTRA-LIGAND FREE ENERGY PREDICTED BY IDOCK:   -1.77 KCAL/MOL
REMARK 927      BINDING AFFINITY PREDICTED BY RF-SCORE:    0.00 PKD
ROOT
HETATM    1  C   UNL     1     -12.061  14.405  64.443  1.00  0.00    -0.491 C  
HETATM    2  C   UNL     1     -10.940  13.398  64.249  1.00  0.00    -0.369 C  
ENDROOT
BRANCH   2   3
HETATM    3  O   UNL     1     -11.334  12.176  64.855  1.00  0.00    -0.315 OA 
BRANCH   3   4
HETATM    4  C   UNL     1     -10.440  11.440  65.581  1.00  0.00    -0.262 A  
HETATM    5  C   UNL     1      -9.908  11.659  66.852  1.00  0.00    -0.198 A  
HETATM    6  C   UNL     1      -6.277   6.521  66.533  1.00  0.00    -0.040 C  
HETATM    7  C   UNL     1      -8.921  10.787  67.359  1.00  0.00    -0.141 A  
HETATM    8  C   UNL     1      -7.845   7.502  65.034  1.00  0.00    -0.127 A  
HETATM    9  C   UNL     1      -9.998  10.319  64.872  1.00  0.00    -0.393 A  
HETATM   10  C   UNL     1      -8.479   9.637  66.637  1.00  0.00    -0.126 A  
HETATM   11  N   UNL     1      -8.756   8.391  64.583  1.00  0.00    -0.020 NA 
HETATM   12  C   UNL     1      -7.497   8.673  67.094  1.00  0.00    -0.088 A  
HETATM   13  C   UNL     1      -9.057   9.426  65.363  1.00  0.00    -0.226 A  
HETATM   14  N   UNL     1      -5.550   5.625  66.660  1.00  0.00    -0.016 NA 
HETATM   15  C   UNL     1      -7.186   7.589  66.249  1.00  0.00    -0.074 A  
BRANCH   5  16
HETATM   16  N   UNL     1     -10.326  12.722  67.675  1.00  0.00    -0.218 N  
HETATM   17  C   UNL     1      -9.726  13.961  67.575  1.00  0.00    -0.232 C  
HETATM   18  H   UNL     1     -11.077  12.575  68.350  1.00  0.00     0.000 HD 
HETATM   19  O   UNL     1      -8.779  14.223  66.841  1.00  0.00    -0.218 OA 
BRANCH  17  20
HETATM   20  C   UNL     1     -10.343  14.986  68.460  1.00  0.00    -0.230 C  
HETATM   21  C   UNL     1     -10.015  16.278  68.284  1.00  0.00    -0.236 C  
BRANCH  21  22
HETATM   22  C   UNL     1     -10.559  17.471  69.015  1.00  0.00    -0.146 C  
BRANCH  22  23
HETATM   23  N   UNL     1     -10.056  18.789  68.602  1.00  0.00    -0.392 NA 
HETATM   24  C   UNL     1      -8.600  18.767  68.414  1.00  0.00    -0.341 C  
HETATM   25  C   UNL     1     -10.688  19.158  67.327  1.00  0.00    -0.488 C  
ENDBRANCH  22  23
ENDBRANCH  21  22
ENDBRANCH  17  20
ENDBRANCH   5  16
BRANCH  12  26
HETATM   26  N   UNL     1      -6.896   8.894  68.380  1.00  0.00    -0.064 NA 
HETATM   27  H   UNL     1      -6.144   9.584  68.374  1.00  0.00     0.000 HD 
BRANCH  26  28
HETATM   28  C   UNL     1      -7.154   8.334  69.651  1.00  0.00    -0.056 A  
HETATM   29 CL   UNL     1     -10.025   8.713  72.420  1.00  0.00    -0.358 Cl 
HETATM   30  C   UNL     1      -6.370   7.310  70.193  1.00  0.00    -0.031 A  
HETATM   31  C   UNL     1      -8.618   8.137  71.590  1.00  0.00    -0.140 A  
HETATM   32  C   UNL     1      -6.714   6.685  71.409  1.00  0.00    -0.058 A  
HETATM   33  C   UNL     1      -8.264   8.765  70.388  1.00  0.00    -0.127 A  
HETATM   34  C   UNL     1      -7.858   7.078  72.107  1.00  0.00    -0.092 A  
BRANCH  34  35
HETATM   35  O   UNL     1      -8.345   6.467  73.230  1.00  0.00    -0.118 OA 
BRANCH  35  36
HETATM   36  C   UNL     1      -9.527   5.672  73.127  1.00  0.00    -0.146 C  
BRANCH  36  37
HETATM   37  C   UNL     1      -9.337   4.642  72.028  1.00  0.00    -0.138 A  
HETATM   38  C   UNL     1      -9.970   4.800  70.795  1.00  0.00    -0.291 A  
HETATM   39  C   UNL     1      -9.782   3.834  69.808  1.00  0.00    -0.193 A  
HETATM   40  C   UNL     1      -8.970   2.739  70.072  1.00  0.00    -0.166 A  
HETATM   41  C   UNL     1      -8.379   2.653  71.320  1.00  0.00    -0.062 A  
HETATM   42  N   UNL     1      -8.553   3.567  72.302  1.00  0.00    -0.084 NA 
ENDBRANCH  36  37
ENDBRANCH  35  36
ENDBRANCH  34  35
ENDBRANCH  26  28
ENDBRANCH  12  26
ENDBRANCH   3   4
ENDBRANCH   2   3
TORSDOF 11
ENDMDL
MODEL       76
REMARK 921   NORMALIZED FREE ENERGY PREDICTED BY IDOCK:   -4.55 KCAL/MOL
REMARK 922        TOTAL FREE ENERGY PREDICTED BY IDOCK:   -9.23 KCAL/MOL
REMARK 923 INTER-LIGAND FREE ENERGY PREDICTED BY IDOCK:   -8.93 KCAL/MOL
REMARK 924 INTRA-LIGAND FREE ENERGY PREDICTED BY IDOCK:   -0.30 KCAL/MOL
REMARK 927      BINDING AFFINITY PREDICTED BY RF-SCORE:    0.00 PKD
ROOT
HETATM    1  C   UNL     1     -10.749  18.613  68.167  1.00  0.00    -0.185 C  
HETATM    2  C   UNL     1     -10.116  17.728  69.227  1.00  0.00    -0.135 C  
ENDROOT
BRANCH   2   3
HETATM    3  O   UNL     1     -11.158  17.085  69.946  1.00  0.00    -0.029 OA 
BRANCH   3   4
HETATM    4  C   UNL     1     -11.265  15.723  69.946  1.00  0.00    -0.334 A  
HETATM    5  C   UNL     1     -10.666  14.768  69.124  1.00  0.00    -0.254 A  
HETATM    6  C   UNL     1     -13.661  10.016  71.978  1.00  0.00    -0.269 C  
HETATM    7  C   UNL     1     -11.007  13.406  69.268  1.00  0.00    -0.159 A  
HETATM    8  C   UNL     1     -13.659  12.373  72.311  1.00  0.00    -0.269 A  
HETATM    9  C   UNL     1     -12.157  15.275  70.925  1.00  0.00    -0.396 A  
HETATM   10  C   UNL     1     -11.910  12.950  70.276  1.00  0.00    -0.291 A  
HETATM   11  N   UNL     1     -13.326  13.666  72.102  1.00  0.00    -0.453 NA 
HETATM   12  C   UNL     1     -12.291  11.572  70.515  1.00  0.00    -0.342 A  
HETATM   13  C   UNL     1     -12.481  13.940  71.111  1.00  0.00    -0.372 A  
HETATM   14  N   UNL     1     -14.111   9.023  72.376  1.00  0.00    -0.466 NA 
HETATM   15  C   UNL     1     -13.194  11.304  71.563  1.00  0.00    -0.354 A  
BRANCH   5  16
HETATM   16  N   UNL     1      -9.709  15.102  68.148  1.00  0.00    -0.214 N  
HETATM   17  C   UNL     1     -10.106  15.466  66.876  1.00  0.00    -0.257 C  
HETATM   18  H   UNL     1      -8.716  15.074  68.381  1.00  0.00     0.000 HD 
HETATM   19  O   UNL     1     -11.266  15.473  66.480  1.00  0.00    -0.243 OA 
BRANCH  17  20
HETATM   20  C   UNL     1      -8.971  15.862  65.998  1.00  0.00    -0.337 C  
HETATM   21  C   UNL     1      -8.172  16.871  66.386  1.00  0.00    -0.342 C  
BRANCH  21  22
HETATM   22  C   UNL     1      -6.946  17.390  65.692  1.00  0.00     0.291 C  
BRANCH  22  23
HETATM   23  N   UNL     1      -6.879  18.839  65.457  1.00  0.00    -0.452 NA 
HETATM   24  C   UNL     1      -8.021  19.530  66.071  1.00  0.00    -0.303 C  
HETATM   25  C   UNL     1      -5.640  19.360  66.054  1.00  0.00    -0.155 C  
ENDBRANCH  22  23
ENDBRANCH  21  22
ENDBRANCH  17  20
ENDBRANCH   5  16
BRANCH  12  26
HETATM   26  N   UNL     1     -11.727  10.567  69.657  1.00  0.00    -0.356 NA 
HETATM   27  H   UNL     1     -12.099  10.576  68.707  1.00  0.00     0.000 HD 
BRANCH  26  28
HETATM   28  C   UNL     1     -10.753   9.570  69.885  1.00  0.00    -0.240 A  
HETATM   29 CL   UNL     1     -10.770   5.820  71.297  1.00  0.00    -0.317 Cl 
HETATM   30  C   UNL     1      -9.418   9.721  69.496  1.00  0.00    -0.226 A  
HETATM   31  C   UNL     1     -10.213   7.300  70.590  1.00  0.00    -0.195 A  
HETATM   32  C   UNL     1      -8.490   8.668  69.626  1.00  0.00    -0.129 A  
HETATM   33  C   UNL     1     -11.128   8.354  70.471  1.00  0.00    -0.267 A  
HETATM   34  C   UNL     1      -8.887   7.438  70.154  1.00  0.00    -0.147 A  
BRANCH  34  35
HETATM   35  O   UNL     1      -8.102   6.318  70.220  1.00  0.00    -0.112 OA 
BRANCH  35  36
HETATM   36  C   UNL     1      -8.062   5.435  69.099  1.00  0.00    -0.094 C  
BRANCH  36  37
HETATM   37  C   UNL     1      -7.986   6.255  67.824  1.00  0.00    -0.114 A  
HETATM   38  C   UNL     1      -9.095   6.363  66.985  1.00  0.00    -0.130 A  
HETATM   39  C   UNL     1      -8.993   7.117  65.818  1.00  0.00    -0.043 A  
HETATM   40  C   UNL     1      -7.792   7.746  65.517  1.00  0.00    -0.111 A  
HETATM   41  C   UNL     1      -6.737   7.590  66.397  1.00  0.00    -0.057 A  
HETATM   42  N   UNL     1      -6.802   6.853  67.531  1.00  0.00    -0.074 NA 
ENDBRANCH  36  37
ENDBRANCH  35  36
ENDBRANCH  34  35
ENDBRANCH  26  28
ENDBRANCH  12  26
ENDBRANCH   3   4
ENDBRANCH   2   3
TORSDOF 11
ENDMDL
MODEL       77
REMARK 921   NORMALIZED FREE ENERGY PREDICTED BY IDOCK:   -4.47 KCAL/MOL
REMARK 922        TOTAL FREE ENERGY PREDICTED BY IDOCK:   -9.11 KCAL/MOL
REMARK 923 INTER-LIGAND FREE ENERGY PREDICTED BY IDOCK:   -8.07 KCAL/MOL
REMARK 924 INTRA-LIGAND FREE ENERGY PREDICTED BY IDOCK:   -1.04 KCAL/MOL
REMARK 927      BINDING AFFINITY PREDICTED BY RF-SCORE:    0.00 PKD
ROOT
HETATM    1  C   UNL     1      -7.094   9.011  71.199  1.00  0.00    -0.107 C  
HETATM    2  C   UNL     1      -5.907   9.888  71.563  1.00  0.00     0.045 C  
ENDROOT
BRANCH   2   3
HETATM    3  O   UNL     1      -5.356  10.408  70.363  1.00  0.00    -0.045 OA 
BRANCH   3   4
HETATM    4  C   UNL     1      -5.821  11.581  69.835  1.00  0.00    -0.121 A  
HETATM    5  C   UNL     1      -6.617  11.816  68.714  1.00  0.00    -0.074 A  
HETATM    6  C   UNL     1      -6.352  18.063  69.485  1.00  0.00    -0.215 C  
HETATM    7  C   UNL     1      -6.894  13.142  68.318  1.00  0.00    -0.103 A  
HETATM    8  C   UNL     1      -5.438  16.233  70.702  1.00  0.00    -0.106 A  
HETATM    9  C   UNL     1      -5.365  12.688  70.557  1.00  0.00    -0.143 A  
HETATM   10  C   UNL     1      -6.436  14.270  69.063  1.00  0.00    -0.100 A  
HETATM   11  N   UNL     1      -5.171  14.945  71.011  1.00  0.00    -0.130 NA 
HETATM   12  C   UNL     1      -6.701  15.661  68.748  1.00  0.00    -0.116 A  
HETATM   13  C   UNL     1      -5.654  13.999  70.211  1.00  0.00    -0.125 A  
HETATM   14  N   UNL     1      -6.422  19.222  69.464  1.00  0.00    -0.306 NA 
HETATM   15  C   UNL     1      -6.173  16.649  69.603  1.00  0.00    -0.226 A  
BRANCH   5  16
HETATM   16  N   UNL     1      -7.178  10.775  67.951  1.00  0.00    -0.086 N  
HETATM   17  C   UNL     1      -6.474  10.223  66.899  1.00  0.00    -0.071 C  
HETATM   18  H   UNL     1      -8.109  10.427  68.176  1.00  0.00     0.000 HD 
HETATM   19  O   UNL     1      -5.377  10.608  66.511  1.00  0.00    -0.048 OA 
BRANCH  17  20
HETATM   20  C   UNL     1      -7.182   9.083  66.253  1.00  0.00    -0.090 C  
HETATM   21  C   UNL     1      -7.595   8.059  67.019  1.00  0.00    -0.096 C  
BRANCH  21  22
HETATM   22  C   UNL     1      -8.374   6.849  66.591  1.00  0.00    -0.118 C  
BRANCH  22  23
HETATM   23  N   UNL     1      -9.589   6.536  67.358  1.00  0.00    -0.122 NA 
HETATM   24  C   UNL     1     -10.463   7.711  67.471  1.00  0.00    -0.266 C  
HETATM   25  C   UNL     1     -10.325   5.469  66.664  1.00  0.00    -0.269 C  
ENDBRANCH  22  23
ENDBRANCH  21  22
ENDBRANCH  17  20
ENDBRANCH   5  16
BRANCH  12  26
HETATM   26  N   UNL     1      -7.480  15.941  67.574  1.00  0.00    -0.151 NA 
HETATM   27  H   UNL     1      -7.042  16.604  66.934  1.00  0.00     0.000 HD 
BRANCH  26  28
HETATM   28  C   UNL     1      -8.739  15.467  67.141  1.00  0.00    -0.211 A  
HETATM   29 CL   UNL     1     -11.952  13.851  68.908  1.00  0.00    -0.387 Cl 
HETATM   30  C   UNL     1      -9.178  15.602  65.821  1.00  0.00    -0.247 A  
HETATM   31  C   UNL     1     -10.920  14.530  67.693  1.00  0.00    -0.288 A  
HETATM   32  C   UNL     1     -10.483  15.230  65.438  1.00  0.00    -0.422 A  
HETATM   33  C   UNL     1      -9.618  14.889  68.065  1.00  0.00    -0.207 A  
HETATM   34  C   UNL     1     -11.375  14.712  66.379  1.00  0.00    -0.348 A  
BRANCH  34  35
HETATM   35  O   UNL     1     -12.692  14.426  66.143  1.00  0.00    -0.334 OA 
BRANCH  35  36
HETATM   36  C   UNL     1     -13.024  13.483  65.123  1.00  0.00    -0.201 C  
BRANCH  36  37
HETATM   37  C   UNL     1     -11.904  12.465  65.006  1.00  0.00    -0.388 A  
HETATM   38  C   UNL     1     -11.201  12.322  63.810  1.00  0.00    -0.510 A  
HETATM   39  C   UNL     1     -10.183  11.373  63.731  1.00  0.00    -0.433 A  
HETATM   40  C   UNL     1      -9.889  10.595  64.843  1.00  0.00    -0.363 A  
HETATM   41  C   UNL     1     -10.633  10.795  65.992  1.00  0.00    -0.156 A  
HETATM   42  N   UNL     1     -11.636  11.698  66.095  1.00  0.00    -0.382 NA 
ENDBRANCH  36  37
ENDBRANCH  35  36
ENDBRANCH  34  35
ENDBRANCH  26  28
ENDBRANCH  12  26
ENDBRANCH   3   4
ENDBRANCH   2   3
TORSDOF 11
ENDMDL
MODEL       78
REMARK 921   NORMALIZED FREE ENERGY PREDICTED BY IDOCK:   -4.42 KCAL/MOL
REMARK 922        TOTAL FREE ENERGY PREDICTED BY IDOCK:   -9.02 KCAL/MOL
REMARK 923 INTER-LIGAND FREE ENERGY PREDICTED BY IDOCK:   -7.66 KCAL/MOL
REMARK 924 INTRA-LIGAND FREE ENERGY PREDICTED BY IDOCK:   -1.35 KCAL/MOL
REMARK 927      BINDING AFFINITY PREDICTED BY RF-SCORE:    0.00 PKD
ROOT
HETATM    1  C   UNL     1     -12.248  12.807  64.714  1.00  0.00    -0.517 C  
HETATM    2  C   UNL     1     -12.754  14.071  65.388  1.00  0.00    -0.471 C  
ENDROOT
BRANCH   2   3
HETATM    3  O   UNL     1     -12.209  14.123  66.697  1.00  0.00    -0.448 OA 
BRANCH   3   4
HETATM    4  C   UNL     1     -11.019  14.755  66.931  1.00  0.00    -0.328 A  
HETATM    5  C   UNL     1      -9.760  14.233  67.227  1.00  0.00    -0.234 A  
HETATM    6  C   UNL     1      -7.198  19.963  67.768  1.00  0.00    -0.278 C  
HETATM    7  C   UNL     1      -8.689  15.107  67.516  1.00  0.00    -0.188 A  
HETATM    8  C   UNL     1      -9.394  19.205  67.250  1.00  0.00    -0.301 A  
HETATM    9  C   UNL     1     -11.157  16.146  66.886  1.00  0.00     0.011 A  
HETATM   10  C   UNL     1      -8.830  16.527  67.458  1.00  0.00    -0.198 A  
HETATM   11  N   UNL     1     -10.391  18.322  67.022  1.00  0.00    -0.374 NA 
HETATM   12  C   UNL     1      -7.780  17.495  67.707  1.00  0.00    -0.205 A  
HETATM   13  C   UNL     1     -10.113  17.026  67.128  1.00  0.00    -0.292 A  
HETATM   14  N   UNL     1      -6.555  20.920  67.905  1.00  0.00    -0.322 NA 
HETATM   15  C   UNL     1      -8.097  18.864  67.598  1.00  0.00    -0.278 A  
BRANCH   5  16
HETATM   16  N   UNL     1      -9.496  12.851  67.240  1.00  0.00    -0.209 N  
HETATM   17  C   UNL     1     -10.091  12.035  68.182  1.00  0.00    -0.200 C  
HETATM   18  H   UNL     1      -8.862  12.450  66.549  1.00  0.00     0.000 HD 
HETATM   19  O   UNL     1     -10.818  12.427  69.088  1.00  0.00    -0.197 OA 
BRANCH  17  20
HETATM   20  C   UNL     1      -9.764  10.594  68.001  1.00  0.00    -0.170 C  
HETATM   21  C   UNL     1      -9.943   9.754  69.034  1.00  0.00    -0.189 C  
BRANCH  21  22
HETATM   22  C   UNL     1      -9.739   8.267  69.054  1.00  0.00    -0.167 C  
BRANCH  22  23
HETATM   23  N   UNL     1     -10.559   7.471  68.130  1.00  0.00    -0.179 NA 
HETATM   24  C   UNL     1      -9.777   7.039  66.963  1.00  0.00    -0.167 C  
HETATM   25  C   UNL     1     -11.046   6.277  68.836  1.00  0.00    -0.362 C  
ENDBRANCH  22  23
ENDBRANCH  21  22
ENDBRANCH  17  20
ENDBRANCH   5  16
BRANCH  12  26
HETATM   26  N   UNL     1      -6.481  16.992  68.059  1.00  0.00    -0.142 NA 
HETATM   27  H   UNL     1      -5.731  17.678  67.965  1.00  0.00     0.000 HD 
BRANCH  26  28
HETATM   28  C   UNL     1      -6.050  15.725  68.512  1.00  0.00    -0.102 A  
HETATM   29 CL   UNL     1      -5.723  13.914  72.071  1.00  0.00    -0.190 Cl 
HETATM   30  C   UNL     1      -5.707  14.691  67.634  1.00  0.00    -0.002 A  
HETATM   31  C   UNL     1      -5.716  14.169  70.358  1.00  0.00    -0.145 A  
HETATM   32  C   UNL     1      -5.394  13.400  68.106  1.00  0.00    -0.105 A  
HETATM   33  C   UNL     1      -6.012  15.454  69.885  1.00  0.00    -0.146 A  
HETATM   34  C   UNL     1      -5.419  13.121  69.473  1.00  0.00    -0.083 A  
BRANCH  34  35
HETATM   35  O   UNL     1      -5.245  11.883  70.029  1.00  0.00    -0.073 OA 
BRANCH  35  36
HETATM   36  C   UNL     1      -6.378  11.027  70.180  1.00  0.00    -0.147 C  
BRANCH  36  37
HETATM   37  C   UNL     1      -6.243   9.854  69.225  1.00  0.00    -0.040 A  
HETATM   38  C   UNL     1      -5.795   8.616  69.686  1.00  0.00    -0.029 A  
HETATM   39  C   UNL     1      -5.674   7.560  68.786  1.00  0.00    -0.023 A  
HETATM   40  C   UNL     1      -6.002   7.762  67.451  1.00  0.00    -0.048 A  
HETATM   41  C   UNL     1      -6.437   9.020  67.071  1.00  0.00    -0.061 A  
HETATM   42  N   UNL     1      -6.551  10.067  67.920  1.00  0.00    -0.063 NA 
ENDBRANCH  36  37
ENDBRANCH  35  36
ENDBRANCH  34  35
ENDBRANCH  26  28
ENDBRANCH  12  26
ENDBRANCH   3   4
ENDBRANCH   2   3
TORSDOF 11
ENDMDL
MODEL       79
REMARK 921   NORMALIZED FREE ENERGY PREDICTED BY IDOCK:   -4.38 KCAL/MOL
REMARK 922        TOTAL FREE ENERGY PREDICTED BY IDOCK:   -8.95 KCAL/MOL
REMARK 923 INTER-LIGAND FREE ENERGY PREDICTED BY IDOCK:   -8.70 KCAL/MOL
REMARK 924 INTRA-LIGAND FREE ENERGY PREDICTED BY IDOCK:   -0.25 KCAL/MOL
REMARK 927      BINDING AFFINITY PREDICTED BY RF-SCORE:    0.00 PKD
ROOT
HETATM    1  C   UNL     1      -7.894  10.352  62.838  1.00  0.00    -0.140 C  
HETATM    2  C   UNL     1      -9.347  10.266  63.275  1.00  0.00    -0.306 C  
ENDROOT
BRANCH   2   3
HETATM    3  O   UNL     1      -9.741  11.543  63.754  1.00  0.00    -0.270 OA 
BRANCH   3   4
HETATM    4  C   UNL     1     -10.236  11.688  65.019  1.00  0.00    -0.275 A  
HETATM    5  C   UNL     1     -10.544  10.730  65.986  1.00  0.00    -0.156 A  
HETATM    6  C   UNL     1     -12.620  15.080  70.043  1.00  0.00    -0.217 C  
HETATM    7  C   UNL     1     -11.134  11.129  67.205  1.00  0.00    -0.366 A  
HETATM    8  C   UNL     1     -11.712  15.205  67.847  1.00  0.00    -0.256 A  
HETATM    9  C   UNL     1     -10.487  13.029  65.325  1.00  0.00    -0.318 A  
HETATM   10  C   UNL     1     -11.379  12.501  67.518  1.00  0.00    -0.368 A  
HETATM   11  N   UNL     1     -11.187  14.762  66.683  1.00  0.00    -0.341 NA 
HETATM   12  C   UNL     1     -11.949  13.001  68.754  1.00  0.00    -0.266 A  
HETATM   13  C   UNL     1     -11.031  13.450  66.528  1.00  0.00    -0.290 A  
HETATM   14  N   UNL     1     -13.035  15.726  70.914  1.00  0.00    -0.495 NA 
HETATM   15  C   UNL     1     -12.113  14.393  68.895  1.00  0.00    -0.288 A  
BRANCH   5  16
HETATM   16  N   UNL     1     -10.277   9.360  65.807  1.00  0.00    -0.289 N  
HETATM   17  C   UNL     1      -9.209   8.767  66.451  1.00  0.00    -0.189 C  
HETATM   18  H   UNL     1     -10.876   8.802  65.199  1.00  0.00     0.000 HD 
HETATM   19  O   UNL     1      -8.397   9.359  67.153  1.00  0.00    -0.122 OA 
BRANCH  17  20
HETATM   20  C   UNL     1      -9.121   7.300  66.212  1.00  0.00    -0.186 C  
HETATM   21  C   UNL     1     -10.195   6.535  66.472  1.00  0.00    -0.134 C  
BRANCH  21  22
HETATM   22  C   UNL     1     -10.347   5.059  66.249  1.00  0.00    -0.291 C  
BRANCH  22  23
HETATM   23  N   UNL     1      -9.624   4.482  65.106  1.00  0.00    -0.168 NA 
HETATM   24  C   UNL     1      -8.650   3.476  65.547  1.00  0.00    -0.114 C  
HETATM   25  C   UNL     1     -10.594   3.834  64.210  1.00  0.00    -0.228 C  
ENDBRANCH  22  23
ENDBRANCH  21  22
ENDBRANCH  17  20
ENDBRANCH   5  16
BRANCH  12  26
HETATM   26  N   UNL     1     -12.319  12.038  69.754  1.00  0.00    -0.115 NA 
HETATM   27  H   UNL     1     -13.150  12.293  70.288  1.00  0.00     0.000 HD 
BRANCH  26  28
HETATM   28  C   UNL     1     -11.746  10.804  70.134  1.00  0.00    -0.339 A  
HETATM   29 CL   UNL     1      -8.022   9.381  70.541  1.00  0.00    -0.184 Cl 
HETATM   30  C   UNL     1     -12.512   9.733  70.605  1.00  0.00    -0.220 A  
HETATM   31  C   UNL     1      -9.751   9.481  70.592  1.00  0.00    -0.245 A  
HETATM   32  C   UNL     1     -11.910   8.554  71.089  1.00  0.00    -0.322 A  
HETATM   33  C   UNL     1     -10.355  10.645  70.099  1.00  0.00     0.129 A  
HETATM   34  C   UNL     1     -10.520   8.427  71.109  1.00  0.00    -0.212 A  
BRANCH  34  35
HETATM   35  O   UNL     1      -9.831   7.380  71.660  1.00  0.00    -0.166 OA 
BRANCH  35  36
HETATM   36  C   UNL     1     -10.549   6.209  72.050  1.00  0.00    -0.218 C  
BRANCH  36  37
HETATM   37  C   UNL     1      -9.641   5.329  72.890  1.00  0.00    -0.144 A  
HETATM   38  C   UNL     1     -10.082   4.084  73.338  1.00  0.00    -0.196 A  
HETATM   39  C   UNL     1      -9.230   3.301  74.114  1.00  0.00    -0.102 A  
HETATM   40  C   UNL     1      -7.960   3.776  74.421  1.00  0.00    -0.081 A  
HETATM   41  C   UNL     1      -7.598   5.021  73.941  1.00  0.00    -0.091 A  
HETATM   42  N   UNL     1      -8.408   5.810  73.198  1.00  0.00    -0.117 NA 
ENDBRANCH  36  37
ENDBRANCH  35  36
ENDBRANCH  34  35
ENDBRANCH  26  28
ENDBRANCH  12  26
ENDBRANCH   3   4
ENDBRANCH   2   3
TORSDOF 11
ENDMDL
MODEL       80
REMARK 921   NORMALIZED FREE ENERGY PREDICTED BY IDOCK:   -4.36 KCAL/MOL
REMARK 922        TOTAL FREE ENERGY PREDICTED BY IDOCK:   -8.93 KCAL/MOL
REMARK 923 INTER-LIGAND FREE ENERGY PREDICTED BY IDOCK:   -6.53 KCAL/MOL
REMARK 924 INTRA-LIGAND FREE ENERGY PREDICTED BY IDOCK:   -2.39 KCAL/MOL
REMARK 927      BINDING AFFINITY PREDICTED BY RF-SCORE:    0.00 PKD
ROOT
HETATM    1  C   UNL     1     -11.925  12.007  63.823  1.00  0.00    -0.588 C  
HETATM    2  C   UNL     1     -12.329  12.757  65.081  1.00  0.00    -0.496 C  
ENDROOT
BRANCH   2   3
HETATM    3  O   UNL     1     -11.926  11.988  66.204  1.00  0.00    -0.581 OA 
BRANCH   3   4
HETATM    4  C   UNL     1     -10.693  12.169  66.765  1.00  0.00    -0.234 A  
HETATM    5  C   UNL     1      -9.617  11.289  66.888  1.00  0.00    -0.191 A  
HETATM    6  C   UNL     1      -6.153  15.517  70.021  1.00  0.00    -0.148 C  
HETATM    7  C   UNL     1      -8.463  11.689  67.596  1.00  0.00    -0.142 A  
HETATM    8  C   UNL     1      -8.340  15.579  69.083  1.00  0.00    -0.253 A  
HETATM    9  C   UNL     1     -10.560  13.446  67.317  1.00  0.00    -0.256 A  
HETATM   10  C   UNL     1      -8.326  12.998  68.149  1.00  0.00    -0.164 A  
HETATM   11  N   UNL     1      -9.435  15.129  68.431  1.00  0.00    -0.202 NA 
HETATM   12  C   UNL     1      -7.167  13.502  68.860  1.00  0.00    -0.070 A  
HETATM   13  C   UNL     1      -9.423  13.876  67.984  1.00  0.00    -0.208 A  
HETATM   14  N   UNL     1      -5.374  16.153  70.600  1.00  0.00    -0.169 NA 
HETATM   15  C   UNL     1      -7.203  14.829  69.334  1.00  0.00    -0.168 A  
BRANCH   5  16
HETATM   16  N   UNL     1      -9.621  10.002  66.319  1.00  0.00    -0.189 N  
HETATM   17  C   UNL     1      -8.968   9.764  65.125  1.00  0.00    -0.197 C  
HETATM   18  H   UNL     1     -10.109   9.241  66.790  1.00  0.00     0.000 HD 
HETATM   19  O   UNL     1      -8.405  10.621  64.453  1.00  0.00    -0.136 OA 
BRANCH  17  20
HETATM   20  C   UNL     1      -9.007   8.336  64.710  1.00  0.00     0.274 C  
HETATM   21  C   UNL     1      -8.117   7.481  65.243  1.00  0.00    -0.130 C  
BRANCH  21  22
HETATM   22  C   UNL     1      -8.017   6.000  65.016  1.00  0.00    -0.125 C  
BRANCH  22  23
HETATM   23  N   UNL     1      -7.001   5.543  64.057  1.00  0.00    -0.046 NA 
HETATM   24  C   UNL     1      -7.545   5.486  62.694  1.00  0.00    -0.067 C  
HETATM   25  C   UNL     1      -5.874   6.487  64.074  1.00  0.00    -0.030 C  
ENDBRANCH  22  23
ENDBRANCH  21  22
ENDBRANCH  17  20
ENDBRANCH   5  16
BRANCH  12  26
HETATM   26  N   UNL     1      -6.058  12.608  69.045  1.00  0.00    -0.079 NA 
HETATM   27  H   UNL     1      -5.147  13.066  69.021  1.00  0.00     0.000 HD 
BRANCH  26  28
HETATM   28  C   UNL     1      -5.996  11.212  69.253  1.00  0.00    -0.048 A  
HETATM   29 CL   UNL     1      -7.727   8.611  71.762  1.00  0.00    -0.149 Cl 
HETATM   30  C   UNL     1      -5.277  10.358  68.410  1.00  0.00    -0.034 A  
HETATM   31  C   UNL     1      -6.782   9.242  70.455  1.00  0.00    -0.073 A  
HETATM   32  C   UNL     1      -5.325   8.958  68.567  1.00  0.00    -0.037 A  
HETATM   33  C   UNL     1      -6.720  10.634  70.303  1.00  0.00    -0.099 A  
HETATM   34  C   UNL     1      -6.099   8.386  69.578  1.00  0.00    -0.036 A  
BRANCH  34  35
HETATM   35  O   UNL     1      -6.307   7.044  69.749  1.00  0.00    -0.036 OA 
BRANCH  35  36
HETATM   36  C   UNL     1      -7.009   6.319  68.738  1.00  0.00    -0.076 C  
BRANCH  36  37
HETATM   37  C   UNL     1      -8.476   6.236  69.116  1.00  0.00    -0.120 A  
HETATM   38  C   UNL     1      -9.388   7.168  68.619  1.00  0.00    -0.134 A  
HETATM   39  C   UNL     1     -10.727   7.071  68.989  1.00  0.00    -0.234 A  
HETATM   40  C   UNL     1     -11.126   6.049  69.843  1.00  0.00    -0.469 A  
HETATM   41  C   UNL     1     -10.162   5.166  70.295  1.00  0.00    -0.271 A  
HETATM   42  N   UNL     1      -8.853   5.243  69.964  1.00  0.00    -0.118 NA 
ENDBRANCH  36  37
ENDBRANCH  35  36
ENDBRANCH  34  35
ENDBRANCH  26  28
ENDBRANCH  12  26
ENDBRANCH   3   4
ENDBRANCH   2   3
TORSDOF 11
ENDMDL
MODEL       81
REMARK 921   NORMALIZED FREE ENERGY PREDICTED BY IDOCK:   -4.31 KCAL/MOL
REMARK 922        TOTAL FREE ENERGY PREDICTED BY IDOCK:   -8.84 KCAL/MOL
REMARK 923 INTER-LIGAND FREE ENERGY PREDICTED BY IDOCK:   -8.48 KCAL/MOL
REMARK 924 INTRA-LIGAND FREE ENERGY PREDICTED BY IDOCK:   -0.37 KCAL/MOL
REMARK 927      BINDING AFFINITY PREDICTED BY RF-SCORE:    0.00 PKD
ROOT
HETATM    1  C   UNL     1     -10.616  17.495  65.292  1.00  0.00     0.122 C  
HETATM    2  C   UNL     1     -11.036  16.207  64.605  1.00  0.00    -0.296 C  
ENDROOT
BRANCH   2   3
HETATM    3  O   UNL     1     -10.151  15.176  65.017  1.00  0.00    -0.334 OA 
BRANCH   3   4
HETATM    4  C   UNL     1     -10.413  14.443  66.141  1.00  0.00    -0.291 A  
HETATM    5  C   UNL     1     -10.052  13.137  66.475  1.00  0.00    -0.280 A  
HETATM    6  C   UNL     1     -13.129  13.388  71.967  1.00  0.00    -0.377 C  
HETATM    7  C   UNL     1     -10.523  12.566  67.677  1.00  0.00    -0.228 A  
HETATM    8  C   UNL     1     -12.809  14.959  70.208  1.00  0.00    -0.220 A  
HETATM    9  C   UNL     1     -11.200  15.157  67.050  1.00  0.00    -0.308 A  
HETATM   10  C   UNL     1     -11.318  13.301  68.608  1.00  0.00    -0.324 A  
HETATM   11  N   UNL     1     -12.363  15.441  69.027  1.00  0.00    -0.106 NA 
HETATM   12  C   UNL     1     -11.816  12.805  69.876  1.00  0.00    -0.301 A  
HETATM   13  C   UNL     1     -11.645  14.631  68.254  1.00  0.00    -0.326 A  
HETATM   14  N   UNL     1     -13.628  13.247  73.006  1.00  0.00    -0.341 NA 
HETATM   15  C   UNL     1     -12.583  13.675  70.676  1.00  0.00    -0.366 A  
BRANCH   5  16
HETATM   16  N   UNL     1      -9.214  12.351  65.662  1.00  0.00    -0.435 N  
HETATM   17  C   UNL     1      -9.752  11.396  64.822  1.00  0.00    -0.244 C  
HETATM   18  H   UNL     1      -8.204  12.488  65.694  1.00  0.00     0.000 HD 
HETATM   19  O   UNL     1     -10.943  11.115  64.754  1.00  0.00    -0.260 OA 
BRANCH  17  20
HETATM   20  C   UNL     1      -8.732  10.715  63.979  1.00  0.00    -0.136 C  
HETATM   21  C   UNL     1      -7.772   9.992  64.581  1.00  0.00    -0.146 C  
BRANCH  21  22
HETATM   22  C   UNL     1      -6.690   9.180  63.929  1.00  0.00    -0.089 C  
BRANCH  22  23
HETATM   23  N   UNL     1      -6.485   7.817  64.439  1.00  0.00    -0.052 NA 
HETATM   24  C   UNL     1      -7.710   7.015  64.322  1.00  0.00    -0.117 C  
HETATM   25  C   UNL     1      -5.425   7.170  63.651  1.00  0.00    -0.033 C  
ENDBRANCH  22  23
ENDBRANCH  21  22
ENDBRANCH  17  20
ENDBRANCH   5  16
BRANCH  12  26
HETATM   26  N   UNL     1     -11.501  11.448  70.231  1.00  0.00    -0.503 NA 
HETATM   27  H   UNL     1     -11.853  11.166  71.145  1.00  0.00     0.000 HD 
BRANCH  26  28
HETATM   28  C   UNL     1     -10.793  10.434  69.547  1.00  0.00    -0.255 A  
HETATM   29 CL   UNL     1      -7.552   8.201  70.297  1.00  0.00    -0.078 Cl 
HETATM   30  C   UNL     1     -11.245   9.885  68.343  1.00  0.00    -0.134 A  
HETATM   31  C   UNL     1      -8.974   8.812  69.519  1.00  0.00    -0.145 A  
HETATM   32  C   UNL     1     -10.587   8.794  67.740  1.00  0.00    -0.256 A  
HETATM   33  C   UNL     1      -9.624   9.905  70.108  1.00  0.00    -0.237 A  
HETATM   34  C   UNL     1      -9.457   8.232  68.337  1.00  0.00    -0.139 A  
BRANCH  34  35
HETATM   35  O   UNL     1      -8.811   7.107  67.901  1.00  0.00    -0.125 OA 
BRANCH  35  36
HETATM   36  C   UNL     1      -9.365   5.828  68.211  1.00  0.00    -0.117 C  
BRANCH  36  37
HETATM   37  C   UNL     1      -9.382   4.977  66.954  1.00  0.00    -0.131 A  
HETATM   38  C   UNL     1     -10.484   5.001  66.100  1.00  0.00    -0.334 A  
HETATM   39  C   UNL     1     -10.474   4.204  64.957  1.00  0.00    -0.187 A  
HETATM   40  C   UNL     1      -9.369   3.405  64.693  1.00  0.00    -0.146 A  
HETATM   41  C   UNL     1      -8.316   3.435  65.590  1.00  0.00    -0.102 A  
HETATM   42  N   UNL     1      -8.302   4.188  66.714  1.00  0.00    -0.101 NA 
ENDBRANCH  36  37
ENDBRANCH  35  36
ENDBRANCH  34  35
ENDBRANCH  26  28
ENDBRANCH  12  26
ENDBRANCH   3   4
ENDBRANCH   2   3
TORSDOF 11
ENDMDL
MODEL       82
REMARK 921   NORMALIZED FREE ENERGY PREDICTED BY IDOCK:   -4.27 KCAL/MOL
REMARK 922        TOTAL FREE ENERGY PREDICTED BY IDOCK:   -8.78 KCAL/MOL
REMARK 923 INTER-LIGAND FREE ENERGY PREDICTED BY IDOCK:   -8.92 KCAL/MOL
REMARK 924 INTRA-LIGAND FREE ENERGY PREDICTED BY IDOCK:    0.14 KCAL/MOL
REMARK 927      BINDING AFFINITY PREDICTED BY RF-SCORE:    0.00 PKD
ROOT
HETATM    1  C   UNL     1      -5.388   8.266  64.889  1.00  0.00    -0.036 C  
HETATM    2  C   UNL     1      -6.303   7.090  64.592  1.00  0.00    -0.037 C  
ENDROOT
BRANCH   2   3
HETATM    3  O   UNL     1      -7.472   7.589  63.958  1.00  0.00    -0.088 OA 
BRANCH   3   4
HETATM    4  C   UNL     1      -8.353   8.376  64.644  1.00  0.00    -0.127 A  
HETATM    5  C   UNL     1      -8.912   8.216  65.912  1.00  0.00    -0.151 A  
HETATM    6  C   UNL     1     -12.370  13.454  65.361  1.00  0.00    -0.477 C  
HETATM    7  C   UNL     1      -9.879   9.136  66.373  1.00  0.00    -0.350 A  
HETATM    8  C   UNL     1     -10.811  12.374  63.923  1.00  0.00    -0.420 A  
HETATM    9  C   UNL     1      -8.748   9.487  63.891  1.00  0.00    -0.238 A  
HETATM   10  C   UNL     1     -10.272  10.275  65.606  1.00  0.00    -0.301 A  
HETATM   11  N   UNL     1      -9.921  11.442  63.517  1.00  0.00    -0.348 NA 
HETATM   12  C   UNL     1     -11.230  11.284  66.014  1.00  0.00    -0.041 A  
HETATM   13  C   UNL     1      -9.667  10.424  64.335  1.00  0.00    -0.333 A  
HETATM   14  N   UNL     1     -13.071  14.375  65.446  1.00  0.00    -0.544 NA 
HETATM   15  C   UNL     1     -11.492  12.348  65.129  1.00  0.00    -0.379 A  
BRANCH   5  16
HETATM   16  N   UNL     1      -8.542   7.169  66.777  1.00  0.00    -0.120 N  
HETATM   17  C   UNL     1      -9.420   6.135  67.037  1.00  0.00    -0.129 C  
HETATM   18  H   UNL     1      -7.621   7.175  67.213  1.00  0.00     0.000 HD 
HETATM   19  O   UNL     1     -10.567   6.067  66.611  1.00  0.00    -0.256 OA 
BRANCH  17  20
HETATM   20  C   UNL     1      -8.838   5.077  67.907  1.00  0.00    -0.107 C  
HETATM   21  C   UNL     1      -9.496   3.913  68.040  1.00  0.00    -0.221 C  
BRANCH  21  22
HETATM   22  C   UNL     1      -9.066   2.697  68.809  1.00  0.00    -0.151 C  
BRANCH  22  23
HETATM   23  N   UNL     1      -8.984   2.831  70.271  1.00  0.00    -0.087 NA 
HETATM   24  C   UNL     1      -9.769   3.978  70.744  1.00  0.00    -0.193 C  
HETATM   25  C   UNL     1      -9.519   1.608  70.889  1.00  0.00    -0.122 C  
ENDBRANCH  22  23
ENDBRANCH  21  22
ENDBRANCH  17  20
ENDBRANCH   5  16
BRANCH  12  26
HETATM   26  N   UNL     1     -11.859  11.125  67.296  1.00  0.00    -0.444 NA 
HETATM   27  H   UNL     1     -12.851  11.361  67.304  1.00  0.00     0.000 HD 
BRANCH  26  28
HETATM   28  C   UNL     1     -11.357  10.702  68.548  1.00  0.00    -0.284 A  
HETATM   29 CL   UNL     1     -12.957   9.661  72.070  1.00  0.00    -0.503 Cl 
HETATM   30  C   UNL     1     -10.001  10.438  68.762  1.00  0.00    -0.196 A  
HETATM   31  C   UNL     1     -11.790   9.935  70.820  1.00  0.00    -0.330 A  
HETATM   32  C   UNL     1      -9.539   9.904  69.983  1.00  0.00    -0.260 A  
HETATM   33  C   UNL     1     -12.241  10.478  69.610  1.00  0.00    -0.208 A  
HETATM   34  C   UNL     1     -10.436   9.626  71.016  1.00  0.00    -0.257 A  
BRANCH  34  35
HETATM   35  O   UNL     1     -10.115   9.005  72.193  1.00  0.00    -0.296 OA 
BRANCH  35  36
HETATM   36  C   UNL     1      -9.891   7.595  72.192  1.00  0.00    -0.178 C  
BRANCH  36  37
HETATM   37  C   UNL     1      -8.651   7.289  73.012  1.00  0.00    -0.124 A  
HETATM   38  C   UNL     1      -7.682   8.272  73.220  1.00  0.00    -0.182 A  
HETATM   39  C   UNL     1      -6.550   7.960  73.970  1.00  0.00    -0.116 A  
HETATM   40  C   UNL     1      -6.411   6.681  74.495  1.00  0.00    -0.080 A  
HETATM   41  C   UNL     1      -7.414   5.762  74.243  1.00  0.00    -0.088 A  
HETATM   42  N   UNL     1      -8.517   6.031  73.507  1.00  0.00    -0.119 NA 
ENDBRANCH  36  37
ENDBRANCH  35  36
ENDBRANCH  34  35
ENDBRANCH  26  28
ENDBRANCH  12  26
ENDBRANCH   3   4
ENDBRANCH   2   3
TORSDOF 11
ENDMDL
MODEL       83
REMARK 921   NORMALIZED FREE ENERGY PREDICTED BY IDOCK:   -4.27 KCAL/MOL
REMARK 922        TOTAL FREE ENERGY PREDICTED BY IDOCK:   -8.77 KCAL/MOL
REMARK 923 INTER-LIGAND FREE ENERGY PREDICTED BY IDOCK:   -6.64 KCAL/MOL
REMARK 924 INTRA-LIGAND FREE ENERGY PREDICTED BY IDOCK:   -2.12 KCAL/MOL
REMARK 927      BINDING AFFINITY PREDICTED BY RF-SCORE:    0.00 PKD
ROOT
HETATM    1  C   UNL     1      -6.434   9.489  63.323  1.00  0.00    -0.101 C  
HETATM    2  C   UNL     1      -6.039  10.116  64.650  1.00  0.00    -0.128 C  
ENDROOT
BRANCH   2   3
HETATM    3  O   UNL     1      -6.266   9.162  65.676  1.00  0.00    -0.055 OA 
BRANCH   3   4
HETATM    4  C   UNL     1      -7.328   9.294  66.527  1.00  0.00    -0.092 A  
HETATM    5  C   UNL     1      -8.093   8.325  67.176  1.00  0.00    -0.108 A  
HETATM    6  C   UNL     1     -11.860  12.645  69.791  1.00  0.00    -0.309 C  
HETATM    7  C   UNL     1      -9.209   8.715  67.947  1.00  0.00    -0.148 A  
HETATM    8  C   UNL     1      -9.970  12.791  68.352  1.00  0.00    -0.210 A  
HETATM    9  C   UNL     1      -7.677  10.635  66.711  1.00  0.00    -0.127 A  
HETATM   10  C   UNL     1      -9.558  10.086  68.142  1.00  0.00    -0.152 A  
HETATM   11  N   UNL     1      -8.938  12.358  67.594  1.00  0.00    -0.174 NA 
HETATM   12  C   UNL     1     -10.663  10.575  68.942  1.00  0.00    -0.220 A  
HETATM   13  C   UNL     1      -8.746  11.046  67.493  1.00  0.00    -0.128 A  
HETATM   14  N   UNL     1     -12.646  13.283  70.358  1.00  0.00    -0.198 NA 
HETATM   15  C   UNL     1     -10.855  11.969  69.029  1.00  0.00    -0.223 A  
BRANCH   5  16
HETATM   16  N   UNL     1      -7.793   6.951  67.108  1.00  0.00    -0.107 N  
HETATM   17  C   UNL     1      -8.032   6.241  65.948  1.00  0.00    -0.116 C  
HETATM   18  H   UNL     1      -7.398   6.478  67.920  1.00  0.00     0.000 HD 
HETATM   19  O   UNL     1      -8.557   6.702  64.940  1.00  0.00    -0.021 OA 
BRANCH  17  20
HETATM   20  C   UNL     1      -7.584   4.824  66.025  1.00  0.00    -0.090 C  
HETATM   21  C   UNL     1      -6.490   4.528  66.748  1.00  0.00    -0.041 C  
BRANCH  21  22
HETATM   22  C   UNL     1      -5.902   3.171  67.010  1.00  0.00    -0.023 C  
BRANCH  22  23
HETATM   23  N   UNL     1      -5.992   2.664  68.387  1.00  0.00    -0.024 NA 
HETATM   24  C   UNL     1      -6.166   3.761  69.347  1.00  0.00    -0.028 C  
HETATM   25  C   UNL     1      -7.153   1.766  68.485  1.00  0.00    -0.039 C  
ENDBRANCH  22  23
ENDBRANCH  21  22
ENDBRANCH  17  20
ENDBRANCH   5  16
BRANCH  12  26
HETATM   26  N   UNL     1     -11.500   9.602  69.588  1.00  0.00    -0.437 NA 
HETATM   27  H   UNL     1     -12.462   9.592  69.249  1.00  0.00     0.000 HD 
BRANCH  26  28
HETATM   28  C   UNL     1     -11.237   8.657  70.604  1.00  0.00    -0.252 A  
HETATM   29 CL   UNL     1      -8.582   8.323  73.587  1.00  0.00    -0.305 Cl 
HETATM   30  C   UNL     1     -12.062   7.551  70.832  1.00  0.00    -0.254 A  
HETATM   31  C   UNL     1      -9.937   7.997  72.557  1.00  0.00    -0.270 A  
HETATM   32  C   UNL     1     -11.847   6.686  71.925  1.00  0.00    -0.375 A  
HETATM   33  C   UNL     1     -10.146   8.845  71.462  1.00  0.00    -0.394 A  
HETATM   34  C   UNL     1     -10.794   6.917  72.813  1.00  0.00    -0.272 A  
BRANCH  34  35
HETATM   35  O   UNL     1     -10.564   6.212  73.963  1.00  0.00    -0.272 OA 
BRANCH  35  36
HETATM   36  C   UNL     1     -10.903   4.826  74.005  1.00  0.00    -0.258 C  
BRANCH  36  37
HETATM   37  C   UNL     1      -9.778   4.022  73.380  1.00  0.00    -0.114 A  
HETATM   38  C   UNL     1     -10.000   3.279  72.220  1.00  0.00    -0.235 A  
HETATM   39  C   UNL     1      -8.950   2.544  71.674  1.00  0.00    -0.139 A  
HETATM   40  C   UNL     1      -7.706   2.569  72.293  1.00  0.00    -0.053 A  
HETATM   41  C   UNL     1      -7.567   3.328  73.441  1.00  0.00    -0.057 A  
HETATM   42  N   UNL     1      -8.571   4.040  74.003  1.00  0.00    -0.093 NA 
ENDBRANCH  36  37
ENDBRANCH  35  36
ENDBRANCH  34  35
ENDBRANCH  26  28
ENDBRANCH  12  26
ENDBRANCH   3   4
ENDBRANCH   2   3
TORSDOF 11
ENDMDL
MODEL       84
REMARK 921   NORMALIZED FREE ENERGY PREDICTED BY IDOCK:   -4.26 KCAL/MOL
REMARK 922        TOTAL FREE ENERGY PREDICTED BY IDOCK:   -8.76 KCAL/MOL
REMARK 923 INTER-LIGAND FREE ENERGY PREDICTED BY IDOCK:   -7.63 KCAL/MOL
REMARK 924 INTRA-LIGAND FREE ENERGY PREDICTED BY IDOCK:   -1.13 KCAL/MOL
REMARK 927      BINDING AFFINITY PREDICTED BY RF-SCORE:    0.00 PKD
ROOT
HETATM    1  C   UNL     1      -9.547  15.143  65.939  1.00  0.00    -0.373 C  
HETATM    2  C   UNL     1     -10.576  14.880  64.853  1.00  0.00    -0.391 C  
ENDROOT
BRANCH   2   3
HETATM    3  O   UNL     1     -11.413  13.817  65.285  1.00  0.00    -0.303 OA 
BRANCH   3   4
HETATM    4  C   UNL     1     -10.940  12.535  65.331  1.00  0.00    -0.294 A  
HETATM    5  C   UNL     1     -11.039  11.569  66.333  1.00  0.00    -0.269 A  
HETATM    6  C   UNL     1      -7.644   7.402  63.048  1.00  0.00    -0.114 C  
HETATM    7  C   UNL     1     -10.384  10.329  66.177  1.00  0.00    -0.253 A  
HETATM    8  C   UNL     1      -8.369   9.625  62.600  1.00  0.00    -0.159 A  
HETATM    9  C   UNL     1     -10.224  12.207  64.176  1.00  0.00    -0.370 A  
HETATM   10  C   UNL     1      -9.663   9.993  64.992  1.00  0.00    -0.386 A  
HETATM   11  N   UNL     1      -8.981  10.809  62.820  1.00  0.00    -0.255 NA 
HETATM   12  C   UNL     1      -8.990   8.735  64.735  1.00  0.00     0.037 A  
HETATM   13  C   UNL     1      -9.603  10.983  63.983  1.00  0.00    -0.272 A  
HETATM   14  N   UNL     1      -7.049   6.512  62.599  1.00  0.00    -0.043 NA 
HETATM   15  C   UNL     1      -8.329   8.573  63.501  1.00  0.00    -0.086 A  
BRANCH   5  16
HETATM   16  N   UNL     1     -11.786  11.772  67.509  1.00  0.00    -0.283 N  
HETATM   17  C   UNL     1     -11.449  12.785  68.384  1.00  0.00    -0.311 C  
HETATM   18  H   UNL     1     -12.579  11.166  67.716  1.00  0.00     0.000 HD 
HETATM   19  O   UNL     1     -10.481  13.527  68.257  1.00  0.00    -0.239 OA 
BRANCH  17  20
HETATM   20  C   UNL     1     -12.389  12.906  69.532  1.00  0.00    -0.040 C  
HETATM   21  C   UNL     1     -12.431  14.062  70.217  1.00  0.00    -0.403 C  
BRANCH  21  22
HETATM   22  C   UNL     1     -13.338  14.420  71.358  1.00  0.00    -0.349 C  
BRANCH  22  23
HETATM   23  N   UNL     1     -12.697  14.884  72.596  1.00  0.00    -0.354 NA 
HETATM   24  C   UNL     1     -11.362  15.436  72.329  1.00  0.00    -0.327 C  
HETATM   25  C   UNL     1     -13.529  15.938  73.195  1.00  0.00    -0.563 C  
ENDBRANCH  22  23
ENDBRANCH  21  22
ENDBRANCH  17  20
ENDBRANCH   5  16
BRANCH  12  26
HETATM   26  N   UNL     1      -9.033   7.734  65.766  1.00  0.00    -0.344 NA 
HETATM   27  H   UNL     1      -9.808   7.078  65.674  1.00  0.00     0.000 HD 
BRANCH  26  28
HETATM   28  C   UNL     1      -8.201   7.492  66.881  1.00  0.00    -0.124 A  
HETATM   29 CL   UNL     1      -8.533   7.927  70.851  1.00  0.00    -0.124 Cl 
HETATM   30  C   UNL     1      -6.958   6.861  66.768  1.00  0.00    -0.066 A  
HETATM   31  C   UNL     1      -7.897   7.491  69.300  1.00  0.00    -0.118 A  
HETATM   32  C   UNL     1      -6.198   6.523  67.906  1.00  0.00    -0.028 A  
HETATM   33  C   UNL     1      -8.642   7.837  68.165  1.00  0.00    -0.123 A  
HETATM   34  C   UNL     1      -6.673   6.814  69.186  1.00  0.00    -0.056 A  
BRANCH  34  35
HETATM   35  O   UNL     1      -6.075   6.432  70.355  1.00  0.00    -0.029 OA 
BRANCH  35  36
HETATM   36  C   UNL     1      -5.372   5.189  70.399  1.00  0.00    -0.004 C  
BRANCH  36  37
HETATM   37  C   UNL     1      -6.085   4.251  71.355  1.00  0.00    -0.017 A  
HETATM   38  C   UNL     1      -7.441   4.423  71.635  1.00  0.00    -0.069 A  
HETATM   39  C   UNL     1      -8.067   3.550  72.523  1.00  0.00    -0.076 A  
HETATM   40  C   UNL     1      -7.329   2.528  73.107  1.00  0.00    -0.041 A  
HETATM   41  C   UNL     1      -5.989   2.424  72.780  1.00  0.00    -0.008 A  
HETATM   42  N   UNL     1      -5.351   3.264  71.933  1.00  0.00    -0.003 NA 
ENDBRANCH  36  37
ENDBRANCH  35  36
ENDBRANCH  34  35
ENDBRANCH  26  28
ENDBRANCH  12  26
ENDBRANCH   3   4
ENDBRANCH   2   3
TORSDOF 11
ENDMDL
MODEL       85
REMARK 921   NORMALIZED FREE ENERGY PREDICTED BY IDOCK:   -4.18 KCAL/MOL
REMARK 922        TOTAL FREE ENERGY PREDICTED BY IDOCK:   -8.63 KCAL/MOL
REMARK 923 INTER-LIGAND FREE ENERGY PREDICTED BY IDOCK:   -7.44 KCAL/MOL
REMARK 924 INTRA-LIGAND FREE ENERGY PREDICTED BY IDOCK:   -1.19 KCAL/MOL
REMARK 927      BINDING AFFINITY PREDICTED BY RF-SCORE:    0.00 PKD
ROOT
HETATM    1  C   UNL     1     -10.234   4.186  65.690  1.00  0.00    -0.157 C  
HETATM    2  C   UNL     1      -9.203   5.180  66.196  1.00  0.00    -0.151 C  
ENDROOT
BRANCH   2   3
HETATM    3  O   UNL     1      -9.738   5.831  67.338  1.00  0.00    -0.115 OA 
BRANCH   3   4
HETATM    4  C   UNL     1      -9.603   7.182  67.497  1.00  0.00    -0.132 A  
HETATM    5  C   UNL     1      -9.226   7.929  68.613  1.00  0.00    -0.142 A  
HETATM    6  C   UNL     1      -9.980  13.392  65.567  1.00  0.00    -0.210 C  
HETATM    7  C   UNL     1      -9.244   9.339  68.551  1.00  0.00    -0.135 A  
HETATM    8  C   UNL     1     -10.248  11.117  64.920  1.00  0.00    -0.303 A  
HETATM    9  C   UNL     1      -9.941   7.875  66.330  1.00  0.00    -0.192 A  
HETATM   10  C   UNL     1      -9.580  10.044  67.356  1.00  0.00    -0.182 A  
HETATM   11  N   UNL     1     -10.252   9.772  65.048  1.00  0.00     0.052 NA 
HETATM   12  C   UNL     1      -9.593  11.484  67.194  1.00  0.00    -0.177 A  
HETATM   13  C   UNL     1      -9.931   9.258  66.232  1.00  0.00    -0.286 A  
HETATM   14  N   UNL     1     -10.059  14.483  65.178  1.00  0.00    -0.373 NA 
HETATM   15  C   UNL     1      -9.944  12.009  65.935  1.00  0.00    -0.260 A  
BRANCH   5  16
HETATM   16  N   UNL     1      -8.809   7.333  69.818  1.00  0.00    -0.142 N  
HETATM   17  C   UNL     1      -9.727   7.040  70.807  1.00  0.00    -0.168 C  
HETATM   18  H   UNL     1      -7.823   7.117  69.962  1.00  0.00     0.000 HD 
HETATM   19  O   UNL     1     -10.922   7.314  70.757  1.00  0.00    -0.240 OA 
BRANCH  17  20
HETATM   20  C   UNL     1      -9.128   6.343  71.977  1.00  0.00    -0.141 C  
HETATM   21  C   UNL     1      -9.426   5.049  72.184  1.00  0.00    -0.175 C  
BRANCH  21  22
HETATM   22  C   UNL     1      -8.891   4.142  73.254  1.00  0.00    -0.098 C  
BRANCH  22  23
HETATM   23  N   UNL     1      -9.250   2.720  73.162  1.00  0.00    -0.088 NA 
HETATM   24  C   UNL     1      -9.142   2.059  74.469  1.00  0.00    -0.068 C  
HETATM   25  C   UNL     1     -10.641   2.613  72.696  1.00  0.00    -0.062 C  
ENDBRANCH  22  23
ENDBRANCH  21  22
ENDBRANCH  17  20
ENDBRANCH   5  16
BRANCH  12  26
HETATM   26  N   UNL     1      -9.255  12.286  68.338  1.00  0.00    -0.294 NA 
HETATM   27  H   UNL     1      -9.412  11.820  69.232  1.00  0.00     0.000 HD 
BRANCH  26  28
HETATM   28  C   UNL     1      -8.744  13.598  68.453  1.00  0.00    -0.153 A  
HETATM   29 CL   UNL     1     -10.134  17.102  69.812  1.00  0.00     0.110 Cl 
HETATM   30  C   UNL     1      -7.415  13.916  68.155  1.00  0.00    -0.126 A  
HETATM   31  C   UNL     1      -9.053  15.903  69.184  1.00  0.00    -0.255 A  
HETATM   32  C   UNL     1      -6.897  15.205  68.390  1.00  0.00    -0.109 A  
HETATM   33  C   UNL     1      -9.567  14.623  68.936  1.00  0.00    -0.184 A  
HETATM   34  C   UNL     1      -7.707  16.206  68.930  1.00  0.00    -0.207 A  
BRANCH  34  35
HETATM   35  O   UNL     1      -7.280  17.451  69.302  1.00  0.00    -0.213 OA 
BRANCH  35  36
HETATM   36  C   UNL     1      -7.060  18.437  68.292  1.00  0.00    -0.259 C  
BRANCH  36  37
HETATM   37  C   UNL     1      -8.401  18.955  67.804  1.00  0.00    -0.279 A  
HETATM   38  C   UNL     1      -8.966  18.457  66.630  1.00  0.00    -0.295 A  
HETATM   39  C   UNL     1     -10.194  18.957  66.203  1.00  0.00    -0.485 A  
HETATM   40  C   UNL     1     -10.829  19.937  66.956  1.00  0.00    -0.370 A  
HETATM   41  C   UNL     1     -10.203  20.381  68.107  1.00  0.00    -0.157 A  
HETATM   42  N   UNL     1      -9.006  19.924  68.539  1.00  0.00    -0.220 NA 
ENDBRANCH  36  37
ENDBRANCH  35  36
ENDBRANCH  34  35
ENDBRANCH  26  28
ENDBRANCH  12  26
ENDBRANCH   3   4
ENDBRANCH   2   3
TORSDOF 11
ENDMDL
MODEL       86
REMARK 921   NORMALIZED FREE ENERGY PREDICTED BY IDOCK:   -4.17 KCAL/MOL
REMARK 922        TOTAL FREE ENERGY PREDICTED BY IDOCK:   -8.60 KCAL/MOL
REMARK 923 INTER-LIGAND FREE ENERGY PREDICTED BY IDOCK:   -6.83 KCAL/MOL
REMARK 924 INTRA-LIGAND FREE ENERGY PREDICTED BY IDOCK:   -1.77 KCAL/MOL
REMARK 927      BINDING AFFINITY PREDICTED BY RF-SCORE:    0.00 PKD
ROOT
HETATM    1  C   UNL     1      -5.367   3.550  71.239  1.00  0.00    -0.004 C  
HETATM    2  C   UNL     1      -5.312   4.812  70.396  1.00  0.00    -0.003 C  
ENDROOT
BRANCH   2   3
HETATM    3  O   UNL     1      -6.017   4.569  69.188  1.00  0.00    -0.020 OA 
BRANCH   3   4
HETATM    4  C   UNL     1      -6.784   5.549  68.621  1.00  0.00    -0.057 A  
HETATM    5  C   UNL     1      -7.913   6.209  69.106  1.00  0.00    -0.108 A  
HETATM    6  C   UNL     1      -8.565   9.580  63.824  1.00  0.00    -0.211 C  
HETATM    7  C   UNL     1      -8.590   7.136  68.285  1.00  0.00    -0.122 A  
HETATM    8  C   UNL     1      -6.988   7.940  64.524  1.00  0.00    -0.071 A  
HETATM    9  C   UNL     1      -6.337   5.876  67.337  1.00  0.00    -0.042 A  
HETATM   10  C   UNL     1      -8.125   7.476  66.978  1.00  0.00    -0.117 A  
HETATM   11  N   UNL     1      -6.403   7.033  65.338  1.00  0.00    -0.039 NA 
HETATM   12  C   UNL     1      -8.738   8.437  66.083  1.00  0.00    -0.151 A  
HETATM   13  C   UNL     1      -6.962   6.809  66.525  1.00  0.00    -0.063 A  
HETATM   14  N   UNL     1      -8.842  10.284  62.944  1.00  0.00    -0.198 NA 
HETATM   15  C   UNL     1      -8.136   8.653  64.827  1.00  0.00    -0.149 A  
BRANCH   5  16
HETATM   16  N   UNL     1      -8.412   6.000  70.406  1.00  0.00    -0.130 N  
HETATM   17  C   UNL     1      -7.991   6.796  71.452  1.00  0.00    -0.109 C  
HETATM   18  H   UNL     1      -9.089   5.257  70.575  1.00  0.00     0.000 HD 
HETATM   19  O   UNL     1      -7.139   7.674  71.365  1.00  0.00    -0.056 OA 
BRANCH  17  20
HETATM   20  C   UNL     1      -8.677   6.490  72.736  1.00  0.00    -0.126 C  
HETATM   21  C   UNL     1      -8.776   5.208  73.129  1.00  0.00    -0.116 C  
BRANCH  21  22
HETATM   22  C   UNL     1      -9.367   4.682  74.405  1.00  0.00    -0.118 C  
BRANCH  22  23
HETATM   23  N   UNL     1     -10.599   3.890  74.290  1.00  0.00    -0.214 NA 
HETATM   24  C   UNL     1     -11.531   4.495  73.329  1.00  0.00    -0.219 C  
HETATM   25  C   UNL     1     -10.253   2.540  73.820  1.00  0.00    -0.117 C  
ENDBRANCH  22  23
ENDBRANCH  21  22
ENDBRANCH  17  20
ENDBRANCH   5  16
BRANCH  12  26
HETATM   26  N   UNL     1      -9.929   9.102  66.533  1.00  0.00    -0.271 NA 
HETATM   27  H   UNL     1     -10.791   8.607  66.307  1.00  0.00     0.000 HD 
BRANCH  26  28
HETATM   28  C   UNL     1     -10.126  10.314  67.232  1.00  0.00    -0.203 A  
HETATM   29 CL   UNL     1      -7.823  13.417  68.292  1.00  0.00    -0.135 Cl 
HETATM   30  C   UNL     1     -11.391  10.744  67.647  1.00  0.00    -0.328 A  
HETATM   31  C   UNL     1      -9.222  12.423  68.052  1.00  0.00    -0.203 A  
HETATM   32  C   UNL     1     -11.580  12.010  68.237  1.00  0.00    -0.394 A  
HETATM   33  C   UNL     1      -9.037  11.158  67.479  1.00  0.00    -0.146 A  
HETATM   34  C   UNL     1     -10.498  12.872  68.423  1.00  0.00    -0.251 A  
BRANCH  34  35
HETATM   35  O   UNL     1     -10.585  14.160  68.878  1.00  0.00    -0.244 OA 
BRANCH  35  36
HETATM   36  C   UNL     1     -11.207  15.145  68.052  1.00  0.00    -0.323 C  
BRANCH  36  37
HETATM   37  C   UNL     1     -10.168  16.169  67.634  1.00  0.00    -0.265 A  
HETATM   38  C   UNL     1      -9.242  15.868  66.634  1.00  0.00    -0.280 A  
HETATM   39  C   UNL     1      -8.295  16.826  66.276  1.00  0.00    -0.353 A  
HETATM   40  C   UNL     1      -8.295  18.057  66.920  1.00  0.00    -0.263 A  
HETATM   41  C   UNL     1      -9.243  18.278  67.902  1.00  0.00    -0.276 A  
HETATM   42  N   UNL     1     -10.166  17.364  68.280  1.00  0.00    -0.340 NA 
ENDBRANCH  36  37
ENDBRANCH  35  36
ENDBRANCH  34  35
ENDBRANCH  26  28
ENDBRANCH  12  26
ENDBRANCH   3   4
ENDBRANCH   2   3
TORSDOF 11
ENDMDL
MODEL       87
REMARK 921   NORMALIZED FREE ENERGY PREDICTED BY IDOCK:   -4.17 KCAL/MOL
REMARK 922        TOTAL FREE ENERGY PREDICTED BY IDOCK:   -8.60 KCAL/MOL
REMARK 923 INTER-LIGAND FREE ENERGY PREDICTED BY IDOCK:   -7.46 KCAL/MOL
REMARK 924 INTRA-LIGAND FREE ENERGY PREDICTED BY IDOCK:   -1.14 KCAL/MOL
REMARK 927      BINDING AFFINITY PREDICTED BY RF-SCORE:    0.00 PKD
ROOT
HETATM    1  C   UNL     1      -8.841  11.230  62.822  1.00  0.00    -0.236 C  
HETATM    2  C   UNL     1      -9.634  10.451  63.857  1.00  0.00    -0.312 C  
ENDROOT
BRANCH   2   3
HETATM    3  O   UNL     1     -10.732  11.252  64.268  1.00  0.00    -0.338 OA 
BRANCH   3   4
HETATM    4  C   UNL     1     -10.535  12.341  65.071  1.00  0.00    -0.290 A  
HETATM    5  C   UNL     1     -10.129  12.422  66.403  1.00  0.00    -0.236 A  
HETATM    6  C   UNL     1     -10.624  18.702  66.471  1.00  0.00    -0.358 C  
HETATM    7  C   UNL     1     -10.083  13.677  67.047  1.00  0.00    -0.248 A  
HETATM    8  C   UNL     1     -10.993  17.058  64.789  1.00  0.00     0.219 A  
HETATM    9  C   UNL     1     -10.838  13.533  64.407  1.00  0.00    -0.403 A  
HETATM   10  C   UNL     1     -10.382  14.894  66.363  1.00  0.00    -0.291 A  
HETATM   11  N   UNL     1     -11.058  15.827  64.236  1.00  0.00    -0.323 NA 
HETATM   12  C   UNL     1     -10.329  16.225  66.935  1.00  0.00    -0.299 A  
HETATM   13  C   UNL     1     -10.765  14.782  65.005  1.00  0.00    -0.433 A  
HETATM   14  N   UNL     1     -10.651  19.845  66.673  1.00  0.00    -0.465 NA 
HETATM   15  C   UNL     1     -10.652  17.319  66.106  1.00  0.00    -0.204 A  
BRANCH   5  16
HETATM   16  N   UNL     1      -9.743  11.291  67.148  1.00  0.00    -0.180 N  
HETATM   17  C   UNL     1      -8.406  11.017  67.359  1.00  0.00    -0.126 C  
HETATM   18  H   UNL     1     -10.455  10.671  67.533  1.00  0.00     0.000 HD 
HETATM   19  O   UNL     1      -7.476  11.664  66.891  1.00  0.00    -0.146 OA 
BRANCH  17  20
HETATM   20  C   UNL     1      -8.181   9.832  68.231  1.00  0.00    -0.105 C  
HETATM   21  C   UNL     1      -9.221   9.030  68.516  1.00  0.00    -0.136 C  
BRANCH  21  22
HETATM   22  C   UNL     1      -9.208   7.759  69.316  1.00  0.00    -0.145 C  
BRANCH  22  23
HETATM   23  N   UNL     1     -10.133   6.698  68.892  1.00  0.00    -0.159 NA 
HETATM   24  C   UNL     1     -11.147   6.436  69.922  1.00  0.00    -0.381 C  
HETATM   25  C   UNL     1     -10.815   7.128  67.662  1.00  0.00    -0.209 C  
ENDBRANCH  22  23
ENDBRANCH  21  22
ENDBRANCH  17  20
ENDBRANCH   5  16
BRANCH  12  26
HETATM   26  N   UNL     1      -9.958  16.341  68.318  1.00  0.00    -0.231 NA 
HETATM   27  H   UNL     1      -9.074  16.826  68.471  1.00  0.00     0.000 HD 
BRANCH  26  28
HETATM   28  C   UNL     1     -10.591  15.908  69.504  1.00  0.00    -0.282 A  
HETATM   29 CL   UNL     1     -14.378  15.560  70.767  1.00  0.00     0.123 Cl 
HETATM   30  C   UNL     1      -9.883  15.341  70.569  1.00  0.00     0.497 A  
HETATM   31  C   UNL     1     -12.650  15.447  70.725  1.00  0.00    -0.442 A  
HETATM   32  C   UNL     1     -10.547  14.808  71.693  1.00  0.00     1.314 A  
HETATM   33  C   UNL     1     -11.985  15.987  69.616  1.00  0.00    -0.189 A  
HETATM   34  C   UNL     1     -11.941  14.835  71.769  1.00  0.00    -0.339 A  
BRANCH  34  35
HETATM   35  O   UNL     1     -12.688  14.248  72.754  1.00  0.00    -0.364 OA 
BRANCH  35  36
HETATM   36  C   UNL     1     -13.733  13.348  72.385  1.00  0.00    -0.597 C  
BRANCH  36  37
HETATM   37  C   UNL     1     -13.138  12.193  71.600  1.00  0.00    -0.310 A  
HETATM   38  C   UNL     1     -12.793  12.355  70.258  1.00  0.00     0.274 A  
HETATM   39  C   UNL     1     -12.256  11.276  69.560  1.00  0.00    -0.325 A  
HETATM   40  C   UNL     1     -12.073  10.064  70.215  1.00  0.00    -0.226 A  
HETATM   41  C   UNL     1     -12.442   9.982  71.546  1.00  0.00    -0.419 A  
HETATM   42  N   UNL     1     -12.979  11.009  72.245  1.00  0.00    -0.138 NA 
ENDBRANCH  36  37
ENDBRANCH  35  36
ENDBRANCH  34  35
ENDBRANCH  26  28
ENDBRANCH  12  26
ENDBRANCH   3   4
ENDBRANCH   2   3
TORSDOF 11
ENDMDL
MODEL       88
REMARK 921   NORMALIZED FREE ENERGY PREDICTED BY IDOCK:   -4.10 KCAL/MOL
REMARK 922        TOTAL FREE ENERGY PREDICTED BY IDOCK:   -8.50 KCAL/MOL
REMARK 923 INTER-LIGAND FREE ENERGY PREDICTED BY IDOCK:   -6.81 KCAL/MOL
REMARK 924 INTRA-LIGAND FREE ENERGY PREDICTED BY IDOCK:   -1.69 KCAL/MOL
REMARK 927      BINDING AFFINITY PREDICTED BY RF-SCORE:    0.00 PKD
ROOT
HETATM    1  C   UNL     1     -10.074   4.819  65.443  1.00  0.00    -0.107 C  
HETATM    2  C   UNL     1      -9.817   5.502  66.776  1.00  0.00    -0.167 C  
ENDROOT
BRANCH   2   3
HETATM    3  O   UNL     1      -8.831   6.505  66.576  1.00  0.00    -0.128 OA 
BRANCH   3   4
HETATM    4  C   UNL     1      -9.123   7.821  66.798  1.00  0.00    -0.154 A  
HETATM    5  C   UNL     1      -9.058   8.578  67.969  1.00  0.00    -0.140 A  
HETATM    6  C   UNL     1     -11.264  13.733  65.097  1.00  0.00    -0.316 C  
HETATM    7  C   UNL     1      -9.501   9.918  67.962  1.00  0.00    -0.147 A  
HETATM    8  C   UNL     1     -10.788  11.527  64.341  1.00  0.00    -0.342 A  
HETATM    9  C   UNL     1      -9.589   8.449  65.639  1.00  0.00     0.118 A  
HETATM   10  C   UNL     1      -9.966  10.560  66.774  1.00  0.00    -0.252 A  
HETATM   11  N   UNL     1     -10.388  10.238  64.415  1.00  0.00    -0.084 NA 
HETATM   12  C   UNL     1     -10.408  11.936  66.671  1.00  0.00    -0.211 A  
HETATM   13  C   UNL     1      -9.995   9.774  65.598  1.00  0.00    -0.282 A  
HETATM   14  N   UNL     1     -11.649  14.771  64.748  1.00  0.00    -0.409 NA 
HETATM   15  C   UNL     1     -10.829  12.407  65.411  1.00  0.00    -0.320 A  
BRANCH   5  16
HETATM   16  N   UNL     1      -8.549   8.064  69.176  1.00  0.00    -0.136 N  
HETATM   17  C   UNL     1      -7.186   7.964  69.374  1.00  0.00    -0.079 C  
HETATM   18  H   UNL     1      -9.191   7.763  69.909  1.00  0.00     0.000 HD 
HETATM   19  O   UNL     1      -6.335   8.242  68.536  1.00  0.00    -0.051 OA 
BRANCH  17  20
HETATM   20  C   UNL     1      -6.824   7.475  70.732  1.00  0.00    -0.047 C  
HETATM   21  C   UNL     1      -7.777   7.422  71.677  1.00  0.00    -0.086 C  
BRANCH  21  22
HETATM   22  C   UNL     1      -7.649   6.909  73.083  1.00  0.00    -0.084 C  
BRANCH  22  23
HETATM   23  N   UNL     1      -8.806   6.190  73.635  1.00  0.00    -0.124 NA 
HETATM   24  C   UNL     1      -9.909   6.135  72.667  1.00  0.00    -0.167 C  
HETATM   25  C   UNL     1      -8.399   4.815  73.961  1.00  0.00    -0.104 C  
ENDBRANCH  22  23
ENDBRANCH  21  22
ENDBRANCH  17  20
ENDBRANCH   5  16
BRANCH  12  26
HETATM   26  N   UNL     1     -10.397  12.732  67.867  1.00  0.00    -0.220 NA 
HETATM   27  H   UNL     1     -11.262  12.684  68.405  1.00  0.00     0.000 HD 
BRANCH  26  28
HETATM   28  C   UNL     1      -9.409  13.566  68.436  1.00  0.00    -0.171 A  
HETATM   29 CL   UNL     1      -5.427  13.415  68.856  1.00  0.00    -0.072 Cl 
HETATM   30  C   UNL     1      -9.700  14.839  68.938  1.00  0.00    -0.215 A  
HETATM   31  C   UNL     1      -7.056  14.004  68.895  1.00  0.00    -0.111 A  
HETATM   32  C   UNL     1      -8.681  15.701  69.393  1.00  0.00    -0.249 A  
HETATM   33  C   UNL     1      -8.073  13.146  68.457  1.00  0.00    -0.087 A  
HETATM   34  C   UNL     1      -7.345  15.299  69.352  1.00  0.00    -0.207 A  
BRANCH  34  35
HETATM   35  O   UNL     1      -6.273  16.092  69.660  1.00  0.00    -0.164 OA 
BRANCH  35  36
HETATM   36  C   UNL     1      -5.646  16.842  68.618  1.00  0.00    -0.123 C  
BRANCH  36  37
HETATM   37  C   UNL     1      -5.679  18.315  68.981  1.00  0.00    -0.210 A  
HETATM   38  C   UNL     1      -6.015  19.272  68.022  1.00  0.00    -0.222 A  
HETATM   39  C   UNL     1      -6.029  20.617  68.382  1.00  0.00    -0.368 A  
HETATM   40  C   UNL     1      -5.710  20.977  69.686  1.00  0.00    -0.105 A  
HETATM   41  C   UNL     1      -5.386  19.970  70.578  1.00  0.00    -0.247 A  
HETATM   42  N   UNL     1      -5.350  18.657  70.254  1.00  0.00    -0.218 NA 
ENDBRANCH  36  37
ENDBRANCH  35  36
ENDBRANCH  34  35
ENDBRANCH  26  28
ENDBRANCH  12  26
ENDBRANCH   3   4
ENDBRANCH   2   3
TORSDOF 11
ENDMDL
MODEL       89
REMARK 921   NORMALIZED FREE ENERGY PREDICTED BY IDOCK:   -3.96 KCAL/MOL
REMARK 922        TOTAL FREE ENERGY PREDICTED BY IDOCK:   -8.26 KCAL/MOL
REMARK 923 INTER-LIGAND FREE ENERGY PREDICTED BY IDOCK:   -7.48 KCAL/MOL
REMARK 924 INTRA-LIGAND FREE ENERGY PREDICTED BY IDOCK:   -0.79 KCAL/MOL
REMARK 927      BINDING AFFINITY PREDICTED BY RF-SCORE:    0.00 PKD
ROOT
HETATM    1  C   UNL     1     -10.178   8.880  71.345  1.00  0.00    -0.375 C  
HETATM    2  C   UNL     1      -9.034   8.478  72.259  1.00  0.00    -0.229 C  
ENDROOT
BRANCH   2   3
HETATM    3  O   UNL     1      -7.830   8.520  71.507  1.00  0.00    -0.106 OA 
BRANCH   3   4
HETATM    4  C   UNL     1      -7.866   8.593  70.142  1.00  0.00    -0.098 A  
HETATM    5  C   UNL     1      -7.832   9.700  69.294  1.00  0.00    -0.098 A  
HETATM    6  C   UNL     1      -8.380   6.121  64.138  1.00  0.00     0.044 C  
HETATM    7  C   UNL     1      -7.971   9.519  67.900  1.00  0.00    -0.098 A  
HETATM    8  C   UNL     1      -8.271   5.620  66.463  1.00  0.00    -0.106 A  
HETATM    9  C   UNL     1      -7.989   7.327  69.561  1.00  0.00    -0.127 A  
HETATM   10  C   UNL     1      -8.086   8.224  67.309  1.00  0.00    -0.109 A  
HETATM   11  N   UNL     1      -8.174   5.855  67.790  1.00  0.00    -0.105 NA 
HETATM   12  C   UNL     1      -8.199   7.945  65.891  1.00  0.00    -0.126 A  
HETATM   13  C   UNL     1      -8.089   7.120  68.194  1.00  0.00    -0.124 A  
HETATM   14  N   UNL     1      -8.470   5.635  63.087  1.00  0.00    -0.058 NA 
HETATM   15  C   UNL     1      -8.297   6.600  65.484  1.00  0.00    -0.144 A  
BRANCH   5  16
HETATM   16  N   UNL     1      -7.651  11.012  69.767  1.00  0.00    -0.356 N  
HETATM   17  C   UNL     1      -6.404  11.605  69.723  1.00  0.00    -0.134 C  
HETATM   18  H   UNL     1      -8.444  11.529  70.146  1.00  0.00     0.000 HD 
HETATM   19  O   UNL     1      -5.378  11.050  69.344  1.00  0.00    -0.041 OA 
BRANCH  17  20
HETATM   20  C   UNL     1      -6.409  13.018  70.190  1.00  0.00     0.053 C  
HETATM   21  C   UNL     1      -6.861  13.974  69.359  1.00  0.00    -0.083 C  
BRANCH  21  22
HETATM   22  C   UNL     1      -7.011  15.440  69.642  1.00  0.00    -0.184 C  
BRANCH  22  23
HETATM   23  N   UNL     1      -6.591  16.368  68.583  1.00  0.00    -0.136 NA 
HETATM   24  C   UNL     1      -7.234  16.040  67.304  1.00  0.00    -0.206 C  
HETATM   25  C   UNL     1      -6.980  17.733  68.967  1.00  0.00    -0.236 C  
ENDBRANCH  22  23
ENDBRANCH  21  22
ENDBRANCH  17  20
ENDBRANCH   5  16
BRANCH  12  26
HETATM   26  N   UNL     1      -8.214   9.065  64.992  1.00  0.00    -0.143 NA 
HETATM   27  H   UNL     1      -7.585   8.966  64.195  1.00  0.00     0.000 HD 
BRANCH  26  28
HETATM   28  C   UNL     1      -8.938  10.279  65.007  1.00  0.00    -0.196 A  
HETATM   29 CL   UNL     1     -12.410  11.560  63.471  1.00  0.00    -0.324 Cl 
HETATM   30  C   UNL     1      -8.542  11.380  65.772  1.00  0.00    -0.010 A  
HETATM   31  C   UNL     1     -10.936  11.527  64.379  1.00  0.00    -0.324 A  
HETATM   32  C   UNL     1      -9.342  12.537  65.865  1.00  0.00    -0.039 A  
HETATM   33  C   UNL     1     -10.131  10.384  64.280  1.00  0.00    -0.306 A  
HETATM   34  C   UNL     1     -10.560  12.611  65.186  1.00  0.00    -0.298 A  
BRANCH  34  35
HETATM   35  O   UNL     1     -11.463  13.633  65.296  1.00  0.00    -0.301 OA 
BRANCH  35  36
HETATM   36  C   UNL     1     -11.021  14.896  65.797  1.00  0.00    -0.345 C  
BRANCH  36  37
HETATM   37  C   UNL     1     -11.256  14.944  67.295  1.00  0.00    -0.345 A  
HETATM   38  C   UNL     1     -12.006  13.950  67.925  1.00  0.00    -0.393 A  
HETATM   39  C   UNL     1     -12.212  14.025  69.301  1.00  0.00    -0.319 A  
HETATM   40  C   UNL     1     -11.665  15.084  70.015  1.00  0.00    -0.345 A  
HETATM   41  C   UNL     1     -10.936  16.030  69.318  1.00  0.00    -0.306 A  
HETATM   42  N   UNL     1     -10.731  15.992  67.981  1.00  0.00    -0.298 NA 
ENDBRANCH  36  37
ENDBRANCH  35  36
ENDBRANCH  34  35
ENDBRANCH  26  28
ENDBRANCH  12  26
ENDBRANCH   3   4
ENDBRANCH   2   3
TORSDOF 11
ENDMDL
MODEL       90
REMARK 921   NORMALIZED FREE ENERGY PREDICTED BY IDOCK:   -3.93 KCAL/MOL
REMARK 922        TOTAL FREE ENERGY PREDICTED BY IDOCK:   -8.21 KCAL/MOL
REMARK 923 INTER-LIGAND FREE ENERGY PREDICTED BY IDOCK:   -7.91 KCAL/MOL
REMARK 924 INTRA-LIGAND FREE ENERGY PREDICTED BY IDOCK:   -0.30 KCAL/MOL
REMARK 927      BINDING AFFINITY PREDICTED BY RF-SCORE:    0.00 PKD
ROOT
HETATM    1  C   UNL     1      -8.177   5.378  65.037  1.00  0.00    -0.137 C  
HETATM    2  C   UNL     1      -6.977   4.474  65.262  1.00  0.00    -0.062 C  
ENDROOT
BRANCH   2   3
HETATM    3  O   UNL     1      -6.317   4.900  66.444  1.00  0.00    -0.034 OA 
BRANCH   3   4
HETATM    4  C   UNL     1      -7.030   5.186  67.575  1.00  0.00    -0.065 A  
HETATM    5  C   UNL     1      -7.233   6.399  68.234  1.00  0.00    -0.085 A  
HETATM    6  C   UNL     1     -10.636   3.680  72.786  1.00  0.00    -0.100 C  
HETATM    7  C   UNL     1      -7.950   6.424  69.450  1.00  0.00    -0.110 A  
HETATM    8  C   UNL     1      -9.559   2.840  70.836  1.00  0.00    -0.132 A  
HETATM    9  C   UNL     1      -7.596   4.036  68.132  1.00  0.00    -0.067 A  
HETATM   10  C   UNL     1      -8.535   5.249  70.012  1.00  0.00    -0.101 A  
HETATM   11  N   UNL     1      -8.832   2.869  69.698  1.00  0.00    -0.077 NA 
HETATM   12  C   UNL     1      -9.311   5.189  71.235  1.00  0.00    -0.148 A  
HETATM   13  C   UNL     1      -8.335   4.039  69.306  1.00  0.00    -0.064 A  
HETATM   14  N   UNL     1     -11.280   3.365  73.699  1.00  0.00    -0.222 NA 
HETATM   15  C   UNL     1      -9.822   3.938  71.638  1.00  0.00    -0.247 A  
BRANCH   5  16
HETATM   16  N   UNL     1      -6.760   7.625  67.729  1.00  0.00    -0.065 N  
HETATM   17  C   UNL     1      -5.710   8.276  68.346  1.00  0.00    -0.034 C  
HETATM   18  H   UNL     1      -7.196   8.034  66.903  1.00  0.00     0.000 HD 
HETATM   19  O   UNL     1      -5.160   7.898  69.375  1.00  0.00    -0.018 OA 
BRANCH  17  20
HETATM   20  C   UNL     1      -5.289   9.514  67.636  1.00  0.00    -0.037 C  
HETATM   21  C   UNL     1      -6.123  10.568  67.620  1.00  0.00    -0.052 C  
BRANCH  21  22
HETATM   22  C   UNL     1      -5.878  11.923  67.022  1.00  0.00    -0.153 C  
BRANCH  22  23
HETATM   23  N   UNL     1      -6.632  13.047  67.595  1.00  0.00    -0.149 NA 
HETATM   24  C   UNL     1      -8.045  12.695  67.789  1.00  0.00    -0.166 C  
HETATM   25  C   UNL     1      -6.051  13.392  68.901  1.00  0.00    -0.086 C  
ENDBRANCH  22  23
ENDBRANCH  21  22
ENDBRANCH  17  20
ENDBRANCH   5  16
BRANCH  12  26
HETATM   26  N   UNL     1      -9.501   6.412  71.964  1.00  0.00    -0.152 NA 
HETATM   27  H   UNL     1      -9.003   6.447  72.853  1.00  0.00     0.000 HD 
BRANCH  26  28
HETATM   28  C   UNL     1     -10.250   7.575  71.677  1.00  0.00    -0.184 A  
HETATM   29 CL   UNL     1     -10.656  10.013  68.523  1.00  0.00    -0.231 Cl 
HETATM   30  C   UNL     1     -11.205   8.090  72.559  1.00  0.00    -0.452 A  
HETATM   31  C   UNL     1     -10.906   9.296  70.079  1.00  0.00    -0.238 A  
HETATM   32  C   UNL     1     -12.024   9.181  72.202  1.00  0.00    -0.364 A  
HETATM   33  C   UNL     1     -10.086   8.220  70.444  1.00  0.00    -0.199 A  
HETATM   34  C   UNL     1     -11.897   9.779  70.947  1.00  0.00    -0.336 A  
BRANCH  34  35
HETATM   35  O   UNL     1     -12.711  10.764  70.456  1.00  0.00    -0.336 OA 
BRANCH  35  36
HETATM   36  C   UNL     1     -12.120  11.964  69.956  1.00  0.00    -0.291 C  
BRANCH  36  37
HETATM   37  C   UNL     1     -12.609  13.139  70.784  1.00  0.00    -0.260 A  
HETATM   38  C   UNL     1     -13.182  12.930  72.038  1.00  0.00    -0.549 A  
HETATM   39  C   UNL     1     -13.629  14.027  72.772  1.00  0.00    -0.515 A  
HETATM   40  C   UNL     1     -13.493  15.303  72.239  1.00  0.00    -0.552 A  
HETATM   41  C   UNL     1     -12.916  15.428  70.988  1.00  0.00    -0.492 A  
HETATM   42  N   UNL     1     -12.486  14.381  70.247  1.00  0.00    -0.349 NA 
ENDBRANCH  36  37
ENDBRANCH  35  36
ENDBRANCH  34  35
ENDBRANCH  26  28
ENDBRANCH  12  26
ENDBRANCH   3   4
ENDBRANCH   2   3
TORSDOF 11
ENDMDL
MODEL       91
REMARK 921   NORMALIZED FREE ENERGY PREDICTED BY IDOCK:   -3.90 KCAL/MOL
REMARK 922        TOTAL FREE ENERGY PREDICTED BY IDOCK:   -8.16 KCAL/MOL
REMARK 923 INTER-LIGAND FREE ENERGY PREDICTED BY IDOCK:   -6.44 KCAL/MOL
REMARK 924 INTRA-LIGAND FREE ENERGY PREDICTED BY IDOCK:   -1.72 KCAL/MOL
REMARK 927      BINDING AFFINITY PREDICTED BY RF-SCORE:    0.00 PKD
ROOT
HETATM    1  C   UNL     1     -11.991  13.860  64.170  1.00  0.00    -0.464 C  
HETATM    2  C   UNL     1     -13.136  13.564  65.124  1.00  0.00    -0.043 C  
ENDROOT
BRANCH   2   3
HETATM    3  O   UNL     1     -12.606  13.481  66.438  1.00  0.00    -0.333 OA 
BRANCH   3   4
HETATM    4  C   UNL     1     -11.344  13.931  66.709  1.00  0.00    -0.333 A  
HETATM    5  C   UNL     1     -10.112  13.283  66.615  1.00  0.00    -0.266 A  
HETATM    6  C   UNL     1      -6.985  18.297  68.799  1.00  0.00    -0.270 C  
HETATM    7  C   UNL     1      -8.939  13.942  67.041  1.00  0.00    -0.251 A  
HETATM    8  C   UNL     1      -9.288  17.877  68.364  1.00  0.00    -0.288 A  
HETATM    9  C   UNL     1     -11.356  15.246  67.185  1.00  0.00    -0.247 A  
HETATM   10  C   UNL     1      -8.953  15.289  67.516  1.00  0.00    -0.192 A  
HETATM   11  N   UNL     1     -10.382  17.184  67.981  1.00  0.00    -0.336 NA 
HETATM   12  C   UNL     1      -7.796  16.051  67.942  1.00  0.00    -0.138 A  
HETATM   13  C   UNL     1     -10.214  15.928  67.575  1.00  0.00    -0.269 A  
HETATM   14  N   UNL     1      -6.245  19.108  69.175  1.00  0.00    -0.259 NA 
HETATM   15  C   UNL     1      -7.996  17.377  68.377  1.00  0.00    -0.259 A  
BRANCH   5  16
HETATM   16  N   UNL     1      -9.978  11.982  66.094  1.00  0.00    -0.225 N  
HETATM   17  C   UNL     1     -10.222  10.882  66.891  1.00  0.00    -0.228 C  
HETATM   18  H   UNL     1      -9.699  11.852  65.122  1.00  0.00     0.000 HD 
HETATM   19  O   UNL     1     -10.504  10.930  68.083  1.00  0.00    -0.168 OA 
BRANCH  17  20
HETATM   20  C   UNL     1     -10.111   9.591  66.159  1.00  0.00    -0.326 C  
HETATM   21  C   UNL     1      -8.896   9.170  65.768  1.00  0.00    -0.210 C  
BRANCH  21  22
HETATM   22  C   UNL     1      -8.548   7.882  65.078  1.00  0.00     0.015 C  
BRANCH  22  23
HETATM   23  N   UNL     1      -7.715   7.979  63.871  1.00  0.00    -0.132 NA 
HETATM   24  C   UNL     1      -7.319   9.369  63.609  1.00  0.00    -0.107 C  
HETATM   25  C   UNL     1      -6.500   7.174  64.068  1.00  0.00    -0.044 C  
ENDBRANCH  22  23
ENDBRANCH  21  22
ENDBRANCH  17  20
ENDBRANCH   5  16
BRANCH  12  26
HETATM   26  N   UNL     1      -6.517  15.398  67.900  1.00  0.00    -0.137 NA 
HETATM   27  H   UNL     1      -5.817  15.892  67.347  1.00  0.00     0.000 HD 
BRANCH  26  28
HETATM   28  C   UNL     1      -6.049  14.200  68.485  1.00  0.00    -0.091 A  
HETATM   29 CL   UNL     1      -5.534  12.846  72.221  1.00  0.00     0.227 Cl 
HETATM   30  C   UNL     1      -5.734  13.068  67.726  1.00  0.00    -0.134 A  
HETATM   31  C   UNL     1      -5.610  12.887  70.491  1.00  0.00    -0.174 A  
HETATM   32  C   UNL     1      -5.383  11.847  68.338  1.00  0.00    -0.045 A  
HETATM   33  C   UNL     1      -5.945  14.102  69.878  1.00  0.00    -0.133 A  
HETATM   34  C   UNL     1      -5.341  11.740  69.729  1.00  0.00    -0.075 A  
BRANCH  34  35
HETATM   35  O   UNL     1      -5.126  10.581  70.425  1.00  0.00    -0.038 OA 
BRANCH  35  36
HETATM   36  C   UNL     1      -6.250   9.816  70.860  1.00  0.00    -0.084 C  
BRANCH  36  37
HETATM   37  C   UNL     1      -6.497   8.692  69.870  1.00  0.00    -0.034 A  
HETATM   38  C   UNL     1      -5.434   8.125  69.165  1.00  0.00    -0.031 A  
HETATM   39  C   UNL     1      -5.693   7.100  68.258  1.00  0.00    -0.022 A  
HETATM   40  C   UNL     1      -6.999   6.663  68.077  1.00  0.00    -0.080 A  
HETATM   41  C   UNL     1      -7.998   7.277  68.812  1.00  0.00    -0.123 A  
HETATM   42  N   UNL     1      -7.780   8.283  69.689  1.00  0.00    -0.097 NA 
ENDBRANCH  36  37
ENDBRANCH  35  36
ENDBRANCH  34  35
ENDBRANCH  26  28
ENDBRANCH  12  26
ENDBRANCH   3   4
ENDBRANCH   2   3
TORSDOF 11
ENDMDL
MODEL       92
REMARK 921   NORMALIZED FREE ENERGY PREDICTED BY IDOCK:   -3.88 KCAL/MOL
REMARK 922        TOTAL FREE ENERGY PREDICTED BY IDOCK:   -8.14 KCAL/MOL
REMARK 923 INTER-LIGAND FREE ENERGY PREDICTED BY IDOCK:   -6.95 KCAL/MOL
REMARK 924 INTRA-LIGAND FREE ENERGY PREDICTED BY IDOCK:   -1.18 KCAL/MOL
REMARK 927      BINDING AFFINITY PREDICTED BY RF-SCORE:    0.00 PKD
ROOT
HETATM    1  C   UNL     1     -11.488  12.694  64.201  1.00  0.00    -0.447 C  
HETATM    2  C   UNL     1     -12.636  12.860  65.183  1.00  0.00    -0.471 C  
ENDROOT
BRANCH   2   3
HETATM    3  O   UNL     1     -12.279  12.212  66.395  1.00  0.00    -0.592 OA 
BRANCH   3   4
HETATM    4  C   UNL     1     -11.007  12.306  66.885  1.00  0.00    -0.267 A  
HETATM    5  C   UNL     1     -10.002  11.343  66.987  1.00  0.00    -0.201 A  
HETATM    6  C   UNL     1      -6.035  15.364  69.776  1.00  0.00    -0.141 C  
HETATM    7  C   UNL     1      -8.782  11.667  67.619  1.00  0.00    -0.156 A  
HETATM    8  C   UNL     1      -8.257  15.580  68.949  1.00  0.00    -0.201 A  
HETATM    9  C   UNL     1     -10.738  13.586  67.380  1.00  0.00    -0.269 A  
HETATM   10  C   UNL     1      -8.507  12.978  68.114  1.00  0.00    -0.176 A  
HETATM   11  N   UNL     1      -9.418  15.203  68.371  1.00  0.00    -0.202 NA 
HETATM   12  C   UNL     1      -7.274  13.405  68.746  1.00  0.00    -0.092 A  
HETATM   13  C   UNL     1      -9.535  13.940  67.972  1.00  0.00    -0.208 A  
HETATM   14  N   UNL     1      -5.175  15.951  70.290  1.00  0.00    -0.142 NA 
HETATM   15  C   UNL     1      -7.173  14.745  69.169  1.00  0.00    -0.148 A  
BRANCH   5  16
HETATM   16  N   UNL     1     -10.144  10.043  66.468  1.00  0.00    -0.225 N  
HETATM   17  C   UNL     1     -10.342   8.970  67.315  1.00  0.00    -0.273 C  
HETATM   18  H   UNL     1     -10.100   9.892  65.460  1.00  0.00     0.000 HD 
HETATM   19  O   UNL     1     -10.350   9.037  68.539  1.00  0.00    -0.196 OA 
BRANCH  17  20
HETATM   20  C   UNL     1     -10.550   7.684  66.595  1.00  0.00    -0.092 C  
HETATM   21  C   UNL     1     -10.364   6.531  67.260  1.00  0.00    -0.283 C  
BRANCH  21  22
HETATM   22  C   UNL     1     -10.576   5.134  66.753  1.00  0.00    -0.200 C  
BRANCH  22  23
HETATM   23  N   UNL     1      -9.504   4.556  65.931  1.00  0.00    -0.157 NA 
HETATM   24  C   UNL     1      -8.762   3.528  66.672  1.00  0.00    -0.124 C  
HETATM   25  C   UNL     1     -10.103   3.935  64.740  1.00  0.00    -0.198 C  
ENDBRANCH  22  23
ENDBRANCH  21  22
ENDBRANCH  17  20
ENDBRANCH   5  16
BRANCH  12  26
HETATM   26  N   UNL     1      -6.235  12.426  68.907  1.00  0.00    -0.073 NA 
HETATM   27  H   UNL     1      -5.354  12.677  68.457  1.00  0.00     0.000 HD 
BRANCH  26  28
HETATM   28  C   UNL     1      -6.206  11.181  69.575  1.00  0.00    -0.091 A  
HETATM   29 CL   UNL     1      -5.125   9.907  73.217  1.00  0.00    -0.061 Cl 
HETATM   30  C   UNL     1      -6.735  10.015  69.011  1.00  0.00    -0.053 A  
HETATM   31  C   UNL     1      -5.764   9.910  71.607  1.00  0.00     0.045 A  
HETATM   32  C   UNL     1      -6.803   8.811  69.741  1.00  0.00    -0.046 A  
HETATM   33  C   UNL     1      -5.686  11.100  70.872  1.00  0.00    -0.041 A  
HETATM   34  C   UNL     1      -6.339   8.754  71.056  1.00  0.00    -0.053 A  
BRANCH  34  35
HETATM   35  O   UNL     1      -6.459   7.675  71.889  1.00  0.00    -0.042 OA 
BRANCH  35  36
HETATM   36  C   UNL     1      -7.672   7.500  72.623  1.00  0.00    -0.095 C  
BRANCH  36  37
HETATM   37  C   UNL     1      -8.399   6.278  72.093  1.00  0.00    -0.109 A  
HETATM   38  C   UNL     1      -9.745   6.069  72.397  1.00  0.00    -0.172 A  
HETATM   39  C   UNL     1     -10.384   4.934  71.902  1.00  0.00    -0.259 A  
HETATM   40  C   UNL     1      -9.669   4.037  71.118  1.00  0.00    -0.257 A  
HETATM   41  C   UNL     1      -8.338   4.313  70.864  1.00  0.00    -0.079 A  
HETATM   42  N   UNL     1      -7.687   5.399  71.341  1.00  0.00    -0.105 NA 
ENDBRANCH  36  37
ENDBRANCH  35  36
ENDBRANCH  34  35
ENDBRANCH  26  28
ENDBRANCH  12  26
ENDBRANCH   3   4
ENDBRANCH   2   3
TORSDOF 11
ENDMDL
MODEL       93
REMARK 921   NORMALIZED FREE ENERGY PREDICTED BY IDOCK:   -3.84 KCAL/MOL
REMARK 922        TOTAL FREE ENERGY PREDICTED BY IDOCK:   -8.06 KCAL/MOL
REMARK 923 INTER-LIGAND FREE ENERGY PREDICTED BY IDOCK:   -7.37 KCAL/MOL
REMARK 924 INTRA-LIGAND FREE ENERGY PREDICTED BY IDOCK:   -0.69 KCAL/MOL
REMARK 927      BINDING AFFINITY PREDICTED BY RF-SCORE:    0.00 PKD
ROOT
HETATM    1  C   UNL     1     -14.409  15.759  71.645  1.00  0.00    -0.083 C  
HETATM    2  C   UNL     1     -13.564  14.565  72.054  1.00  0.00    -0.416 C  
ENDROOT
BRANCH   2   3
HETATM    3  O   UNL     1     -12.201  14.962  72.041  1.00  0.00    -0.335 OA 
BRANCH   3   4
HETATM    4  C   UNL     1     -11.480  14.934  70.880  1.00  0.00    -0.261 A  
HETATM    5  C   UNL     1     -11.117  13.862  70.064  1.00  0.00     0.139 A  
HETATM    6  C   UNL     1      -7.898  17.576  66.123  1.00  0.00    -0.246 C  
HETATM    7  C   UNL     1     -10.284  14.082  68.946  1.00  0.00    -0.159 A  
HETATM    8  C   UNL     1      -9.155  18.002  68.100  1.00  0.00    -0.276 A  
HETATM    9  C   UNL     1     -11.033  16.209  70.520  1.00  0.00    -0.284 A  
HETATM   10  C   UNL     1      -9.838  15.386  68.575  1.00  0.00    -0.207 A  
HETATM   11  N   UNL     1      -9.920  17.727  69.179  1.00  0.00    -0.250 NA 
HETATM   12  C   UNL     1      -9.010  15.707  67.429  1.00  0.00    -0.194 A  
HETATM   13  C   UNL     1     -10.244  16.457  69.406  1.00  0.00    -0.273 A  
HETATM   14  N   UNL     1      -7.269  18.091  65.295  1.00  0.00    -0.194 NA 
HETATM   15  C   UNL     1      -8.670  17.057  67.210  1.00  0.00    -0.212 A  
BRANCH   5  16
HETATM   16  N   UNL     1     -11.561  12.547  70.300  1.00  0.00    -0.534 N  
HETATM   17  C   UNL     1     -11.977  11.752  69.250  1.00  0.00    -0.291 C  
HETATM   18  H   UNL     1     -11.575  12.180  71.251  1.00  0.00     0.000 HD 
HETATM   19  O   UNL     1     -12.054  12.118  68.083  1.00  0.00    -0.447 OA 
BRANCH  17  20
HETATM   20  C   UNL     1     -12.337  10.370  69.668  1.00  0.00    -0.060 C  
HETATM   21  C   UNL     1     -11.432   9.638  70.340  1.00  0.00    -0.325 C  
BRANCH  21  22
HETATM   22  C   UNL     1     -11.603   8.258  70.906  1.00  0.00    -0.262 C  
BRANCH  22  23
HETATM   23  N   UNL     1     -10.400   7.608  71.445  1.00  0.00    -0.197 NA 
HETATM   24  C   UNL     1      -9.183   8.323  71.041  1.00  0.00    -0.158 C  
HETATM   25  C   UNL     1     -10.479   7.609  72.914  1.00  0.00    -0.336 C  
ENDBRANCH  22  23
ENDBRANCH  21  22
ENDBRANCH  17  20
ENDBRANCH   5  16
BRANCH  12  26
HETATM   26  N   UNL     1      -8.580  14.619  66.594  1.00  0.00    -0.433 NA 
HETATM   27  H   UNL     1      -8.532  14.852  65.602  1.00  0.00     0.000 HD 
BRANCH  26  28
HETATM   28  C   UNL     1      -8.212  13.288  66.892  1.00  0.00     0.047 A  
HETATM   29 CL   UNL     1      -6.323  11.446  69.907  1.00  0.00    -0.139 Cl 
HETATM   30  C   UNL     1      -8.603  12.206  66.097  1.00  0.00     0.169 A  
HETATM   31  C   UNL     1      -7.211  11.695  68.441  1.00  0.00    -0.088 A  
HETATM   32  C   UNL     1      -8.325  10.877  66.477  1.00  0.00    -0.155 A  
HETATM   33  C   UNL     1      -7.477  13.015  68.052  1.00  0.00    -0.134 A  
HETATM   34  C   UNL     1      -7.646  10.609  67.667  1.00  0.00    -0.092 A  
BRANCH  34  35
HETATM   35  O   UNL     1      -7.425   9.362  68.186  1.00  0.00    -0.079 OA 
BRANCH  35  36
HETATM   36  C   UNL     1      -6.389   8.554  67.626  1.00  0.00    -0.053 C  
BRANCH  36  37
HETATM   37  C   UNL     1      -7.013   7.355  66.937  1.00  0.00    -0.082 A  
HETATM   38  C   UNL     1      -8.335   6.996  67.202  1.00  0.00    -0.121 A  
HETATM   39  C   UNL     1      -8.879   5.886  66.560  1.00  0.00    -0.128 A  
HETATM   40  C   UNL     1      -8.096   5.163  65.669  1.00  0.00    -0.115 A  
HETATM   41  C   UNL     1      -6.793   5.580  65.461  1.00  0.00    -0.063 A  
HETATM   42  N   UNL     1      -6.234   6.645  66.080  1.00  0.00    -0.040 NA 
ENDBRANCH  36  37
ENDBRANCH  35  36
ENDBRANCH  34  35
ENDBRANCH  26  28
ENDBRANCH  12  26
ENDBRANCH   3   4
ENDBRANCH   2   3
TORSDOF 11
ENDMDL
MODEL       94
REMARK 921   NORMALIZED FREE ENERGY PREDICTED BY IDOCK:   -3.82 KCAL/MOL
REMARK 922        TOTAL FREE ENERGY PREDICTED BY IDOCK:   -8.04 KCAL/MOL
REMARK 923 INTER-LIGAND FREE ENERGY PREDICTED BY IDOCK:   -6.30 KCAL/MOL
REMARK 924 INTRA-LIGAND FREE ENERGY PREDICTED BY IDOCK:   -1.74 KCAL/MOL
REMARK 927      BINDING AFFINITY PREDICTED BY RF-SCORE:    0.00 PKD
ROOT
HETATM    1  C   UNL     1     -10.664   4.298  65.171  1.00  0.00    -0.134 C  
HETATM    2  C   UNL     1      -9.652   3.166  65.107  1.00  0.00    -0.076 C  
ENDROOT
BRANCH   2   3
HETATM    3  O   UNL     1      -8.380   3.726  64.815  1.00  0.00    -0.096 OA 
BRANCH   3   4
HETATM    4  C   UNL     1      -7.901   4.781  65.541  1.00  0.00    -0.094 A  
HETATM    5  C   UNL     1      -7.741   4.933  66.918  1.00  0.00    -0.092 A  
HETATM    6  C   UNL     1      -5.626  10.836  66.309  1.00  0.00    -0.104 C  
HETATM    7  C   UNL     1      -7.300   6.168  67.440  1.00  0.00    -0.077 A  
HETATM    8  C   UNL     1      -6.331   9.189  64.741  1.00  0.00    -0.067 A  
HETATM    9  C   UNL     1      -7.567   5.862  64.720  1.00  0.00    -0.088 A  
HETATM   10  C   UNL     1      -6.949   7.267  66.599  1.00  0.00    -0.073 A  
HETATM   11  N   UNL     1      -6.795   7.999  64.300  1.00  0.00    -0.064 NA 
HETATM   12  C   UNL     1      -6.458   8.556  67.047  1.00  0.00    -0.057 A  
HETATM   13  C   UNL     1      -7.096   7.073  65.205  1.00  0.00    -0.068 A  
HETATM   14  N   UNL     1      -5.219  11.919  66.397  1.00  0.00    -0.325 NA 
HETATM   15  C   UNL     1      -6.153   9.526  66.072  1.00  0.00    -0.063 A  
BRANCH   5  16
HETATM   16  N   UNL     1      -7.990   3.889  67.830  1.00  0.00    -0.088 N  
HETATM   17  C   UNL     1      -9.181   3.841  68.527  1.00  0.00    -0.156 C  
HETATM   18  H   UNL     1      -7.287   3.166  67.976  1.00  0.00     0.000 HD 
HETATM   19  O   UNL     1     -10.062   4.692  68.468  1.00  0.00    -0.110 OA 
BRANCH  17  20
HETATM   20  C   UNL     1      -9.310   2.632  69.385  1.00  0.00    -0.183 C  
HETATM   21  C   UNL     1      -9.406   2.789  70.717  1.00  0.00    -0.221 C  
BRANCH  21  22
HETATM   22  C   UNL     1      -9.604   1.723  71.755  1.00  0.00    -0.122 C  
BRANCH  22  23
HETATM   23  N   UNL     1      -9.657   2.162  73.157  1.00  0.00    -0.080 NA 
HETATM   24  C   UNL     1      -9.175   3.542  73.299  1.00  0.00    -0.101 C  
HETATM   25  C   UNL     1     -11.052   2.103  73.619  1.00  0.00    -0.199 C  
ENDBRANCH  22  23
ENDBRANCH  21  22
ENDBRANCH  17  20
ENDBRANCH   5  16
BRANCH  12  26
HETATM   26  N   UNL     1      -6.324   8.762  68.463  1.00  0.00    -0.053 NA 
HETATM   27  H   UNL     1      -5.393   9.063  68.752  1.00  0.00     0.000 HD 
BRANCH  26  28
HETATM   28  C   UNL     1      -7.243   8.625  69.528  1.00  0.00    -0.060 A  
HETATM   29 CL   UNL     1      -7.036   7.460  73.356  1.00  0.00    -0.074 Cl 
HETATM   30  C   UNL     1      -8.574   9.040  69.428  1.00  0.00    -0.137 A  
HETATM   31  C   UNL     1      -7.664   8.084  71.867  1.00  0.00    -0.097 A  
HETATM   32  C   UNL     1      -9.441   9.003  70.539  1.00  0.00    -0.265 A  
HETATM   33  C   UNL     1      -6.810   8.110  70.756  1.00  0.00    -0.038 A  
HETATM   34  C   UNL     1      -8.985   8.547  71.777  1.00  0.00    -0.220 A  
BRANCH  34  35
HETATM   35  O   UNL     1      -9.703   8.575  72.942  1.00  0.00    -0.235 OA 
BRANCH  35  36
HETATM   36  C   UNL     1     -10.577   7.486  73.242  1.00  0.00    -0.384 C  
BRANCH  36  37
HETATM   37  C   UNL     1     -11.931   7.748  72.608  1.00  0.00    -0.205 A  
HETATM   38  C   UNL     1     -12.471   6.842  71.694  1.00  0.00    -0.418 A  
HETATM   39  C   UNL     1     -13.712   7.114  71.123  1.00  0.00    -0.190 A  
HETATM   40  C   UNL     1     -14.385   8.277  71.476  1.00  0.00    -0.525 A  
HETATM   41  C   UNL     1     -13.783   9.126  72.387  1.00  0.00    -0.480 A  
HETATM   42  N   UNL     1     -12.573   8.896  72.948  1.00  0.00    -0.180 NA 
ENDBRANCH  36  37
ENDBRANCH  35  36
ENDBRANCH  34  35
ENDBRANCH  26  28
ENDBRANCH  12  26
ENDBRANCH   3   4
ENDBRANCH   2   3
TORSDOF 11
ENDMDL
MODEL       95
REMARK 921   NORMALIZED FREE ENERGY PREDICTED BY IDOCK:   -3.77 KCAL/MOL
REMARK 922        TOTAL FREE ENERGY PREDICTED BY IDOCK:   -7.95 KCAL/MOL
REMARK 923 INTER-LIGAND FREE ENERGY PREDICTED BY IDOCK:   -5.97 KCAL/MOL
REMARK 924 INTRA-LIGAND FREE ENERGY PREDICTED BY IDOCK:   -1.98 KCAL/MOL
REMARK 927      BINDING AFFINITY PREDICTED BY RF-SCORE:    0.00 PKD
ROOT
HETATM    1  C   UNL     1      -6.309  10.039  63.065  1.00  0.00    -0.130 C  
HETATM    2  C   UNL     1      -5.415  10.594  64.160  1.00  0.00    -0.096 C  
ENDROOT
BRANCH   2   3
HETATM    3  O   UNL     1      -5.511   9.737  65.288  1.00  0.00    -0.047 OA 
BRANCH   3   4
HETATM    4  C   UNL     1      -6.653   9.702  66.038  1.00  0.00    -0.079 A  
HETATM    5  C   UNL     1      -7.469   8.627  66.396  1.00  0.00    -0.087 A  
HETATM    6  C   UNL     1     -11.522  12.354  69.457  1.00  0.00    -0.240 C  
HETATM    7  C   UNL     1      -8.660   8.861  67.117  1.00  0.00    -0.112 A  
HETATM    8  C   UNL     1      -9.501  12.775  68.272  1.00  0.00    -0.203 A  
HETATM    9  C   UNL     1      -7.034  10.980  66.458  1.00  0.00    -0.138 A  
HETATM   10  C   UNL     1      -9.040  10.166  67.554  1.00  0.00    -0.143 A  
HETATM   11  N   UNL     1      -8.395  12.497  67.548  1.00  0.00    -0.164 NA 
HETATM   12  C   UNL     1     -10.225  10.492  68.323  1.00  0.00    -0.163 A  
HETATM   13  C   UNL     1      -8.179  11.232  67.199  1.00  0.00    -0.149 A  
HETATM   14  N   UNL     1     -12.368  12.870  70.062  1.00  0.00    -0.188 NA 
HETATM   15  C   UNL     1     -10.440  11.839  68.675  1.00  0.00    -0.242 A  
BRANCH   5  16
HETATM   16  N   UNL     1      -7.148   7.295  66.077  1.00  0.00    -0.065 N  
HETATM   17  C   UNL     1      -7.439   6.786  64.827  1.00  0.00    -0.096 C  
HETATM   18  H   UNL     1      -6.699   6.701  66.774  1.00  0.00     0.000 HD 
HETATM   19  O   UNL     1      -8.029   7.397  63.943  1.00  0.00    -0.132 OA 
BRANCH  17  20
HETATM   20  C   UNL     1      -6.962   5.389  64.636  1.00  0.00    -0.049 C  
HETATM   21  C   UNL     1      -7.236   4.475  65.583  1.00  0.00    -0.072 C  
BRANCH  21  22
HETATM   22  C   UNL     1      -6.909   3.010  65.566  1.00  0.00    -0.048 C  
BRANCH  22  23
HETATM   23  N   UNL     1      -7.807   2.137  64.798  1.00  0.00    -0.072 NA 
HETATM   24  C   UNL     1      -9.192   2.625  64.846  1.00  0.00    -0.139 C  
HETATM   25  C   UNL     1      -7.365   2.119  63.395  1.00  0.00    -0.052 C  
ENDBRANCH  22  23
ENDBRANCH  21  22
ENDBRANCH  17  20
ENDBRANCH   5  16
BRANCH  12  26
HETATM   26  N   UNL     1     -11.111   9.415  68.670  1.00  0.00    -0.463 NA 
HETATM   27  H   UNL     1     -12.030   9.476  68.232  1.00  0.00     0.000 HD 
BRANCH  26  28
HETATM   28  C   UNL     1     -10.944   8.287  69.504  1.00  0.00    -0.041 A  
HETATM   29 CL   UNL     1     -10.380   7.684  73.425  1.00  0.00    -0.399 Cl 
HETATM   30  C   UNL     1     -11.071   6.977  69.030  1.00  0.00    -0.121 A  
HETATM   31  C   UNL     1     -10.657   7.370  71.744  1.00  0.00    -0.201 A  
HETATM   32  C   UNL     1     -11.017   5.871  69.903  1.00  0.00    -0.444 A  
HETATM   33  C   UNL     1     -10.698   8.465  70.871  1.00  0.00    -0.260 A  
HETATM   34  C   UNL     1     -10.834   6.060  71.274  1.00  0.00    -0.272 A  
BRANCH  34  35
HETATM   35  O   UNL     1     -10.880   5.072  72.219  1.00  0.00    -0.205 OA 
BRANCH  35  36
HETATM   36  C   UNL     1      -9.884   4.049  72.199  1.00  0.00    -0.168 C  
BRANCH  36  37
HETATM   37  C   UNL     1      -8.579   4.617  72.726  1.00  0.00    -0.114 A  
HETATM   38  C   UNL     1      -7.494   4.808  71.869  1.00  0.00    -0.087 A  
HETATM   39  C   UNL     1      -6.307   5.325  72.383  1.00  0.00    -0.039 A  
HETATM   40  C   UNL     1      -6.229   5.640  73.734  1.00  0.00    -0.062 A  
HETATM   41  C   UNL     1      -7.347   5.420  74.518  1.00  0.00    -0.082 A  
HETATM   42  N   UNL     1      -8.508   4.907  74.051  1.00  0.00    -0.103 NA 
ENDBRANCH  36  37
ENDBRANCH  35  36
ENDBRANCH  34  35
ENDBRANCH  26  28
ENDBRANCH  12  26
ENDBRANCH   3   4
ENDBRANCH   2   3
TORSDOF 11
ENDMDL
MODEL       96
REMARK 921   NORMALIZED FREE ENERGY PREDICTED BY IDOCK:   -3.75 KCAL/MOL
REMARK 922        TOTAL FREE ENERGY PREDICTED BY IDOCK:   -7.92 KCAL/MOL
REMARK 923 INTER-LIGAND FREE ENERGY PREDICTED BY IDOCK:   -7.27 KCAL/MOL
REMARK 924 INTRA-LIGAND FREE ENERGY PREDICTED BY IDOCK:   -0.65 KCAL/MOL
REMARK 927      BINDING AFFINITY PREDICTED BY RF-SCORE:    0.00 PKD
ROOT
HETATM    1  C   UNL     1     -13.978   7.678  71.790  1.00  0.00    -0.471 C  
HETATM    2  C   UNL     1     -13.892   9.129  72.230  1.00  0.00    -0.463 C  
ENDROOT
BRANCH   2   3
HETATM    3  O   UNL     1     -12.538   9.544  72.126  1.00  0.00    -0.370 OA 
BRANCH   3   4
HETATM    4  C   UNL     1     -11.936   9.652  70.904  1.00  0.00    -0.309 A  
HETATM    5  C   UNL     1     -10.986   8.836  70.288  1.00  0.00    -0.235 A  
HETATM    6  C   UNL     1     -10.643  12.571  65.227  1.00  0.00    -0.290 C  
HETATM    7  C   UNL     1     -10.445   9.210  69.039  1.00  0.00    -0.238 A  
HETATM    8  C   UNL     1     -11.923  12.661  67.232  1.00  0.00    -0.253 A  
HETATM    9  C   UNL     1     -12.352  10.799  70.223  1.00  0.00    -0.423 A  
HETATM   10  C   UNL     1     -10.880  10.377  68.341  1.00  0.00    -0.289 A  
HETATM   11  N   UNL     1     -12.376  12.275  68.445  1.00  0.00    -0.052 NA 
HETATM   12  C   UNL     1     -10.404  10.818  67.044  1.00  0.00    -0.228 A  
HETATM   13  C   UNL     1     -11.864  11.170  68.979  1.00  0.00    -0.348 A  
HETATM   14  N   UNL     1     -10.447  13.124  64.225  1.00  0.00    -0.424 NA 
HETATM   15  C   UNL     1     -10.953  11.996  66.500  1.00  0.00    -0.337 A  
BRANCH   5  16
HETATM   16  N   UNL     1     -10.542   7.627  70.857  1.00  0.00    -0.212 N  
HETATM   17  C   UNL     1      -9.193   7.394  71.036  1.00  0.00    -0.153 C  
HETATM   18  H   UNL     1     -11.221   6.920  71.138  1.00  0.00     0.000 HD 
HETATM   19  O   UNL     1      -8.298   8.151  70.678  1.00  0.00    -0.116 OA 
BRANCH  17  20
HETATM   20  C   UNL     1      -8.906   6.104  71.721  1.00  0.00    -0.138 C  
HETATM   21  C   UNL     1      -9.880   5.181  71.799  1.00  0.00    -0.228 C  
BRANCH  21  22
HETATM   22  C   UNL     1      -9.792   3.801  72.384  1.00  0.00    -0.158 C  
BRANCH  22  23
HETATM   23  N   UNL     1     -10.974   3.309  73.106  1.00  0.00    -0.141 NA 
HETATM   24  C   UNL     1     -10.652   3.003  74.506  1.00  0.00    -0.115 C  
HETATM   25  C   UNL     1     -12.012   4.351  73.081  1.00  0.00     0.200 C  
ENDBRANCH  22  23
ENDBRANCH  21  22
ENDBRANCH  17  20
ENDBRANCH   5  16
BRANCH  12  26
HETATM   26  N   UNL     1      -9.392  10.025  66.402  1.00  0.00    -0.162 NA 
HETATM   27  H   UNL     1      -8.922  10.498  65.630  1.00  0.00     0.000 HD 
BRANCH  26  28
HETATM   28  C   UNL     1      -8.928   8.712  66.642  1.00  0.00    -0.145 A  
HETATM   29 CL   UNL     1     -10.422   5.021  66.197  1.00  0.00    -0.330 Cl 
HETATM   30  C   UNL     1      -7.617   8.442  67.046  1.00  0.00    -0.092 A  
HETATM   31  C   UNL     1      -9.309   6.308  66.522  1.00  0.00    -0.151 A  
HETATM   32  C   UNL     1      -7.142   7.120  67.165  1.00  0.00    -0.087 A  
HETATM   33  C   UNL     1      -9.780   7.623  66.418  1.00  0.00    -0.197 A  
HETATM   34  C   UNL     1      -7.979   6.039  66.880  1.00  0.00    -0.102 A  
BRANCH  34  35
HETATM   35  O   UNL     1      -7.592   4.727  66.852  1.00  0.00    -0.085 OA 
BRANCH  35  36
HETATM   36  C   UNL     1      -6.201   4.418  66.753  1.00  0.00    -0.032 C  
BRANCH  36  37
HETATM   37  C   UNL     1      -5.979   3.515  65.554  1.00  0.00    -0.023 A  
HETATM   38  C   UNL     1      -6.435   3.892  64.291  1.00  0.00    -0.041 A  
HETATM   39  C   UNL     1      -6.223   3.038  63.211  1.00  0.00    -0.014 A  
HETATM   40  C   UNL     1      -5.562   1.833  63.414  1.00  0.00    -0.008 A  
HETATM   41  C   UNL     1      -5.142   1.530  64.697  1.00  0.00    -0.004 A  
HETATM   42  N   UNL     1      -5.345   2.332  65.767  1.00  0.00    -0.008 NA 
ENDBRANCH  36  37
ENDBRANCH  35  36
ENDBRANCH  34  35
ENDBRANCH  26  28
ENDBRANCH  12  26
ENDBRANCH   3   4
ENDBRANCH   2   3
TORSDOF 11
ENDMDL
MODEL       97
REMARK 921   NORMALIZED FREE ENERGY PREDICTED BY IDOCK:   -3.72 KCAL/MOL
REMARK 922        TOTAL FREE ENERGY PREDICTED BY IDOCK:   -7.88 KCAL/MOL
REMARK 923 INTER-LIGAND FREE ENERGY PREDICTED BY IDOCK:   -6.51 KCAL/MOL
REMARK 924 INTRA-LIGAND FREE ENERGY PREDICTED BY IDOCK:   -1.37 KCAL/MOL
REMARK 927      BINDING AFFINITY PREDICTED BY RF-SCORE:    0.00 PKD
ROOT
HETATM    1  C   UNL     1      -9.526   1.612  68.989  1.00  0.00    -0.174 C  
HETATM    2  C   UNL     1      -9.328   2.023  70.438  1.00  0.00    -0.111 C  
ENDROOT
BRANCH   2   3
HETATM    3  O   UNL     1      -9.995   3.260  70.642  1.00  0.00    -0.051 OA 
BRANCH   3   4
HETATM    4  C   UNL     1      -9.288   4.427  70.719  1.00  0.00    -0.154 A  
HETATM    5  C   UNL     1      -8.813   5.265  69.710  1.00  0.00    -0.104 A  
HETATM    6  C   UNL     1      -6.087   9.163  73.841  1.00  0.00     0.095 C  
HETATM    7  C   UNL     1      -8.022   6.386  70.045  1.00  0.00    -0.112 A  
HETATM    8  C   UNL     1      -7.364   7.169  74.083  1.00  0.00    -0.098 A  
HETATM    9  C   UNL     1      -8.996   4.767  72.043  1.00  0.00    -0.144 A  
HETATM   10  C   UNL     1      -7.734   6.736  71.399  1.00  0.00    -0.093 A  
HETATM   11  N   UNL     1      -8.081   6.088  73.703  1.00  0.00    -0.106 NA 
HETATM   12  C   UNL     1      -6.961   7.883  71.833  1.00  0.00    -0.070 A  
HETATM   13  C   UNL     1      -8.253   5.882  72.400  1.00  0.00    -0.110 A  
HETATM   14  N   UNL     1      -5.531   9.987  74.440  1.00  0.00    -0.341 NA 
HETATM   15  C   UNL     1      -6.782   8.079  73.217  1.00  0.00    -0.113 A  
BRANCH   5  16
HETATM   16  N   UNL     1      -9.099   5.051  68.349  1.00  0.00    -0.111 N  
HETATM   17  C   UNL     1      -8.101   4.660  67.478  1.00  0.00    -0.101 C  
HETATM   18  H   UNL     1     -10.049   5.185  68.004  1.00  0.00     0.000 HD 
HETATM   19  O   UNL     1      -6.920   4.530  67.780  1.00  0.00    -0.058 OA 
BRANCH  17  20
HETATM   20  C   UNL     1      -8.594   4.403  66.098  1.00  0.00    -0.113 C  
HETATM   21  C   UNL     1      -9.906   4.184  65.908  1.00  0.00    -0.206 C  
BRANCH  21  22
HETATM   22  C   UNL     1     -10.623   3.967  64.606  1.00  0.00    -0.168 C  
BRANCH  22  23
HETATM   23  N   UNL     1     -10.015   3.016  63.665  1.00  0.00    -0.146 NA 
HETATM   24  C   UNL     1     -11.037   2.367  62.833  1.00  0.00    -0.205 C  
HETATM   25  C   UNL     1      -9.089   3.745  62.786  1.00  0.00    -0.102 C  
ENDBRANCH  22  23
ENDBRANCH  21  22
ENDBRANCH  17  20
ENDBRANCH   5  16
BRANCH  12  26
HETATM   26  N   UNL     1      -6.417   8.743  70.818  1.00  0.00    -0.042 NA 
HETATM   27  H   UNL     1      -5.426   8.950  70.937  1.00  0.00     0.000 HD 
BRANCH  26  28
HETATM   28  C   UNL     1      -7.002   9.353  69.686  1.00  0.00    -0.058 A  
HETATM   29 CL   UNL     1     -10.347  11.439  68.965  1.00  0.00    -0.197 Cl 
HETATM   30  C   UNL     1      -6.350   9.427  68.451  1.00  0.00    -0.053 A  
HETATM   31  C   UNL     1      -8.804  10.688  68.730  1.00  0.00    -0.161 A  
HETATM   32  C   UNL     1      -6.901  10.143  67.369  1.00  0.00    -0.077 A  
HETATM   33  C   UNL     1      -8.258   9.964  69.797  1.00  0.00    -0.191 A  
HETATM   34  C   UNL     1      -8.124  10.802  67.508  1.00  0.00    -0.111 A  
BRANCH  34  35
HETATM   35  O   UNL     1      -8.693  11.615  66.565  1.00  0.00    -0.184 OA 
BRANCH  35  36
HETATM   36  C   UNL     1      -9.336  11.022  65.437  1.00  0.00    -0.216 C  
BRANCH  36  37
HETATM   37  C   UNL     1     -10.514  11.887  65.027  1.00  0.00    -0.289 A  
HETATM   38  C   UNL     1     -11.417  12.352  65.985  1.00  0.00    -0.431 A  
HETATM   39  C   UNL     1     -12.493  13.137  65.578  1.00  0.00    -0.516 A  
HETATM   40  C   UNL     1     -12.643  13.442  64.230  1.00  0.00    -0.225 A  
HETATM   41  C   UNL     1     -11.707  12.941  63.342  1.00  0.00    -0.461 A  
HETATM   42  N   UNL     1     -10.661  12.165  63.706  1.00  0.00    -0.398 NA 
ENDBRANCH  36  37
ENDBRANCH  35  36
ENDBRANCH  34  35
ENDBRANCH  26  28
ENDBRANCH  12  26
ENDBRANCH   3   4
ENDBRANCH   2   3
TORSDOF 11
ENDMDL
MODEL       98
REMARK 921   NORMALIZED FREE ENERGY PREDICTED BY IDOCK:   -3.66 KCAL/MOL
REMARK 922        TOTAL FREE ENERGY PREDICTED BY IDOCK:   -7.77 KCAL/MOL
REMARK 923 INTER-LIGAND FREE ENERGY PREDICTED BY IDOCK:   -7.73 KCAL/MOL
REMARK 924 INTRA-LIGAND FREE ENERGY PREDICTED BY IDOCK:   -0.04 KCAL/MOL
REMARK 927      BINDING AFFINITY PREDICTED BY RF-SCORE:    0.00 PKD
ROOT
HETATM    1  C   UNL     1      -8.371  14.232  67.228  1.00  0.00    -0.222 C  
HETATM    2  C   UNL     1      -9.510  14.261  66.223  1.00  0.00    -0.252 C  
ENDROOT
BRANCH   2   3
HETATM    3  O   UNL     1     -10.490  13.321  66.638  1.00  0.00    -0.273 OA 
BRANCH   3   4
HETATM    4  C   UNL     1     -10.244  11.979  66.556  1.00  0.00    -0.206 A  
HETATM    5  C   UNL     1     -10.688  10.927  67.357  1.00  0.00    -0.257 A  
HETATM    6  C   UNL     1      -7.413   6.664  64.072  1.00  0.00    -0.093 C  
HETATM    7  C   UNL     1     -10.219   9.617  67.118  1.00  0.00    -0.305 A  
HETATM    8  C   UNL     1      -7.678   9.021  63.871  1.00  0.00    -0.125 A  
HETATM    9  C   UNL     1      -9.375  11.677  65.502  1.00  0.00    -0.172 A  
HETATM   10  C   UNL     1      -9.341   9.310  66.035  1.00  0.00    -0.283 A  
HETATM   11  N   UNL     1      -8.127  10.260  64.171  1.00  0.00    -0.155 NA 
HETATM   12  C   UNL     1      -8.837   7.993  65.697  1.00  0.00    -0.094 A  
HETATM   13  C   UNL     1      -8.929  10.394  65.223  1.00  0.00    -0.187 A  
HETATM   14  N   UNL     1      -6.890   5.745  63.593  1.00  0.00    -0.040 NA 
HETATM   15  C   UNL     1      -7.981   7.873  64.584  1.00  0.00    -0.143 A  
BRANCH   5  16
HETATM   16  N   UNL     1     -11.609  11.110  68.406  1.00  0.00    -0.304 N  
HETATM   17  C   UNL     1     -11.415  12.108  69.339  1.00  0.00    -0.290 C  
HETATM   18  H   UNL     1     -12.424  10.501  68.476  1.00  0.00     0.000 HD 
HETATM   19  O   UNL     1     -10.441  12.852  69.378  1.00  0.00     0.138 OA 
BRANCH  17  20
HETATM   20  C   UNL     1     -12.523  12.210  70.328  1.00  0.00    -0.164 C  
HETATM   21  C   UNL     1     -12.589  13.295  71.118  1.00  0.00    -0.412 C  
BRANCH  21  22
HETATM   22  C   UNL     1     -13.645  13.630  72.132  1.00  0.00    -0.538 C  
BRANCH  22  23
HETATM   23  N   UNL     1     -13.258  14.543  73.217  1.00  0.00    -0.596 NA 
HETATM   24  C   UNL     1     -11.797  14.627  73.345  1.00  0.00     0.060 C  
HETATM   25  C   UNL     1     -13.781  15.884  72.917  1.00  0.00    -0.511 C  
ENDBRANCH  22  23
ENDBRANCH  21  22
ENDBRANCH  17  20
ENDBRANCH   5  16
BRANCH  12  26
HETATM   26  N   UNL     1      -9.239   6.893  66.530  1.00  0.00    -0.161 NA 
HETATM   27  H   UNL     1      -9.694   6.133  66.023  1.00  0.00     0.000 HD 
BRANCH  26  28
HETATM   28  C   UNL     1      -9.120   6.669  67.920  1.00  0.00    -0.114 A  
HETATM   29 CL   UNL     1     -11.587   6.857  71.072  1.00  0.00    -0.351 Cl 
HETATM   30  C   UNL     1      -7.953   6.164  68.502  1.00  0.00    -0.108 A  
HETATM   31  C   UNL     1     -10.172   6.566  70.116  1.00  0.00    -0.192 A  
HETATM   32  C   UNL     1      -7.897   5.837  69.872  1.00  0.00    -0.088 A  
HETATM   33  C   UNL     1     -10.219   6.901  68.757  1.00  0.00    -0.179 A  
HETATM   34  C   UNL     1      -9.016   6.013  70.688  1.00  0.00    -0.146 A  
BRANCH  34  35
HETATM   35  O   UNL     1      -9.107   5.625  71.997  1.00  0.00    -0.138 OA 
BRANCH  35  36
HETATM   36  C   UNL     1      -8.341   4.505  72.441  1.00  0.00    -0.110 C  
BRANCH  36  37
HETATM   37  C   UNL     1      -9.269   3.501  73.101  1.00  0.00    -0.098 A  
HETATM   38  C   UNL     1      -8.751   2.467  73.881  1.00  0.00    -0.070 A  
HETATM   39  C   UNL     1      -9.627   1.556  74.468  1.00  0.00    -0.095 A  
HETATM   40  C   UNL     1     -10.994   1.699  74.266  1.00  0.00    -0.182 A  
HETATM   41  C   UNL     1     -11.429   2.749  73.478  1.00  0.00    -0.113 A  
HETATM   42  N   UNL     1     -10.603   3.640  72.884  1.00  0.00    -0.162 NA 
ENDBRANCH  36  37
ENDBRANCH  35  36
ENDBRANCH  34  35
ENDBRANCH  26  28
ENDBRANCH  12  26
ENDBRANCH   3   4
ENDBRANCH   2   3
TORSDOF 11
ENDMDL
MODEL       99
REMARK 921   NORMALIZED FREE ENERGY PREDICTED BY IDOCK:   -3.62 KCAL/MOL
REMARK 922        TOTAL FREE ENERGY PREDICTED BY IDOCK:   -7.71 KCAL/MOL
REMARK 923 INTER-LIGAND FREE ENERGY PREDICTED BY IDOCK:   -7.85 KCAL/MOL
REMARK 924 INTRA-LIGAND FREE ENERGY PREDICTED BY IDOCK:    0.13 KCAL/MOL
REMARK 927      BINDING AFFINITY PREDICTED BY RF-SCORE:    0.00 PKD
ROOT
HETATM    1  C   UNL     1     -12.664  16.288  74.449  1.00  0.00    -0.397 C  
HETATM    2  C   UNL     1     -12.136  15.023  73.794  1.00  0.00    -0.446 C  
ENDROOT
BRANCH   2   3
HETATM    3  O   UNL     1     -12.772  14.880  72.533  1.00  0.00    -0.328 OA 
BRANCH   3   4
HETATM    4  C   UNL     1     -12.033  14.784  71.387  1.00  0.00    -0.345 A  
HETATM    5  C   UNL     1     -11.607  13.661  70.676  1.00  0.00     0.130 A  
HETATM    6  C   UNL     1      -8.504  17.160  66.455  1.00  0.00    -0.274 C  
HETATM    7  C   UNL     1     -10.767  13.821  69.553  1.00  0.00     0.073 A  
HETATM    8  C   UNL     1      -9.810  17.699  68.370  1.00  0.00    -0.334 A  
HETATM    9  C   UNL     1     -11.640  16.042  70.920  1.00  0.00    -0.453 A  
HETATM   10  C   UNL     1     -10.377  15.107  69.071  1.00  0.00    -0.244 A  
HETATM   11  N   UNL     1     -10.579  17.485  69.461  1.00  0.00    -0.000 NA 
HETATM   12  C   UNL     1      -9.547  15.363  67.911  1.00  0.00    -0.206 A  
HETATM   13  C   UNL     1     -10.847  16.227  69.798  1.00  0.00    -0.356 A  
HETATM   14  N   UNL     1      -7.887  17.629  65.591  1.00  0.00    -0.455 NA 
HETATM   15  C   UNL     1      -9.267  16.703  67.575  1.00  0.00    -0.207 A  
BRANCH   5  16
HETATM   16  N   UNL     1     -11.993  12.353  71.023  1.00  0.00    -0.273 N  
HETATM   17  C   UNL     1     -13.276  12.097  71.464  1.00  0.00    -0.172 C  
HETATM   18  H   UNL     1     -11.320  11.590  70.950  1.00  0.00     0.000 HD 
HETATM   19  O   UNL     1     -14.138  12.950  71.644  1.00  0.00     0.265 OA 
BRANCH  17  20
HETATM   20  C   UNL     1     -13.534  10.652  71.711  1.00  0.00    -0.325 C  
HETATM   21  C   UNL     1     -12.506   9.790  71.649  1.00  0.00    -0.500 C  
BRANCH  21  22
HETATM   22  C   UNL     1     -12.527   8.313  71.922  1.00  0.00    -0.337 C  
BRANCH  22  23
HETATM   23  N   UNL     1     -11.329   7.551  71.545  1.00  0.00    -0.250 NA 
HETATM   24  C   UNL     1     -11.432   6.151  71.979  1.00  0.00    -0.313 C  
HETATM   25  C   UNL     1     -11.191   7.578  70.081  1.00  0.00    -0.196 C  
ENDBRANCH  22  23
ENDBRANCH  21  22
ENDBRANCH  17  20
ENDBRANCH   5  16
BRANCH  12  26
HETATM   26  N   UNL     1      -9.054  14.228  67.181  1.00  0.00    -0.218 NA 
HETATM   27  H   UNL     1      -8.722  14.450  66.243  1.00  0.00     0.000 HD 
BRANCH  26  28
HETATM   28  C   UNL     1      -8.944  12.861  67.523  1.00  0.00    -0.193 A  
HETATM   29 CL   UNL     1     -10.489   9.431  66.145  1.00  0.00    -0.155 Cl 
HETATM   30  C   UNL     1      -8.050  12.401  68.495  1.00  0.00    -0.096 A  
HETATM   31  C   UNL     1      -9.525  10.540  67.063  1.00  0.00    -0.163 A  
HETATM   32  C   UNL     1      -7.872  11.023  68.737  1.00  0.00    -0.138 A  
HETATM   33  C   UNL     1      -9.707  11.910  66.836  1.00  0.00    -0.212 A  
HETATM   34  C   UNL     1      -8.592  10.078  68.004  1.00  0.00    -0.121 A  
BRANCH  34  35
HETATM   35  O   UNL     1      -8.416   8.723  68.077  1.00  0.00    -0.124 OA 
BRANCH  35  36
HETATM   36  C   UNL     1      -7.115   8.209  68.360  1.00  0.00    -0.077 C  
BRANCH  36  37
HETATM   37  C   UNL     1      -6.999   7.949  69.851  1.00  0.00    -0.050 A  
HETATM   38  C   UNL     1      -6.031   8.607  70.610  1.00  0.00    -0.032 A  
HETATM   39  C   UNL     1      -5.944   8.342  71.975  1.00  0.00    -0.054 A  
HETATM   40  C   UNL     1      -6.822   7.432  72.550  1.00  0.00    -0.067 A  
HETATM   41  C   UNL     1      -7.753   6.819  71.730  1.00  0.00    -0.096 A  
HETATM   42  N   UNL     1      -7.852   7.045  70.400  1.00  0.00    -0.106 NA 
ENDBRANCH  36  37
ENDBRANCH  35  36
ENDBRANCH  34  35
ENDBRANCH  26  28
ENDBRANCH  12  26
ENDBRANCH   3   4
ENDBRANCH   2   3
TORSDOF 11
ENDMDL
MODEL      100
REMARK 921   NORMALIZED FREE ENERGY PREDICTED BY IDOCK:   -3.51 KCAL/MOL
REMARK 922        TOTAL FREE ENERGY PREDICTED BY IDOCK:   -7.53 KCAL/MOL
REMARK 923 INTER-LIGAND FREE ENERGY PREDICTED BY IDOCK:   -7.45 KCAL/MOL
REMARK 924 INTRA-LIGAND FREE ENERGY PREDICTED BY IDOCK:   -0.08 KCAL/MOL
REMARK 927      BINDING AFFINITY PREDICTED BY RF-SCORE:    0.00 PKD
ROOT
HETATM    1  C   UNL     1      -8.337   4.603  64.810  1.00  0.00    -0.127 C  
HETATM    2  C   UNL     1      -7.640   3.296  65.150  1.00  0.00    -0.080 C  
ENDROOT
BRANCH   2   3
HETATM    3  O   UNL     1      -6.856   3.503  66.315  1.00  0.00    -0.051 OA 
BRANCH   3   4
HETATM    4  C   UNL     1      -7.411   4.046  67.440  1.00  0.00    -0.068 A  
HETATM    5  C   UNL     1      -7.379   5.355  67.924  1.00  0.00    -0.073 A  
HETATM    6  C   UNL     1     -10.680   3.836  73.070  1.00  0.00    -0.145 C  
HETATM    7  C   UNL     1      -7.965   5.655  69.172  1.00  0.00    -0.096 A  
HETATM    8  C   UNL     1      -9.923   2.582  71.194  1.00  0.00     0.105 A  
HETATM    9  C   UNL     1      -8.077   3.083  68.204  1.00  0.00    -0.077 A  
HETATM   10  C   UNL     1      -8.654   4.671  69.945  1.00  0.00    -0.096 A  
HETATM   11  N   UNL     1      -9.310   2.344  70.013  1.00  0.00    -0.126 NA 
HETATM   12  C   UNL     1      -9.311   4.898  71.217  1.00  0.00    -0.150 A  
HETATM   13  C   UNL     1      -8.693   3.359  69.415  1.00  0.00    -0.077 A  
HETATM   14  N   UNL     1     -11.272   3.751  74.065  1.00  0.00    -0.078 NA 
HETATM   15  C   UNL     1      -9.951   3.807  71.839  1.00  0.00    -0.230 A  
BRANCH   5  16
HETATM   16  N   UNL     1      -6.789   6.413  67.208  1.00  0.00    -0.067 N  
HETATM   17  C   UNL     1      -6.191   7.462  67.878  1.00  0.00    -0.043 C  
HETATM   18  H   UNL     1      -6.803   6.405  66.188  1.00  0.00     0.000 HD 
HETATM   19  O   UNL     1      -6.173   7.595  69.097  1.00  0.00    -0.033 OA 
BRANCH  17  20
HETATM   20  C   UNL     1      -5.550   8.450  66.968  1.00  0.00    -0.038 C  
HETATM   21  C   UNL     1      -6.156   8.751  65.807  1.00  0.00    -0.052 C  
BRANCH  21  22
HETATM   22  C   UNL     1      -5.723   9.755  64.778  1.00  0.00    -0.084 C  
BRANCH  22  23
HETATM   23  N   UNL     1      -6.407   9.711  63.478  1.00  0.00    -0.103 NA 
HETATM   24  C   UNL     1      -5.968   8.555  62.686  1.00  0.00    -0.087 C  
HETATM   25  C   UNL     1      -7.855   9.600  63.708  1.00  0.00    -0.139 C  
ENDBRANCH  22  23
ENDBRANCH  21  22
ENDBRANCH  17  20
ENDBRANCH   5  16
BRANCH  12  26
HETATM   26  N   UNL     1      -9.257   6.224  71.767  1.00  0.00    -0.144 NA 
HETATM   27  H   UNL     1      -8.596   6.328  72.537  1.00  0.00     0.000 HD 
BRANCH  26  28
HETATM   28  C   UNL     1      -9.950   7.411  71.439  1.00  0.00    -0.186 A  
HETATM   29 CL   UNL     1     -10.386   9.656  68.149  1.00  0.00    -0.233 Cl 
HETATM   30  C   UNL     1     -10.823   8.042  72.331  1.00  0.00    -0.392 A  
HETATM   31  C   UNL     1     -10.591   9.060  69.763  1.00  0.00    -0.228 A  
HETATM   32  C   UNL     1     -11.594   9.156  71.943  1.00  0.00    -0.430 A  
HETATM   33  C   UNL     1      -9.817   7.961  70.158  1.00  0.00    -0.184 A  
HETATM   34  C   UNL     1     -11.502   9.661  70.644  1.00  0.00    -0.306 A  
BRANCH  34  35
HETATM   35  O   UNL     1     -12.282  10.660  70.130  1.00  0.00    -0.300 OA 
BRANCH  35  36
HETATM   36  C   UNL     1     -11.666  11.889  69.743  1.00  0.00    -0.331 C  
BRANCH  36  37
HETATM   37  C   UNL     1     -12.335  13.033  70.483  1.00  0.00    -0.287 A  
HETATM   38  C   UNL     1     -12.176  14.348  70.045  1.00  0.00    -0.408 A  
HETATM   39  C   UNL     1     -12.796  15.378  70.750  1.00  0.00    -0.524 A  
HETATM   40  C   UNL     1     -13.560  15.073  71.869  1.00  0.00    -0.520 A  
HETATM   41  C   UNL     1     -13.669  13.745  72.241  1.00  0.00    -0.575 A  
HETATM   42  N   UNL     1     -13.068  12.726  71.586  1.00  0.00    -0.381 NA 
ENDBRANCH  36  37
ENDBRANCH  35  36
ENDBRANCH  34  35
ENDBRANCH  26  28
ENDBRANCH  12  26
ENDBRANCH   3   4
ENDBRANCH   2   3
TORSDOF 11
ENDMDL
MODEL      101
REMARK 921   NORMALIZED FREE ENERGY PREDICTED BY IDOCK:   -3.43 KCAL/MOL
REMARK 922        TOTAL FREE ENERGY PREDICTED BY IDOCK:   -7.39 KCAL/MOL
REMARK 923 INTER-LIGAND FREE ENERGY PREDICTED BY IDOCK:   -6.79 KCAL/MOL
REMARK 924 INTRA-LIGAND FREE ENERGY PREDICTED BY IDOCK:   -0.60 KCAL/MOL
REMARK 927      BINDING AFFINITY PREDICTED BY RF-SCORE:    0.00 PKD
ROOT
HETATM    1  C   UNL     1      -9.873   4.254  71.497  1.00  0.00    -0.260 C  
HETATM    2  C   UNL     1      -9.623   5.699  71.101  1.00  0.00    -0.168 C  
ENDROOT
BRANCH   2   3
HETATM    3  O   UNL     1     -10.688   6.118  70.259  1.00  0.00    -0.243 OA 
BRANCH   3   4
HETATM    4  C   UNL     1     -10.875   7.443  69.981  1.00  0.00    -0.252 A  
HETATM    5  C   UNL     1     -10.392   8.224  68.931  1.00  0.00    -0.215 A  
HETATM    6  C   UNL     1     -13.108  13.442  71.186  1.00  0.00    -0.178 C  
HETATM    7  C   UNL     1     -10.658   9.610  68.909  1.00  0.00    -0.239 A  
HETATM    8  C   UNL     1     -13.055  11.182  71.932  1.00  0.00    -0.408 A  
HETATM    9  C   UNL     1     -11.654   8.070  70.958  1.00  0.00    -0.303 A  
HETATM   10  C   UNL     1     -11.463  10.246  69.902  1.00  0.00    -0.340 A  
HETATM   11  N   UNL     1     -12.736   9.869  71.923  1.00  0.00    -0.408 NA 
HETATM   12  C   UNL     1     -11.812  11.652  69.939  1.00  0.00    -0.358 A  
HETATM   13  C   UNL     1     -11.961   9.422  70.939  1.00  0.00    -0.280 A  
HETATM   14  N   UNL     1     -13.530  14.493  71.439  1.00  0.00    -0.364 NA 
HETATM   15  C   UNL     1     -12.627  12.108  70.994  1.00  0.00    -0.359 A  
BRANCH   5  16
HETATM   16  N   UNL     1      -9.649   7.684  67.864  1.00  0.00    -0.142 N  
HETATM   17  C   UNL     1     -10.084   7.836  66.562  1.00  0.00    -0.154 C  
HETATM   18  H   UNL     1      -8.785   7.178  68.054  1.00  0.00     0.000 HD 
HETATM   19  O   UNL     1     -11.136   8.374  66.234  1.00  0.00     1.039 OA 
BRANCH  17  20
HETATM   20  C   UNL     1      -9.140   7.274  65.559  1.00  0.00     0.173 C  
HETATM   21  C   UNL     1      -7.845   7.138  65.891  1.00  0.00    -0.106 C  
BRANCH  21  22
HETATM   22  C   UNL     1      -6.742   6.543  65.065  1.00  0.00    -0.042 C  
BRANCH  22  23
HETATM   23  N   UNL     1      -6.342   7.283  63.859  1.00  0.00    -0.044 NA 
HETATM   24  C   UNL     1      -5.831   6.375  62.824  1.00  0.00    -0.027 C  
HETATM   25  C   UNL     1      -7.516   7.990  63.326  1.00  0.00    -0.118 C  
ENDBRANCH  22  23
ENDBRANCH  21  22
ENDBRANCH  17  20
ENDBRANCH   5  16
BRANCH  12  26
HETATM   26  N   UNL     1     -11.294  12.495  68.897  1.00  0.00    -0.277 NA 
HETATM   27  H   UNL     1     -11.740  12.355  67.990  1.00  0.00     0.000 HD 
BRANCH  26  28
HETATM   28  C   UNL     1     -10.281  13.480  68.896  1.00  0.00    -0.057 A  
HETATM   29 CL   UNL     1     -10.099  17.401  69.704  1.00  0.00     0.047 Cl 
HETATM   30  C   UNL     1      -8.935  13.173  68.674  1.00  0.00     0.048 A  
HETATM   31  C   UNL     1      -9.609  15.785  69.316  1.00  0.00    -0.270 A  
HETATM   32  C   UNL     1      -7.928  14.152  68.794  1.00  0.00    -0.102 A  
HETATM   33  C   UNL     1     -10.608  14.811  69.182  1.00  0.00    -0.251 A  
HETATM   34  C   UNL     1      -8.255  15.464  69.141  1.00  0.00    -0.243 A  
BRANCH  34  35
HETATM   35  O   UNL     1      -7.352  16.461  69.395  1.00  0.00    -0.233 OA 
BRANCH  35  36
HETATM   36  C   UNL     1      -6.320  16.718  68.443  1.00  0.00    -0.139 C  
BRANCH  36  37
HETATM   37  C   UNL     1      -6.404  18.168  68.001  1.00  0.00    -0.181 A  
HETATM   38  C   UNL     1      -7.145  18.522  66.873  1.00  0.00    -0.220 A  
HETATM   39  C   UNL     1      -7.197  19.859  66.488  1.00  0.00    -0.275 A  
HETATM   40  C   UNL     1      -6.514  20.811  67.234  1.00  0.00    -0.360 A  
HETATM   41  C   UNL     1      -5.799  20.381  68.338  1.00  0.00    -0.278 A  
HETATM   42  N   UNL     1      -5.719  19.088  68.729  1.00  0.00    -0.205 NA 
ENDBRANCH  36  37
ENDBRANCH  35  36
ENDBRANCH  34  35
ENDBRANCH  26  28
ENDBRANCH  12  26
ENDBRANCH   3   4
ENDBRANCH   2   3
TORSDOF 11
ENDMDL
MODEL      102
REMARK 921   NORMALIZED FREE ENERGY PREDICTED BY IDOCK:   -3.43 KCAL/MOL
REMARK 922        TOTAL FREE ENERGY PREDICTED BY IDOCK:   -7.39 KCAL/MOL
REMARK 923 INTER-LIGAND FREE ENERGY PREDICTED BY IDOCK:   -6.70 KCAL/MOL
REMARK 924 INTRA-LIGAND FREE ENERGY PREDICTED BY IDOCK:   -0.69 KCAL/MOL
REMARK 927      BINDING AFFINITY PREDICTED BY RF-SCORE:    0.00 PKD
ROOT
HETATM    1  C   UNL     1      -5.276   3.361  71.338  1.00  0.00    -0.004 C  
HETATM    2  C   UNL     1      -5.129   4.563  70.420  1.00  0.00     0.000 C  
ENDROOT
BRANCH   2   3
HETATM    3  O   UNL     1      -5.750   4.251  69.181  1.00  0.00    -0.016 OA 
BRANCH   3   4
HETATM    4  C   UNL     1      -6.517   5.179  68.535  1.00  0.00    -0.040 A  
HETATM    5  C   UNL     1      -7.650   5.873  68.963  1.00  0.00    -0.090 A  
HETATM    6  C   UNL     1      -8.293   8.806  63.424  1.00  0.00    -0.156 C  
HETATM    7  C   UNL     1      -8.327   6.729  68.067  1.00  0.00    -0.120 A  
HETATM    8  C   UNL     1      -6.714   7.232  64.259  1.00  0.00    -0.047 A  
HETATM    9  C   UNL     1      -6.067   5.403  67.231  1.00  0.00    -0.030 A  
HETATM   10  C   UNL     1      -7.858   6.964  66.739  1.00  0.00    -0.107 A  
HETATM   11  N   UNL     1      -6.130   6.396  65.145  1.00  0.00    -0.029 NA 
HETATM   12  C   UNL     1      -8.470   7.848  65.767  1.00  0.00    -0.140 A  
HETATM   13  C   UNL     1      -6.692   6.267  66.344  1.00  0.00    -0.056 A  
HETATM   14  N   UNL     1      -8.569   9.436  62.489  1.00  0.00    -0.199 NA 
HETATM   15  C   UNL     1      -7.865   7.964  64.499  1.00  0.00    -0.134 A  
BRANCH   5  16
HETATM   16  N   UNL     1      -8.153   5.769  70.273  1.00  0.00    -0.103 N  
HETATM   17  C   UNL     1      -8.478   4.534  70.800  1.00  0.00    -0.091 C  
HETATM   18  H   UNL     1      -8.279   6.609  70.836  1.00  0.00     0.000 HD 
HETATM   19  O   UNL     1      -8.420   3.474  70.187  1.00  0.00    -0.057 OA 
BRANCH  17  20
HETATM   20  C   UNL     1      -8.918   4.600  72.220  1.00  0.00    -0.140 C  
HETATM   21  C   UNL     1     -10.112   4.081  72.553  1.00  0.00    -0.232 C  
BRANCH  21  22
HETATM   22  C   UNL     1     -10.722   3.983  73.922  1.00  0.00    -0.237 C  
BRANCH  22  23
HETATM   23  N   UNL     1     -11.396   2.722  74.261  1.00  0.00     0.219 NA 
HETATM   24  C   UNL     1     -12.256   2.267  73.160  1.00  0.00     0.425 C  
HETATM   25  C   UNL     1     -10.377   1.693  74.516  1.00  0.00    -0.117 C  
ENDBRANCH  22  23
ENDBRANCH  21  22
ENDBRANCH  17  20
ENDBRANCH   5  16
BRANCH  12  26
HETATM   26  N   UNL     1      -9.665   8.544  66.159  1.00  0.00    -0.409 NA 
HETATM   27  H   UNL     1     -10.519   8.161  65.754  1.00  0.00     0.000 HD 
BRANCH  26  28
HETATM   28  C   UNL     1      -9.874   9.660  67.000  1.00  0.00    -0.195 A  
HETATM   29 CL   UNL     1      -9.477  13.631  66.643  1.00  0.00    -0.280 Cl 
HETATM   30  C   UNL     1     -10.445   9.544  68.271  1.00  0.00    -0.265 A  
HETATM   31  C   UNL     1      -9.875  12.078  67.301  1.00  0.00    -0.192 A  
HETATM   32  C   UNL     1     -10.753  10.681  69.045  1.00  0.00    -0.257 A  
HETATM   33  C   UNL     1      -9.558  10.944  66.541  1.00  0.00    -0.224 A  
HETATM   34  C   UNL     1     -10.492  11.962  68.555  1.00  0.00    -0.224 A  
BRANCH  34  35
HETATM   35  O   UNL     1     -10.853  13.131  69.169  1.00  0.00    -0.200 OA 
BRANCH  35  36
HETATM   36  C   UNL     1     -12.235  13.482  69.229  1.00  0.00    -0.211 C  
BRANCH  36  37
HETATM   37  C   UNL     1     -12.516  14.162  70.557  1.00  0.00    -0.361 A  
HETATM   38  C   UNL     1     -13.284  13.522  71.530  1.00  0.00    -0.402 A  
HETATM   39  C   UNL     1     -13.532  14.173  72.736  1.00  0.00    -0.592 A  
HETATM   40  C   UNL     1     -13.008  15.443  72.945  1.00  0.00    -0.577 A  
HETATM   41  C   UNL     1     -12.258  16.012  71.931  1.00  0.00    -0.489 A  
HETATM   42  N   UNL     1     -12.013  15.410  70.744  1.00  0.00    -0.324 NA 
ENDBRANCH  36  37
ENDBRANCH  35  36
ENDBRANCH  34  35
ENDBRANCH  26  28
ENDBRANCH  12  26
ENDBRANCH   3   4
ENDBRANCH   2   3
TORSDOF 11
ENDMDL
MODEL      103
REMARK 921   NORMALIZED FREE ENERGY PREDICTED BY IDOCK:   -3.20 KCAL/MOL
REMARK 922        TOTAL FREE ENERGY PREDICTED BY IDOCK:   -7.01 KCAL/MOL
REMARK 923 INTER-LIGAND FREE ENERGY PREDICTED BY IDOCK:   -6.38 KCAL/MOL
REMARK 924 INTRA-LIGAND FREE ENERGY PREDICTED BY IDOCK:   -0.63 KCAL/MOL
REMARK 927      BINDING AFFINITY PREDICTED BY RF-SCORE:    0.00 PKD
ROOT
HETATM    1  C   UNL     1      -5.832  16.571  70.285  1.00  0.00    -0.117 C  
HETATM    2  C   UNL     1      -5.329  15.145  70.139  1.00  0.00    -0.121 C  
ENDROOT
BRANCH   2   3
HETATM    3  O   UNL     1      -6.392  14.265  70.472  1.00  0.00    -0.174 OA 
BRANCH   3   4
HETATM    4  C   UNL     1      -7.295  13.875  69.523  1.00  0.00     0.216 A  
HETATM    5  C   UNL     1      -7.698  12.599  69.126  1.00  0.00     0.319 A  
HETATM    6  C   UNL     1     -11.540  14.882  64.685  1.00  0.00    -0.395 C  
HETATM    7  C   UNL     1      -8.596  12.452  68.047  1.00  0.00    -0.180 A  
HETATM    8  C   UNL     1     -10.105  15.911  66.282  1.00  0.00    -0.301 A  
HETATM    9  C   UNL     1      -7.846  14.972  68.853  1.00  0.00    -0.162 A  
HETATM   10  C   UNL     1      -9.165  13.574  67.372  1.00  0.00    -0.223 A  
HETATM   11  N   UNL     1      -9.213  15.991  67.294  1.00  0.00    -0.203 NA 
HETATM   12  C   UNL     1     -10.116  13.515  66.279  1.00  0.00    -0.298 A  
HETATM   13  C   UNL     1      -8.758  14.855  67.815  1.00  0.00    -0.167 A  
HETATM   14  N   UNL     1     -12.292  15.110  63.831  1.00  0.00    -0.664 NA 
HETATM   15  C   UNL     1     -10.579  14.730  65.735  1.00  0.00    -0.338 A  
BRANCH   5  16
HETATM   16  N   UNL     1      -7.253  11.430  69.771  1.00  0.00    -0.353 N  
HETATM   17  C   UNL     1      -6.067  10.833  69.393  1.00  0.00    -0.053 C  
HETATM   18  H   UNL     1      -7.811  11.021  70.520  1.00  0.00     0.000 HD 
HETATM   19  O   UNL     1      -5.356  11.210  68.468  1.00  0.00    -0.044 OA 
BRANCH  17  20
HETATM   20  C   UNL     1      -5.711   9.654  70.230  1.00  0.00    -0.045 C  
HETATM   21  C   UNL     1      -6.571   9.249  71.180  1.00  0.00    -0.080 C  
BRANCH  21  22
HETATM   22  C   UNL     1      -6.445   8.060  72.087  1.00  0.00    -0.057 C  
BRANCH  22  23
HETATM   23  N   UNL     1      -6.487   8.321  73.533  1.00  0.00    -0.111 NA 
HETATM   24  C   UNL     1      -7.820   8.044  74.084  1.00  0.00    -0.220 C  
HETATM   25  C   UNL     1      -5.512   7.445  74.201  1.00  0.00    -0.054 C  
ENDBRANCH  22  23
ENDBRANCH  21  22
ENDBRANCH  17  20
ENDBRANCH   5  16
BRANCH  12  26
HETATM   26  N   UNL     1     -10.517  12.216  65.816  1.00  0.00    -0.245 NA 
HETATM   27  H   UNL     1     -10.771  12.188  64.828  1.00  0.00     0.000 HD 
BRANCH  26  28
HETATM   28  C   UNL     1     -10.626  10.971  66.474  1.00  0.00    -0.254 A  
HETATM   29 CL   UNL     1      -9.443   7.218  65.718  1.00  0.00     0.130 Cl 
HETATM   30  C   UNL     1     -11.167  10.846  67.758  1.00  0.00    -0.384 A  
HETATM   31  C   UNL     1     -10.105   8.591  66.541  1.00  0.00    -0.258 A  
HETATM   32  C   UNL     1     -11.157   9.613  68.443  1.00  0.00    -0.090 A  
HETATM   33  C   UNL     1     -10.129   9.815  65.860  1.00  0.00    -0.314 A  
HETATM   34  C   UNL     1     -10.603   8.478  67.848  1.00  0.00    -0.156 A  
BRANCH  34  35
HETATM   35  O   UNL     1     -10.440   7.266  68.462  1.00  0.00    -0.189 OA 
BRANCH  35  36
HETATM   36  C   UNL     1      -9.354   7.093  69.372  1.00  0.00    -0.147 C  
BRANCH  36  37
HETATM   37  C   UNL     1      -8.728   5.729  69.143  1.00  0.00    -0.113 A  
HETATM   38  C   UNL     1      -9.508   4.659  68.704  1.00  0.00    -0.213 A  
HETATM   39  C   UNL     1      -8.907   3.417  68.510  1.00  0.00    -0.160 A  
HETATM   40  C   UNL     1      -7.548   3.272  68.755  1.00  0.00    -0.048 A  
HETATM   41  C   UNL     1      -6.843   4.380  69.191  1.00  0.00    -0.046 A  
HETATM   42  N   UNL     1      -7.401   5.594  69.401  1.00  0.00    -0.069 NA 
ENDBRANCH  36  37
ENDBRANCH  35  36
ENDBRANCH  34  35
ENDBRANCH  26  28
ENDBRANCH  12  26
ENDBRANCH   3   4
ENDBRANCH   2   3
TORSDOF 11
ENDMDL
MODEL      104
REMARK 921   NORMALIZED FREE ENERGY PREDICTED BY IDOCK:   -3.14 KCAL/MOL
REMARK 922        TOTAL FREE ENERGY PREDICTED BY IDOCK:   -6.91 KCAL/MOL
REMARK 923 INTER-LIGAND FREE ENERGY PREDICTED BY IDOCK:   -5.73 KCAL/MOL
REMARK 924 INTRA-LIGAND FREE ENERGY PREDICTED BY IDOCK:   -1.18 KCAL/MOL
REMARK 927      BINDING AFFINITY PREDICTED BY RF-SCORE:    0.00 PKD
ROOT
HETATM    1  C   UNL     1      -7.961  17.376  66.706  1.00  0.00    -0.278 C  
HETATM    2  C   UNL     1      -7.652  16.013  67.300  1.00  0.00    -0.194 C  
ENDROOT
BRANCH   2   3
HETATM    3  O   UNL     1      -8.582  15.079  66.772  1.00  0.00    -0.244 OA 
BRANCH   3   4
HETATM    4  C   UNL     1      -8.626  13.798  67.247  1.00  0.00    -0.212 A  
HETATM    5  C   UNL     1      -9.403  13.235  68.260  1.00  0.00    -0.205 A  
HETATM    6  C   UNL     1      -6.697   7.586  67.585  1.00  0.00    -0.067 C  
HETATM    7  C   UNL     1      -9.202  11.887  68.630  1.00  0.00    -0.066 A  
HETATM    8  C   UNL     1      -6.406   9.672  66.477  1.00  0.00    -0.066 A  
HETATM    9  C   UNL     1      -7.701  12.974  66.598  1.00  0.00     0.599 A  
HETATM   10  C   UNL     1      -8.264  11.046  67.958  1.00  0.00    -0.123 A  
HETATM   11  N   UNL     1      -6.612  10.977  66.193  1.00  0.00    -0.111 NA 
HETATM   12  C   UNL     1      -8.017   9.647  68.250  1.00  0.00    -0.096 A  
HETATM   13  C   UNL     1      -7.511  11.639  66.917  1.00  0.00    -0.131 A  
HETATM   14  N   UNL     1      -6.324   6.487  67.607  1.00  0.00    -0.041 NA 
HETATM   15  C   UNL     1      -7.055   8.967  67.477  1.00  0.00    -0.076 A  
BRANCH   5  16
HETATM   16  N   UNL     1     -10.404  13.956  68.937  1.00  0.00    -0.363 N  
HETATM   17  C   UNL     1     -11.735  13.762  68.625  1.00  0.00    -0.356 C  
HETATM   18  H   UNL     1     -10.145  14.625  69.661  1.00  0.00     0.000 HD 
HETATM   19  O   UNL     1     -12.146  13.027  67.734  1.00  0.00    -0.318 OA 
BRANCH  17  20
HETATM   20  C   UNL     1     -12.660  14.545  69.489  1.00  0.00    -0.037 C  
HETATM   21  C   UNL     1     -12.168  15.154  70.581  1.00  0.00    -0.401 C  
BRANCH  21  22
HETATM   22  C   UNL     1     -12.901  16.037  71.549  1.00  0.00    -0.124 C  
BRANCH  22  23
HETATM   23  N   UNL     1     -13.265  15.445  72.844  1.00  0.00    -0.469 NA 
HETATM   24  C   UNL     1     -13.729  14.061  72.684  1.00  0.00    -0.477 C  
HETATM   25  C   UNL     1     -12.080  15.444  73.715  1.00  0.00    -0.521 C  
ENDBRANCH  22  23
ENDBRANCH  21  22
ENDBRANCH  17  20
ENDBRANCH   5  16
BRANCH  12  26
HETATM   26  N   UNL     1      -8.767   9.047  69.318  1.00  0.00    -0.135 NA 
HETATM   27  H   UNL     1      -9.759   9.287  69.315  1.00  0.00     0.000 HD 
BRANCH  26  28
HETATM   28  C   UNL     1      -8.386   8.187  70.372  1.00  0.00    -0.120 A  
HETATM   29 CL   UNL     1      -6.060   8.494  73.621  1.00  0.00    -0.124 Cl 
HETATM   30  C   UNL     1      -8.929   6.909  70.532  1.00  0.00    -0.155 A  
HETATM   31  C   UNL     1      -7.176   7.852  72.461  1.00  0.00    -0.090 A  
HETATM   32  C   UNL     1      -8.623   6.114  71.655  1.00  0.00    -0.134 A  
HETATM   33  C   UNL     1      -7.473   8.633  71.336  1.00  0.00    -0.124 A  
HETATM   34  C   UNL     1      -7.760   6.590  72.644  1.00  0.00    -0.102 A  
BRANCH  34  35
HETATM   35  O   UNL     1      -7.484   5.954  73.823  1.00  0.00    -0.092 OA 
BRANCH  35  36
HETATM   36  C   UNL     1      -6.360   5.077  73.890  1.00  0.00    -0.065 C  
BRANCH  36  37
HETATM   37  C   UNL     1      -6.668   3.815  73.104  1.00  0.00    -0.038 A  
HETATM   38  C   UNL     1      -5.732   3.292  72.211  1.00  0.00    -0.008 A  
HETATM   39  C   UNL     1      -6.046   2.137  71.498  1.00  0.00    -0.014 A  
HETATM   40  C   UNL     1      -7.281   1.532  71.692  1.00  0.00    -0.031 A  
HETATM   41  C   UNL     1      -8.156   2.113  72.592  1.00  0.00    -0.054 A  
HETATM   42  N   UNL     1      -7.885   3.240  73.289  1.00  0.00    -0.067 NA 
ENDBRANCH  36  37
ENDBRANCH  35  36
ENDBRANCH  34  35
ENDBRANCH  26  28
ENDBRANCH  12  26
ENDBRANCH   3   4
ENDBRANCH   2   3
TORSDOF 11
ENDMDL
MODEL      105
REMARK 921   NORMALIZED FREE ENERGY PREDICTED BY IDOCK:   -2.92 KCAL/MOL
REMARK 922        TOTAL FREE ENERGY PREDICTED BY IDOCK:   -6.55 KCAL/MOL
REMARK 923 INTER-LIGAND FREE ENERGY PREDICTED BY IDOCK:   -5.72 KCAL/MOL
REMARK 924 INTRA-LIGAND FREE ENERGY PREDICTED BY IDOCK:   -0.83 KCAL/MOL
REMARK 927      BINDING AFFINITY PREDICTED BY RF-SCORE:    0.00 PKD
ROOT
HETATM    1  C   UNL     1      -8.090   2.267  65.567  1.00  0.00    -0.084 C  
HETATM    2  C   UNL     1      -6.814   3.074  65.739  1.00  0.00    -0.048 C  
ENDROOT
BRANCH   2   3
HETATM    3  O   UNL     1      -6.967   4.298  65.036  1.00  0.00    -0.055 OA 
BRANCH   3   4
HETATM    4  C   UNL     1      -7.103   5.477  65.713  1.00  0.00    -0.067 A  
HETATM    5  C   UNL     1      -7.931   5.815  66.785  1.00  0.00    -0.102 A  
HETATM    6  C   UNL     1      -5.900  11.778  66.844  1.00  0.00    -0.143 C  
HETATM    7  C   UNL     1      -7.953   7.143  67.261  1.00  0.00    -0.111 A  
HETATM    8  C   UNL     1      -5.357   9.887  65.504  1.00  0.00    -0.052 A  
HETATM    9  C   UNL     1      -6.283   6.476  65.180  1.00  0.00    -0.034 A  
HETATM   10  C   UNL     1      -7.106   8.159  66.722  1.00  0.00    -0.077 A  
HETATM   11  N   UNL     1      -5.406   8.611  65.063  1.00  0.00    -0.039 NA 
HETATM   12  C   UNL     1      -7.040   9.536  67.171  1.00  0.00    -0.086 A  
HETATM   13  C   UNL     1      -6.259   7.779  65.654  1.00  0.00    -0.038 A  
HETATM   14  N   UNL     1      -5.650  12.900  67.011  1.00  0.00    -0.269 NA 
HETATM   15  C   UNL     1      -6.137  10.404  66.525  1.00  0.00    -0.072 A  
BRANCH   5  16
HETATM   16  N   UNL     1      -8.751   4.874  67.434  1.00  0.00    -0.104 N  
HETATM   17  C   UNL     1      -8.363   4.324  68.641  1.00  0.00    -0.083 C  
HETATM   18  H   UNL     1      -9.636   4.596  67.012  1.00  0.00     0.000 HD 
HETATM   19  O   UNL     1      -7.295   4.546  69.200  1.00  0.00    -0.052 OA 
BRANCH  17  20
HETATM   20  C   UNL     1      -9.383   3.410  69.224  1.00  0.00    -0.240 C  
HETATM   21  C   UNL     1      -9.126   2.819  70.403  1.00  0.00    -0.185 C  
BRANCH  21  22
HETATM   22  C   UNL     1     -10.028   1.919  71.195  1.00  0.00     0.028 C  
BRANCH  22  23
HETATM   23  N   UNL     1      -9.650   1.660  72.592  1.00  0.00    -0.076 NA 
HETATM   24  C   UNL     1      -8.381   2.319  72.929  1.00  0.00    -0.062 C  
HETATM   25  C   UNL     1     -10.701   2.189  73.474  1.00  0.00    -0.156 C  
ENDBRANCH  22  23
ENDBRANCH  21  22
ENDBRANCH  17  20
ENDBRANCH   5  16
BRANCH  12  26
HETATM   26  N   UNL     1      -7.912   9.929  68.243  1.00  0.00    -0.099 NA 
HETATM   27  H   UNL     1      -7.653   9.544  69.152  1.00  0.00     0.000 HD 
BRANCH  26  28
HETATM   28  C   UNL     1      -9.061  10.751  68.272  1.00  0.00    -0.157 A  
HETATM   29 CL   UNL     1     -12.178  11.228  70.745  1.00  0.00    -0.473 Cl 
HETATM   30  C   UNL     1      -9.280  11.769  67.340  1.00  0.00    -0.174 A  
HETATM   31  C   UNL     1     -11.081  11.476  69.427  1.00  0.00    -0.226 A  
HETATM   32  C   UNL     1     -10.373  12.652  67.457  1.00  0.00    -0.220 A  
HETATM   33  C   UNL     1     -10.001  10.593  69.298  1.00  0.00    -0.215 A  
HETATM   34  C   UNL     1     -11.271  12.528  68.518  1.00  0.00    -0.283 A  
BRANCH  34  35
HETATM   35  O   UNL     1     -12.294  13.395  68.791  1.00  0.00    -0.205 OA 
BRANCH  35  36
HETATM   36  C   UNL     1     -12.113  14.381  69.807  1.00  0.00    -0.334 C  
BRANCH  36  37
HETATM   37  C   UNL     1     -11.458  15.606  69.196  1.00  0.00    -0.359 A  
HETATM   38  C   UNL     1     -11.581  15.867  67.831  1.00  0.00    -0.109 A  
HETATM   39  C   UNL     1     -10.962  16.995  67.297  1.00  0.00    -0.015 A  
HETATM   40  C   UNL     1     -10.239  17.836  68.134  1.00  0.00    -0.383 A  
HETATM   41  C   UNL     1     -10.162  17.508  69.476  1.00  0.00     0.037 A  
HETATM   42  N   UNL     1     -10.740  16.413  70.020  1.00  0.00    -0.299 NA 
ENDBRANCH  36  37
ENDBRANCH  35  36
ENDBRANCH  34  35
ENDBRANCH  26  28
ENDBRANCH  12  26
ENDBRANCH   3   4
ENDBRANCH   2   3
TORSDOF 11
ENDMDL
MODEL      106
REMARK 921   NORMALIZED FREE ENERGY PREDICTED BY IDOCK:   -2.81 KCAL/MOL
REMARK 922        TOTAL FREE ENERGY PREDICTED BY IDOCK:   -6.37 KCAL/MOL
REMARK 923 INTER-LIGAND FREE ENERGY PREDICTED BY IDOCK:   -6.30 KCAL/MOL
REMARK 924 INTRA-LIGAND FREE ENERGY PREDICTED BY IDOCK:   -0.07 KCAL/MOL
REMARK 927      BINDING AFFINITY PREDICTED BY RF-SCORE:    0.00 PKD
ROOT
HETATM    1  C   UNL     1     -12.493  17.016  74.148  1.00  0.00     0.118 C  
HETATM    2  C   UNL     1     -11.735  15.824  73.590  1.00  0.00    -0.036 C  
ENDROOT
BRANCH   2   3
HETATM    3  O   UNL     1     -12.357  15.434  72.374  1.00  0.00    -0.324 OA 
BRANCH   3   4
HETATM    4  C   UNL     1     -11.628  15.333  71.222  1.00  0.00    -0.380 A  
HETATM    5  C   UNL     1     -11.237  14.208  70.494  1.00  0.00     0.185 A  
HETATM    6  C   UNL     1      -8.077  17.676  66.290  1.00  0.00    -0.246 C  
HETATM    7  C   UNL     1     -10.402  14.359  69.366  1.00  0.00    -0.047 A  
HETATM    8  C   UNL     1      -9.355  18.226  68.221  1.00  0.00    -0.308 A  
HETATM    9  C   UNL     1     -11.207  16.585  70.765  1.00  0.00    -0.063 A  
HETATM   10  C   UNL     1      -9.983  15.641  68.896  1.00  0.00    -0.215 A  
HETATM   11  N   UNL     1     -10.121  18.019  69.315  1.00  0.00    -0.210 NA 
HETATM   12  C   UNL     1      -9.155  15.889  67.733  1.00  0.00    -0.196 A  
HETATM   13  C   UNL     1     -10.418  16.764  69.640  1.00  0.00    -0.209 A  
HETATM   14  N   UNL     1      -7.455  18.139  65.426  1.00  0.00    -0.322 NA 
HETATM   15  C   UNL     1      -8.844  17.226  67.411  1.00  0.00    -0.222 A  
BRANCH   5  16
HETATM   16  N   UNL     1     -11.653  12.906  70.829  1.00  0.00    -0.161 N  
HETATM   17  C   UNL     1     -12.988  12.636  71.055  1.00  0.00    -0.071 C  
HETATM   18  H   UNL     1     -10.964  12.158  70.907  1.00  0.00     0.000 HD 
HETATM   19  O   UNL     1     -13.883  13.474  71.045  1.00  0.00     0.135 OA 
BRANCH  17  20
HETATM   20  C   UNL     1     -13.259  11.197  71.319  1.00  0.00    -0.216 C  
HETATM   21  C   UNL     1     -12.270  10.306  71.134  1.00  0.00    -0.500 C  
BRANCH  21  22
HETATM   22  C   UNL     1     -12.304   8.828  71.396  1.00  0.00    -0.306 C  
BRANCH  22  23
HETATM   23  N   UNL     1     -11.020   8.115  71.347  1.00  0.00    -0.231 NA 
HETATM   24  C   UNL     1     -10.718   7.658  69.985  1.00  0.00    -0.241 C  
HETATM   25  C   UNL     1      -9.954   9.029  71.783  1.00  0.00    -0.289 C  
ENDBRANCH  22  23
ENDBRANCH  21  22
ENDBRANCH  17  20
ENDBRANCH   5  16
BRANCH  12  26
HETATM   26  N   UNL     1      -8.696  14.751  66.986  1.00  0.00    -0.223 NA 
HETATM   27  H   UNL     1      -8.280  14.985  66.085  1.00  0.00     0.000 HD 
BRANCH  26  28
HETATM   28  C   UNL     1      -8.715  13.367  67.270  1.00  0.00    -0.218 A  
HETATM   29 CL   UNL     1     -10.503  10.145  65.697  1.00  0.00    -0.193 Cl 
HETATM   30  C   UNL     1      -7.896  12.789  68.245  1.00  0.00    -0.141 A  
HETATM   31  C   UNL     1      -9.478  11.126  66.690  1.00  0.00    -0.183 A  
HETATM   32  C   UNL     1      -7.844  11.392  68.430  1.00  0.00    -0.135 A  
HETATM   33  C   UNL     1      -9.535  12.515  66.519  1.00  0.00    -0.240 A  
HETATM   34  C   UNL     1      -8.619  10.545  67.635  1.00  0.00    -0.118 A  
BRANCH  34  35
HETATM   35  O   UNL     1      -8.562   9.178  67.652  1.00  0.00    -0.117 OA 
BRANCH  35  36
HETATM   36  C   UNL     1      -7.318   8.541  67.944  1.00  0.00    -0.093 C  
BRANCH  36  37
HETATM   37  C   UNL     1      -6.585   8.268  66.643  1.00  0.00    -0.056 A  
HETATM   38  C   UNL     1      -6.287   6.960  66.261  1.00  0.00    -0.050 A  
HETATM   39  C   UNL     1      -5.606   6.741  65.066  1.00  0.00    -0.031 A  
HETATM   40  C   UNL     1      -5.240   7.827  64.281  1.00  0.00    -0.029 A  
HETATM   41  C   UNL     1      -5.569   9.094  64.730  1.00  0.00    -0.062 A  
HETATM   42  N   UNL     1      -6.217   9.338  65.892  1.00  0.00    -0.056 NA 
ENDBRANCH  36  37
ENDBRANCH  35  36
ENDBRANCH  34  35
ENDBRANCH  26  28
ENDBRANCH  12  26
ENDBRANCH   3   4
ENDBRANCH   2   3
TORSDOF 11
ENDMDL
MODEL      107
REMARK 921   NORMALIZED FREE ENERGY PREDICTED BY IDOCK:   -2.79 KCAL/MOL
REMARK 922        TOTAL FREE ENERGY PREDICTED BY IDOCK:   -6.35 KCAL/MOL
REMARK 923 INTER-LIGAND FREE ENERGY PREDICTED BY IDOCK:   -6.08 KCAL/MOL
REMARK 924 INTRA-LIGAND FREE ENERGY PREDICTED BY IDOCK:   -0.27 KCAL/MOL
REMARK 927      BINDING AFFINITY PREDICTED BY RF-SCORE:    0.00 PKD
ROOT
HETATM    1  C   UNL     1      -6.934   6.788  74.508  1.00  0.00    -0.095 C  
HETATM    2  C   UNL     1      -6.095   5.647  73.959  1.00  0.00    -0.059 C  
ENDROOT
BRANCH   2   3
HETATM    3  O   UNL     1      -5.395   6.121  72.819  1.00  0.00    -0.030 OA 
BRANCH   3   4
HETATM    4  C   UNL     1      -5.963   7.047  71.989  1.00  0.00    -0.038 A  
HETATM    5  C   UNL     1      -6.938   6.901  71.002  1.00  0.00    -0.066 A  
HETATM    6  C   UNL     1      -6.671  12.996  69.433  1.00  0.00    -0.018 C  
HETATM    7  C   UNL     1      -7.304   8.010  70.209  1.00  0.00    -0.060 A  
HETATM    8  C   UNL     1      -5.533  11.683  71.059  1.00  0.00    -0.063 A  
HETATM    9  C   UNL     1      -5.415   8.319  72.183  1.00  0.00    -0.038 A  
HETATM   10  C   UNL     1      -6.750   9.309  70.416  1.00  0.00    -0.073 A  
HETATM   11  N   UNL     1      -5.193  10.580  71.761  1.00  0.00    -0.255 NA 
HETATM   12  C   UNL     1      -7.091  10.506  69.672  1.00  0.00    -0.141 A  
HETATM   13  C   UNL     1      -5.783   9.432  71.442  1.00  0.00    -0.073 A  
HETATM   14  N   UNL     1      -6.766  14.074  69.011  1.00  0.00    -0.104 NA 
HETATM   15  C   UNL     1      -6.447  11.711  70.019  1.00  0.00    -0.039 A  
BRANCH   5  16
HETATM   16  N   UNL     1      -7.598   5.681  70.764  1.00  0.00    -0.088 N  
HETATM   17  C   UNL     1      -8.827   5.427  71.340  1.00  0.00    -0.135 C  
HETATM   18  H   UNL     1      -7.165   4.980  70.163  1.00  0.00     0.000 HD 
HETATM   19  O   UNL     1      -9.402   6.176  72.122  1.00  0.00    -0.152 OA 
BRANCH  17  20
HETATM   20  C   UNL     1      -9.415   4.126  70.919  1.00  0.00    -0.232 C  
HETATM   21  C   UNL     1      -8.999   3.568  69.770  1.00  0.00    -0.174 C  
BRANCH  21  22
HETATM   22  C   UNL     1      -9.408   2.245  69.191  1.00  0.00    -0.117 C  
BRANCH  22  23
HETATM   23  N   UNL     1      -8.638   1.758  68.038  1.00  0.00    -0.069 NA 
HETATM   24  C   UNL     1      -9.064   2.418  66.797  1.00  0.00    -0.098 C  
HETATM   25  C   UNL     1      -7.214   2.052  68.260  1.00  0.00    -0.043 C  
ENDBRANCH  22  23
ENDBRANCH  21  22
ENDBRANCH  17  20
ENDBRANCH   5  16
BRANCH  12  26
HETATM   26  N   UNL     1      -8.059  10.382  68.618  1.00  0.00    -0.111 NA 
HETATM   27  H   UNL     1      -8.154   9.434  68.251  1.00  0.00     0.000 HD 
BRANCH  26  28
HETATM   28  C   UNL     1      -8.904  11.328  67.996  1.00  0.00    -0.148 A  
HETATM   29 CL   UNL     1     -12.129  13.442  69.086  1.00  0.00    -0.342 Cl 
HETATM   30  C   UNL     1      -8.646  11.840  66.720  1.00  0.00    -0.185 A  
HETATM   31  C   UNL     1     -10.793  12.861  68.148  1.00  0.00    -0.236 A  
HETATM   32  C   UNL     1      -9.435  12.869  66.167  1.00  0.00    -0.161 A  
HETATM   33  C   UNL     1     -10.014  11.828  68.687  1.00  0.00    -0.181 A  
HETATM   34  C   UNL     1     -10.503  13.406  66.889  1.00  0.00    -0.273 A  
BRANCH  34  35
HETATM   35  O   UNL     1     -11.259  14.478  66.498  1.00  0.00    -0.329 OA 
BRANCH  35  36
HETATM   36  C   UNL     1     -11.535  15.511  67.445  1.00  0.00    -0.140 C  
BRANCH  36  37
HETATM   37  C   UNL     1     -10.550  16.647  67.238  1.00  0.00    -0.281 A  
HETATM   38  C   UNL     1     -10.634  17.804  68.014  1.00  0.00    -0.372 A  
HETATM   39  C   UNL     1      -9.720  18.834  67.796  1.00  0.00    -0.356 A  
HETATM   40  C   UNL     1      -8.747  18.686  66.816  1.00  0.00    -0.294 A  
HETATM   41  C   UNL     1      -8.731  17.510  66.088  1.00  0.00    -0.120 A  
HETATM   42  N   UNL     1      -9.612  16.499  66.267  1.00  0.00    -0.288 NA 
ENDBRANCH  36  37
ENDBRANCH  35  36
ENDBRANCH  34  35
ENDBRANCH  26  28
ENDBRANCH  12  26
ENDBRANCH   3   4
ENDBRANCH   2   3
TORSDOF 11
ENDMDL
MODEL      108
REMARK 921   NORMALIZED FREE ENERGY PREDICTED BY IDOCK:   -2.60 KCAL/MOL
REMARK 922        TOTAL FREE ENERGY PREDICTED BY IDOCK:   -6.04 KCAL/MOL
REMARK 923 INTER-LIGAND FREE ENERGY PREDICTED BY IDOCK:   -5.93 KCAL/MOL
REMARK 924 INTRA-LIGAND FREE ENERGY PREDICTED BY IDOCK:   -0.10 KCAL/MOL
REMARK 927      BINDING AFFINITY PREDICTED BY RF-SCORE:    0.00 PKD
ROOT
HETATM    1  C   UNL     1      -8.108  17.099  66.229  1.00  0.00    -0.325 C  
HETATM    2  C   UNL     1      -9.242  16.169  65.833  1.00  0.00    -0.261 C  
ENDROOT
BRANCH   2   3
HETATM    3  O   UNL     1      -8.815  14.833  66.051  1.00  0.00    -0.053 OA 
BRANCH   3   4
HETATM    4  C   UNL     1      -9.302  14.110  67.104  1.00  0.00    -0.237 A  
HETATM    5  C   UNL     1      -8.893  12.882  67.625  1.00  0.00    -0.187 A  
HETATM    6  C   UNL     1     -13.457  12.884  71.968  1.00  0.00    -0.473 C  
HETATM    7  C   UNL     1      -9.621  12.292  68.680  1.00  0.00    -0.051 A  
HETATM    8  C   UNL     1     -12.834  14.422  70.261  1.00  0.00    -0.178 A  
HETATM    9  C   UNL     1     -10.405  14.736  67.693  1.00  0.00    -0.237 A  
HETATM   10  C   UNL     1     -10.741  12.938  69.287  1.00  0.00     0.032 A  
HETATM   11  N   UNL     1     -12.124  14.921  69.225  1.00  0.00    -0.281 NA 
HETATM   12  C   UNL     1     -11.524  12.421  70.392  1.00  0.00     0.376 A  
HETATM   13  C   UNL     1     -11.114  14.195  68.754  1.00  0.00    -0.262 A  
HETATM   14  N   UNL     1     -14.218  12.709  72.827  1.00  0.00     0.061 NA 
HETATM   15  C   UNL     1     -12.596  13.201  70.870  1.00  0.00    -0.377 A  
BRANCH   5  16
HETATM   16  N   UNL     1      -7.761  12.195  67.148  1.00  0.00    -0.219 N  
HETATM   17  C   UNL     1      -7.897  10.967  66.532  1.00  0.00    -0.155 C  
HETATM   18  H   UNL     1      -6.835  12.607  67.258  1.00  0.00     0.000 HD 
HETATM   19  O   UNL     1      -8.955  10.361  66.404  1.00  0.00    -0.146 OA 
BRANCH  17  20
HETATM   20  C   UNL     1      -6.611  10.422  66.020  1.00  0.00    -0.120 C  
HETATM   21  C   UNL     1      -6.639   9.514  65.029  1.00  0.00    -0.088 C  
BRANCH  21  22
HETATM   22  C   UNL     1      -5.472   8.885  64.326  1.00  0.00    -0.056 C  
BRANCH  22  23
HETATM   23  N   UNL     1      -5.536   8.818  62.859  1.00  0.00    -0.070 NA 
HETATM   24  C   UNL     1      -5.432   7.432  62.385  1.00  0.00    -0.046 C  
HETATM   25  C   UNL     1      -6.826   9.369  62.416  1.00  0.00    -0.093 C  
ENDBRANCH  22  23
ENDBRANCH  21  22
ENDBRANCH  17  20
ENDBRANCH   5  16
BRANCH  12  26
HETATM   26  N   UNL     1     -11.159  11.136  70.923  1.00  0.00     0.205 NA 
HETATM   27  H   UNL     1     -10.955  11.143  71.922  1.00  0.00     0.000 HD 
BRANCH  26  28
HETATM   28  C   UNL     1     -11.030   9.866  70.317  1.00  0.00    -0.309 A  
HETATM   29 CL   UNL     1     -11.817   6.087  71.391  1.00  0.00    -0.163 Cl 
HETATM   30  C   UNL     1     -10.636   9.707  68.985  1.00  0.00    -0.237 A  
HETATM   31  C   UNL     1     -11.366   7.455  70.429  1.00  0.00    -0.249 A  
HETATM   32  C   UNL     1     -10.628   8.440  68.366  1.00  0.00    -0.155 A  
HETATM   33  C   UNL     1     -11.359   8.715  71.042  1.00  0.00    -0.322 A  
HETATM   34  C   UNL     1     -11.018   7.304  69.078  1.00  0.00    -0.047 A  
BRANCH  34  35
HETATM   35  O   UNL     1     -11.156   6.050  68.548  1.00  0.00    -0.313 OA 
BRANCH  35  36
HETATM   36  C   UNL     1     -10.159   5.566  67.648  1.00  0.00    -0.178 C  
BRANCH  36  37
HETATM   37  C   UNL     1      -9.285   4.558  68.371  1.00  0.00    -0.133 A  
HETATM   38  C   UNL     1      -9.564   4.200  69.691  1.00  0.00    -0.277 A  
HETATM   39  C   UNL     1      -8.740   3.278  70.332  1.00  0.00    -0.124 A  
HETATM   40  C   UNL     1      -7.663   2.733  69.644  1.00  0.00    -0.046 A  
HETATM   41  C   UNL     1      -7.452   3.139  68.339  1.00  0.00    -0.049 A  
HETATM   42  N   UNL     1      -8.226   4.043  67.695  1.00  0.00    -0.094 NA 
ENDBRANCH  36  37
ENDBRANCH  35  36
ENDBRANCH  34  35
ENDBRANCH  26  28
ENDBRANCH  12  26
ENDBRANCH   3   4
ENDBRANCH   2   3
TORSDOF 11
ENDMDL
MODEL      109
REMARK 921   NORMALIZED FREE ENERGY PREDICTED BY IDOCK:   -2.55 KCAL/MOL
REMARK 922        TOTAL FREE ENERGY PREDICTED BY IDOCK:   -5.95 KCAL/MOL
REMARK 923 INTER-LIGAND FREE ENERGY PREDICTED BY IDOCK:   -6.24 KCAL/MOL
REMARK 924 INTRA-LIGAND FREE ENERGY PREDICTED BY IDOCK:    0.29 KCAL/MOL
REMARK 927      BINDING AFFINITY PREDICTED BY RF-SCORE:    0.00 PKD
ROOT
HETATM    1  C   UNL     1      -6.962   6.818  74.552  1.00  0.00    -0.095 C  
HETATM    2  C   UNL     1      -6.031   5.762  73.982  1.00  0.00    -0.061 C  
ENDROOT
BRANCH   2   3
HETATM    3  O   UNL     1      -5.409   6.298  72.824  1.00  0.00    -0.034 OA 
BRANCH   3   4
HETATM    4  C   UNL     1      -6.068   7.201  72.036  1.00  0.00    -0.037 A  
HETATM    5  C   UNL     1      -7.213   7.053  71.253  1.00  0.00    -0.075 A  
HETATM    6  C   UNL     1      -6.905  12.992  69.176  1.00  0.00    -0.058 C  
HETATM    7  C   UNL     1      -7.656   8.126  70.450  1.00  0.00    -0.076 A  
HETATM    8  C   UNL     1      -5.563  11.721  70.675  1.00  0.00    -0.146 A  
HETATM    9  C   UNL     1      -5.425   8.443  72.027  1.00  0.00    -0.040 A  
HETATM   10  C   UNL     1      -7.004   9.396  70.451  1.00  0.00    -0.100 A  
HETATM   11  N   UNL     1      -5.161  10.649  71.392  1.00  0.00    -0.183 NA 
HETATM   12  C   UNL     1      -7.409  10.559  69.685  1.00  0.00    -0.149 A  
HETATM   13  C   UNL     1      -5.861   9.524  71.276  1.00  0.00    -0.075 A  
HETATM   14  N   UNL     1      -7.017  14.042  68.692  1.00  0.00    -0.099 NA 
HETATM   15  C   UNL     1      -6.649  11.738  69.815  1.00  0.00    -0.047 A  
BRANCH   5  16
HETATM   16  N   UNL     1      -7.970   5.867  71.235  1.00  0.00    -0.111 N  
HETATM   17  C   UNL     1      -7.735   4.903  70.274  1.00  0.00    -0.062 C  
HETATM   18  H   UNL     1      -8.696   5.718  71.935  1.00  0.00     0.000 HD 
HETATM   19  O   UNL     1      -6.930   5.011  69.356  1.00  0.00    -0.052 OA 
BRANCH  17  20
HETATM   20  C   UNL     1      -8.570   3.683  70.450  1.00  0.00    -0.109 C  
HETATM   21  C   UNL     1      -9.046   3.394  71.673  1.00  0.00    -0.171 C  
BRANCH  21  22
HETATM   22  C   UNL     1      -9.950   2.261  72.062  1.00  0.00    -0.161 C  
BRANCH  22  23
HETATM   23  N   UNL     1     -10.164   2.045  73.500  1.00  0.00    -0.094 NA 
HETATM   24  C   UNL     1      -9.802   3.239  74.275  1.00  0.00    -0.117 C  
HETATM   25  C   UNL     1     -11.587   1.752  73.728  1.00  0.00    -0.170 C  
ENDBRANCH  22  23
ENDBRANCH  21  22
ENDBRANCH  17  20
ENDBRANCH   5  16
BRANCH  12  26
HETATM   26  N   UNL     1      -8.558  10.428  68.833  1.00  0.00    -0.140 NA 
HETATM   27  H   UNL     1      -8.894   9.469  68.733  1.00  0.00     0.000 HD 
BRANCH  26  28
HETATM   28  C   UNL     1      -9.309  11.380  68.108  1.00  0.00    -0.181 A  
HETATM   29 CL   UNL     1     -12.252  13.960  68.966  1.00  0.00    -0.353 Cl 
HETATM   30  C   UNL     1      -9.030  11.699  66.776  1.00  0.00    -0.189 A  
HETATM   31  C   UNL     1     -11.013  13.122  68.092  1.00  0.00    -0.251 A  
HETATM   32  C   UNL     1      -9.715  12.736  66.109  1.00  0.00    -0.246 A  
HETATM   33  C   UNL     1     -10.339  12.082  68.745  1.00  0.00    -0.181 A  
HETATM   34  C   UNL     1     -10.698  13.473  66.770  1.00  0.00    -0.278 A  
BRANCH  34  35
HETATM   35  O   UNL     1     -11.341  14.568  66.259  1.00  0.00    -0.340 OA 
BRANCH  35  36
HETATM   36  C   UNL     1     -11.521  15.715  67.089  1.00  0.00     0.009 C  
BRANCH  36  37
HETATM   37  C   UNL     1     -10.243  16.535  67.083  1.00  0.00    -0.284 A  
HETATM   38  C   UNL     1     -10.190  17.766  67.739  1.00  0.00    -0.362 A  
HETATM   39  C   UNL     1      -9.006  18.500  67.710  1.00  0.00    -0.289 A  
HETATM   40  C   UNL     1      -7.906  17.990  67.031  1.00  0.00    -0.236 A  
HETATM   41  C   UNL     1      -8.038  16.764  66.404  1.00  0.00    -0.320 A  
HETATM   42  N   UNL     1      -9.178  16.036  66.404  1.00  0.00    -0.276 NA 
ENDBRANCH  36  37
ENDBRANCH  35  36
ENDBRANCH  34  35
ENDBRANCH  26  28
ENDBRANCH  12  26
ENDBRANCH   3   4
ENDBRANCH   2   3
TORSDOF 11
ENDMDL
MODEL      110
REMARK 921   NORMALIZED FREE ENERGY PREDICTED BY IDOCK:   -2.53 KCAL/MOL
REMARK 922        TOTAL FREE ENERGY PREDICTED BY IDOCK:   -5.92 KCAL/MOL
REMARK 923 INTER-LIGAND FREE ENERGY PREDICTED BY IDOCK:   -6.75 KCAL/MOL
REMARK 924 INTRA-LIGAND FREE ENERGY PREDICTED BY IDOCK:    0.84 KCAL/MOL
REMARK 927      BINDING AFFINITY PREDICTED BY RF-SCORE:    0.00 PKD
ROOT
HETATM    1  C   UNL     1      -5.701  16.251  67.245  1.00  0.00    -0.142 C  
HETATM    2  C   UNL     1      -5.512  15.248  68.370  1.00  0.00    -0.106 C  
ENDROOT
BRANCH   2   3
HETATM    3  O   UNL     1      -5.308  13.967  67.792  1.00  0.00    -0.247 OA 
BRANCH   3   4
HETATM    4  C   UNL     1      -6.363  13.127  67.572  1.00  0.00    -0.135 A  
HETATM    5  C   UNL     1      -7.737  13.356  67.664  1.00  0.00    -0.177 A  
HETATM    6  C   UNL     1      -9.118   7.385  66.205  1.00  0.00    -0.156 C  
HETATM    7  C   UNL     1      -8.639  12.288  67.469  1.00  0.00    -0.174 A  
HETATM    8  C   UNL     1      -7.067   8.572  66.434  1.00  0.00    -0.079 A  
HETATM    9  C   UNL     1      -5.936  11.839  67.238  1.00  0.00    -0.124 A  
HETATM   10  C   UNL     1      -8.201  10.976  67.117  1.00  0.00    -0.133 A  
HETATM   11  N   UNL     1      -6.248   9.621  66.670  1.00  0.00    -0.064 NA 
HETATM   12  C   UNL     1      -9.057   9.833  66.868  1.00  0.00    -0.142 A  
HETATM   13  C   UNL     1      -6.803  10.782  67.005  1.00  0.00    -0.094 A  
HETATM   14  N   UNL     1      -9.564   6.344  65.952  1.00  0.00     0.084 NA 
HETATM   15  C   UNL     1      -8.449   8.609  66.523  1.00  0.00    -0.118 A  
BRANCH   5  16
HETATM   16  N   UNL     1      -8.276  14.627  67.935  1.00  0.00    -0.140 N  
HETATM   17  C   UNL     1      -9.098  15.248  67.014  1.00  0.00    -0.225 C  
HETATM   18  H   UNL     1      -8.060  15.093  68.816  1.00  0.00     0.000 HD 
HETATM   19  O   UNL     1      -9.370  14.801  65.905  1.00  0.00    -0.271 OA 
BRANCH  17  20
HETATM   20  C   UNL     1      -9.641  16.547  67.495  1.00  0.00    -0.231 C  
HETATM   21  C   UNL     1      -8.990  17.202  68.471  1.00  0.00    -0.265 C  
BRANCH  21  22
HETATM   22  C   UNL     1      -9.323  18.543  69.059  1.00  0.00    -0.126 C  
BRANCH  22  23
HETATM   23  N   UNL     1      -9.350  19.685  68.134  1.00  0.00    -0.343 NA 
HETATM   24  C   UNL     1      -8.187  19.670  67.237  1.00  0.00    -0.296 C  
HETATM   25  C   UNL     1     -10.572  19.605  67.319  1.00  0.00    -0.472 C  
ENDBRANCH  22  23
ENDBRANCH  21  22
ENDBRANCH  17  20
ENDBRANCH   5  16
BRANCH  12  26
HETATM   26  N   UNL     1     -10.475  10.022  66.998  1.00  0.00    -0.245 NA 
HETATM   27  H   UNL     1     -11.029   9.486  66.330  1.00  0.00     0.000 HD 
BRANCH  26  28
HETATM   28  C   UNL     1     -11.244  10.813  67.881  1.00  0.00    -0.318 A  
HETATM   29 CL   UNL     1     -12.686  10.383  71.595  1.00  0.00    -0.538 Cl 
HETATM   30  C   UNL     1     -11.599  12.134  67.589  1.00  0.00    -0.413 A  
HETATM   31  C   UNL     1     -12.277  11.098  70.070  1.00  0.00    -0.326 A  
HETATM   32  C   UNL     1     -12.265  12.943  68.533  1.00  0.00    -0.003 A  
HETATM   33  C   UNL     1     -11.627  10.294  69.124  1.00  0.00    -0.166 A  
HETATM   34  C   UNL     1     -12.588  12.437  69.794  1.00  0.00     0.318 A  
BRANCH  34  35
HETATM   35  O   UNL     1     -13.129  13.163  70.820  1.00  0.00    -0.066 OA 
BRANCH  35  36
HETATM   36  C   UNL     1     -12.517  13.101  72.108  1.00  0.00     0.298 C  
BRANCH  36  37
HETATM   37  C   UNL     1     -12.328  14.512  72.636  1.00  0.00    -0.180 A  
HETATM   38  C   UNL     1     -12.869  14.884  73.867  1.00  0.00    -0.261 A  
HETATM   39  C   UNL     1     -12.686  16.188  74.322  1.00  0.00    -0.521 A  
HETATM   40  C   UNL     1     -11.968  17.087  73.542  1.00  0.00     0.035 A  
HETATM   41  C   UNL     1     -11.465  16.642  72.333  1.00  0.00     0.222 A  
HETATM   42  N   UNL     1     -11.638  15.387  71.859  1.00  0.00    -0.415 NA 
ENDBRANCH  36  37
ENDBRANCH  35  36
ENDBRANCH  34  35
ENDBRANCH  26  28
ENDBRANCH  12  26
ENDBRANCH   3   4
ENDBRANCH   2   3
TORSDOF 11
ENDMDL
MODEL      111
REMARK 921   NORMALIZED FREE ENERGY PREDICTED BY IDOCK:   -2.52 KCAL/MOL
REMARK 922        TOTAL FREE ENERGY PREDICTED BY IDOCK:   -5.90 KCAL/MOL
REMARK 923 INTER-LIGAND FREE ENERGY PREDICTED BY IDOCK:   -4.63 KCAL/MOL
REMARK 924 INTRA-LIGAND FREE ENERGY PREDICTED BY IDOCK:   -1.28 KCAL/MOL
REMARK 927      BINDING AFFINITY PREDICTED BY RF-SCORE:    0.00 PKD
ROOT
HETATM    1  C   UNL     1     -13.396  14.495  64.516  1.00  0.00     1.402 C  
HETATM    2  C   UNL     1     -12.011  13.979  64.166  1.00  0.00    -0.408 C  
ENDROOT
BRANCH   2   3
HETATM    3  O   UNL     1     -12.006  12.570  64.341  1.00  0.00    -0.360 OA 
BRANCH   3   4
HETATM    4  C   UNL     1     -10.853  11.914  64.670  1.00  0.00    -0.311 A  
HETATM    5  C   UNL     1      -9.978  12.103  65.740  1.00  0.00    -0.249 A  
HETATM    6  C   UNL     1      -6.078   7.588  63.719  1.00  0.00    -0.049 C  
HETATM    7  C   UNL     1      -8.790  11.344  65.816  1.00  0.00    -0.115 A  
HETATM    8  C   UNL     1      -8.135   8.452  62.891  1.00  0.00    -0.170 A  
HETATM    9  C   UNL     1     -10.532  10.931  63.729  1.00  0.00    -0.329 A  
HETATM   10  C   UNL     1      -8.471  10.333  64.860  1.00  0.00    -0.182 A  
HETATM   11  N   UNL     1      -9.236   9.233  62.847  1.00  0.00     0.024 NA 
HETATM   12  C   UNL     1      -7.293   9.488  64.879  1.00  0.00    -0.111 A  
HETATM   13  C   UNL     1      -9.391  10.146  63.802  1.00  0.00    -0.288 A  
HETATM   14  N   UNL     1      -5.251   6.799  63.510  1.00  0.00    -0.026 NA 
HETATM   15  C   UNL     1      -7.143   8.533  63.854  1.00  0.00    -0.091 A  
BRANCH   5  16
HETATM   16  N   UNL     1     -10.233  13.023  66.775  1.00  0.00    -0.243 N  
HETATM   17  C   UNL     1      -9.831  14.338  66.655  1.00  0.00    -0.281 C  
HETATM   18  H   UNL     1     -10.718  12.716  67.617  1.00  0.00     0.000 HD 
HETATM   19  O   UNL     1      -9.191  14.792  65.712  1.00  0.00    -0.184 OA 
BRANCH  17  20
HETATM   20  C   UNL     1     -10.250  15.187  67.802  1.00  0.00    -0.236 C  
HETATM   21  C   UNL     1     -10.308  16.520  67.637  1.00  0.00    -0.291 C  
BRANCH  21  22
HETATM   22  C   UNL     1     -10.760  17.550  68.630  1.00  0.00    -0.201 C  
BRANCH  22  23
HETATM   23  N   UNL     1      -9.932  18.758  68.759  1.00  0.00    -0.392 NA 
HETATM   24  C   UNL     1      -8.507  18.445  68.592  1.00  0.00    -0.295 C  
HETATM   25  C   UNL     1     -10.327  19.716  67.715  1.00  0.00    -0.454 C  
ENDBRANCH  22  23
ENDBRANCH  21  22
ENDBRANCH  17  20
ENDBRANCH   5  16
BRANCH  12  26
HETATM   26  N   UNL     1      -6.348   9.687  65.943  1.00  0.00    -0.074 NA 
HETATM   27  H   UNL     1      -5.633  10.384  65.737  1.00  0.00     0.000 HD 
BRANCH  26  28
HETATM   28  C   UNL     1      -6.226   9.095  67.220  1.00  0.00    -0.058 A  
HETATM   29 CL   UNL     1      -5.501  10.420  70.932  1.00  0.00    -0.081 Cl 
HETATM   30  C   UNL     1      -6.482   7.739  67.447  1.00  0.00    -0.056 A  
HETATM   31  C   UNL     1      -5.893   9.358  69.621  1.00  0.00    -0.033 A  
HETATM   32  C   UNL     1      -6.469   7.196  68.748  1.00  0.00    -0.036 A  
HETATM   33  C   UNL     1      -5.893   9.890  68.324  1.00  0.00    -0.042 A  
HETATM   34  C   UNL     1      -6.197   8.008  69.851  1.00  0.00    -0.029 A  
BRANCH  34  35
HETATM   35  O   UNL     1      -6.271   7.612  71.159  1.00  0.00    -0.035 OA 
BRANCH  35  36
HETATM   36  C   UNL     1      -7.402   6.856  71.590  1.00  0.00    -0.084 C  
BRANCH  36  37
HETATM   37  C   UNL     1      -7.129   5.381  71.363  1.00  0.00    -0.070 A  
HETATM   38  C   UNL     1      -8.163   4.518  70.999  1.00  0.00    -0.090 A  
HETATM   39  C   UNL     1      -7.883   3.168  70.804  1.00  0.00    -0.047 A  
HETATM   40  C   UNL     1      -6.582   2.710  70.974  1.00  0.00    -0.031 A  
HETATM   41  C   UNL     1      -5.613   3.627  71.337  1.00  0.00    -0.008 A  
HETATM   42  N   UNL     1      -5.856   4.941  71.546  1.00  0.00    -0.012 NA 
ENDBRANCH  36  37
ENDBRANCH  35  36
ENDBRANCH  34  35
ENDBRANCH  26  28
ENDBRANCH  12  26
ENDBRANCH   3   4
ENDBRANCH   2   3
TORSDOF 11
ENDMDL
MODEL      112
REMARK 921   NORMALIZED FREE ENERGY PREDICTED BY IDOCK:   -2.47 KCAL/MOL
REMARK 922        TOTAL FREE ENERGY PREDICTED BY IDOCK:   -5.81 KCAL/MOL
REMARK 923 INTER-LIGAND FREE ENERGY PREDICTED BY IDOCK:   -7.77 KCAL/MOL
REMARK 924 INTRA-LIGAND FREE ENERGY PREDICTED BY IDOCK:    1.96 KCAL/MOL
REMARK 927      BINDING AFFINITY PREDICTED BY RF-SCORE:    0.00 PKD
ROOT
HETATM    1  C   UNL     1      -5.435  16.323  70.031  1.00  0.00    -0.169 C  
HETATM    2  C   UNL     1      -5.204  14.941  70.618  1.00  0.00    -0.128 C  
ENDROOT
BRANCH   2   3
HETATM    3  O   UNL     1      -6.400  14.191  70.468  1.00  0.00    -0.160 OA 
BRANCH   3   4
HETATM    4  C   UNL     1      -7.325  14.539  69.524  1.00  0.00    -0.063 A  
HETATM    5  C   UNL     1      -8.130  13.742  68.708  1.00  0.00    -0.022 A  
HETATM    6  C   UNL     1     -10.645  18.743  65.819  1.00  0.00    -0.271 C  
HETATM    7  C   UNL     1      -8.957  14.345  67.736  1.00  0.00    -0.192 A  
HETATM    8  C   UNL     1      -9.036  18.507  67.557  1.00  0.00    -0.276 A  
HETATM    9  C   UNL     1      -7.411  15.926  69.372  1.00  0.00    -0.217 A  
HETATM   10  C   UNL     1      -9.050  15.762  67.591  1.00  0.00    -0.193 A  
HETATM   11  N   UNL     1      -8.234  17.874  68.442  1.00  0.00    -0.293 NA 
HETATM   12  C   UNL     1      -9.894  16.465  66.644  1.00  0.00    -0.261 A  
HETATM   13  C   UNL     1      -8.242  16.544  68.450  1.00  0.00    -0.194 A  
HETATM   14  N   UNL     1     -11.216  19.529  65.184  1.00  0.00    -0.009 NA 
HETATM   15  C   UNL     1      -9.865  17.874  66.645  1.00  0.00    -0.342 A  
BRANCH   5  16
HETATM   16  N   UNL     1      -8.167  12.339  68.819  1.00  0.00    -0.343 N  
HETATM   17  C   UNL     1      -9.358  11.691  69.079  1.00  0.00     0.159 C  
HETATM   18  H   UNL     1      -7.309  11.799  68.706  1.00  0.00     0.000 HD 
HETATM   19  O   UNL     1     -10.428  12.250  69.289  1.00  0.00    -0.006 OA 
BRANCH  17  20
HETATM   20  C   UNL     1      -9.229  10.208  69.084  1.00  0.00    -0.204 C  
HETATM   21  C   UNL     1      -8.606   9.615  70.117  1.00  0.00    -0.243 C  
BRANCH  21  22
HETATM   22  C   UNL     1      -8.420   8.144  70.355  1.00  0.00    -0.129 C  
BRANCH  22  23
HETATM   23  N   UNL     1      -9.044   7.582  71.561  1.00  0.00    -0.135 NA 
HETATM   24  C   UNL     1     -10.504   7.513  71.420  1.00  0.00    -0.209 C  
HETATM   25  C   UNL     1      -8.529   6.221  71.771  1.00  0.00    -0.129 C  
ENDBRANCH  22  23
ENDBRANCH  21  22
ENDBRANCH  17  20
ENDBRANCH   5  16
BRANCH  12  26
HETATM   26  N   UNL     1     -10.702  15.674  65.758  1.00  0.00    -0.336 NA 
HETATM   27  H   UNL     1     -11.334  16.221  65.173  1.00  0.00     0.000 HD 
BRANCH  26  28
HETATM   28  C   UNL     1     -10.783  14.279  65.547  1.00  0.00    -0.331 A  
HETATM   29 CL   UNL     1      -9.045  11.652  63.070  1.00  0.00    -0.154 Cl 
HETATM   30  C   UNL     1     -11.533  13.437  66.374  1.00  0.00    -0.359 A  
HETATM   31  C   UNL     1     -10.006  12.298  64.359  1.00  0.00    -0.205 A  
HETATM   32  C   UNL     1     -11.505  12.036  66.217  1.00  0.00    -0.408 A  
HETATM   33  C   UNL     1     -10.048  13.690  64.511  1.00  0.00    -0.120 A  
HETATM   34  C   UNL     1     -10.720  11.452  65.221  1.00  0.00    -0.265 A  
BRANCH  34  35
HETATM   35  O   UNL     1     -10.531  10.107  65.053  1.00  0.00    -0.168 OA 
BRANCH  35  36
HETATM   36  C   UNL     1      -9.350   9.504  65.580  1.00  0.00    -0.241 C  
BRANCH  36  37
HETATM   37  C   UNL     1      -9.691   8.119  66.101  1.00  0.00    -0.084 A  
HETATM   38  C   UNL     1      -8.925   7.015  65.726  1.00  0.00    -0.037 A  
HETATM   39  C   UNL     1      -9.267   5.755  66.213  1.00  0.00    -0.168 A  
HETATM   40  C   UNL     1     -10.359   5.627  67.062  1.00  0.00    -0.306 A  
HETATM   41  C   UNL     1     -11.070   6.769  67.385  1.00  0.00    -0.295 A  
HETATM   42  N   UNL     1     -10.771   8.002  66.917  1.00  0.00    -0.264 NA 
ENDBRANCH  36  37
ENDBRANCH  35  36
ENDBRANCH  34  35
ENDBRANCH  26  28
ENDBRANCH  12  26
ENDBRANCH   3   4
ENDBRANCH   2   3
TORSDOF 11
ENDMDL
MODEL      113
REMARK 921   NORMALIZED FREE ENERGY PREDICTED BY IDOCK:   -2.24 KCAL/MOL
REMARK 922        TOTAL FREE ENERGY PREDICTED BY IDOCK:   -5.44 KCAL/MOL
REMARK 923 INTER-LIGAND FREE ENERGY PREDICTED BY IDOCK:   -7.01 KCAL/MOL
REMARK 924 INTRA-LIGAND FREE ENERGY PREDICTED BY IDOCK:    1.58 KCAL/MOL
REMARK 927      BINDING AFFINITY PREDICTED BY RF-SCORE:    0.00 PKD
ROOT
HETATM    1  C   UNL     1      -5.390  16.225  70.727  1.00  0.00    -0.121 C  
HETATM    2  C   UNL     1      -5.147  14.747  70.981  1.00  0.00    -0.131 C  
ENDROOT
BRANCH   2   3
HETATM    3  O   UNL     1      -6.355  14.049  70.719  1.00  0.00    -0.123 OA 
BRANCH   3   4
HETATM    4  C   UNL     1      -7.192  14.458  69.719  1.00  0.00     0.052 A  
HETATM    5  C   UNL     1      -7.897  13.719  68.769  1.00  0.00    -0.059 A  
HETATM    6  C   UNL     1     -10.229  18.901  66.049  1.00  0.00    -0.387 C  
HETATM    7  C   UNL     1      -8.639  14.387  67.771  1.00  0.00    -0.171 A  
HETATM    8  C   UNL     1      -8.790  18.548  67.912  1.00  0.00    -0.284 A  
HETATM    9  C   UNL     1      -7.293  15.852  69.669  1.00  0.00    -0.082 A  
HETATM   10  C   UNL     1      -8.749  15.810  67.729  1.00  0.00    -0.173 A  
HETATM   11  N   UNL     1      -8.064  17.857  68.819  1.00  0.00    -0.271 NA 
HETATM   12  C   UNL     1      -9.513  16.574  66.763  1.00  0.00    -0.249 A  
HETATM   13  C   UNL     1      -8.045  16.531  68.722  1.00  0.00    -0.244 A  
HETATM   14  N   UNL     1     -10.753  19.728  65.425  1.00  0.00    -0.338 NA 
HETATM   15  C   UNL     1      -9.514  17.979  66.877  1.00  0.00    -0.288 A  
BRANCH   5  16
HETATM   16  N   UNL     1      -7.915  12.312  68.765  1.00  0.00    -0.325 N  
HETATM   17  C   UNL     1      -6.749  11.599  68.566  1.00  0.00    -0.069 C  
HETATM   18  H   UNL     1      -8.794  11.815  68.909  1.00  0.00     0.000 HD 
HETATM   19  O   UNL     1      -5.655  12.099  68.325  1.00  0.00    -0.052 OA 
BRANCH  17  20
HETATM   20  C   UNL     1      -6.935  10.127  68.671  1.00  0.00    -0.062 C  
HETATM   21  C   UNL     1      -6.648   9.359  67.606  1.00  0.00    -0.063 C  
BRANCH  21  22
HETATM   22  C   UNL     1      -6.703   7.861  67.512  1.00  0.00    -0.069 C  
BRANCH  22  23
HETATM   23  N   UNL     1      -6.476   7.270  66.185  1.00  0.00    -0.044 NA 
HETATM   24  C   UNL     1      -6.925   5.873  66.142  1.00  0.00    -0.062 C  
HETATM   25  C   UNL     1      -7.237   8.038  65.188  1.00  0.00    -0.065 C  
ENDBRANCH  22  23
ENDBRANCH  21  22
ENDBRANCH  17  20
ENDBRANCH   5  16
BRANCH  12  26
HETATM   26  N   UNL     1     -10.214  15.846  65.742  1.00  0.00    -0.342 NA 
HETATM   27  H   UNL     1     -10.453  16.405  64.923  1.00  0.00     0.000 HD 
BRANCH  26  28
HETATM   28  C   UNL     1     -10.634  14.499  65.663  1.00  0.00    -0.332 A  
HETATM   29 CL   UNL     1      -9.894  11.406  63.226  1.00  0.00    -0.391 Cl 
HETATM   30  C   UNL     1     -11.430  13.902  66.646  1.00  0.00    -0.370 A  
HETATM   31  C   UNL     1     -10.495  12.329  64.563  1.00  0.00    -0.309 A  
HETATM   32  C   UNL     1     -11.739  12.527  66.608  1.00  0.00    -0.453 A  
HETATM   33  C   UNL     1     -10.203  13.698  64.599  1.00  0.00    -0.338 A  
HETATM   34  C   UNL     1     -11.253  11.722  65.576  1.00  0.00    -0.258 A  
BRANCH  34  35
HETATM   35  O   UNL     1     -11.395  10.363  65.503  1.00  0.00     0.609 OA 
BRANCH  35  36
HETATM   36  C   UNL     1     -10.238   9.538  65.638  1.00  0.00     0.056 C  
BRANCH  36  37
HETATM   37  C   UNL     1     -10.434   8.599  66.813  1.00  0.00    -0.228 A  
HETATM   38  C   UNL     1     -10.891   7.296  66.609  1.00  0.00     0.077 A  
HETATM   39  C   UNL     1     -11.069   6.459  67.708  1.00  0.00    -0.376 A  
HETATM   40  C   UNL     1     -10.785   6.937  68.982  1.00  0.00    -0.259 A  
HETATM   41  C   UNL     1     -10.337   8.241  69.102  1.00  0.00    -0.217 A  
HETATM   42  N   UNL     1     -10.168   9.081  68.055  1.00  0.00    -0.202 NA 
ENDBRANCH  36  37
ENDBRANCH  35  36
ENDBRANCH  34  35
ENDBRANCH  26  28
ENDBRANCH  12  26
ENDBRANCH   3   4
ENDBRANCH   2   3
TORSDOF 11
ENDMDL
MODEL      114
REMARK 921   NORMALIZED FREE ENERGY PREDICTED BY IDOCK:   -2.21 KCAL/MOL
REMARK 922        TOTAL FREE ENERGY PREDICTED BY IDOCK:   -5.39 KCAL/MOL
REMARK 923 INTER-LIGAND FREE ENERGY PREDICTED BY IDOCK:   -5.19 KCAL/MOL
REMARK 924 INTRA-LIGAND FREE ENERGY PREDICTED BY IDOCK:   -0.20 KCAL/MOL
REMARK 927      BINDING AFFINITY PREDICTED BY RF-SCORE:    0.00 PKD
ROOT
HETATM    1  C   UNL     1     -10.033   4.972  72.599  1.00  0.00    -0.209 C  
HETATM    2  C   UNL     1      -9.706   4.752  71.132  1.00  0.00    -0.181 C  
ENDROOT
BRANCH   2   3
HETATM    3  O   UNL     1      -8.362   5.156  70.913  1.00  0.00    -0.109 OA 
BRANCH   3   4
HETATM    4  C   UNL     1      -8.083   6.392  70.399  1.00  0.00    -0.117 A  
HETATM    5  C   UNL     1      -8.304   6.912  69.123  1.00  0.00    -0.125 A  
HETATM    6  C   UNL     1      -5.617  12.417  70.594  1.00  0.00    -0.168 C  
HETATM    7  C   UNL     1      -7.841   8.207  68.805  1.00  0.00    -0.113 A  
HETATM    8  C   UNL     1      -6.017  10.421  71.826  1.00  0.00     0.531 A  
HETATM    9  C   UNL     1      -7.443   7.208  71.336  1.00  0.00    -0.080 A  
HETATM   10  C   UNL     1      -7.198   9.043  69.768  1.00  0.00    -0.056 A  
HETATM   11  N   UNL     1      -6.445   9.161  72.063  1.00  0.00    -0.278 NA 
HETATM   12  C   UNL     1      -6.722  10.393  69.537  1.00  0.00    -0.081 A  
HETATM   13  C   UNL     1      -7.013   8.497  71.060  1.00  0.00    -0.062 A  
HETATM   14  N   UNL     1      -5.168  13.485  70.676  1.00  0.00    -0.113 NA 
HETATM   15  C   UNL     1      -6.115  11.076  70.610  1.00  0.00    -0.034 A  
BRANCH   5  16
HETATM   16  N   UNL     1      -8.990   6.199  68.122  1.00  0.00    -0.115 N  
HETATM   17  C   UNL     1     -10.348   6.376  67.946  1.00  0.00    -0.190 C  
HETATM   18  H   UNL     1      -8.482   5.548  67.525  1.00  0.00     0.000 HD 
HETATM   19  O   UNL     1     -11.059   7.087  68.648  1.00  0.00    -0.129 OA 
BRANCH  17  20
HETATM   20  C   UNL     1     -10.896   5.606  66.796  1.00  0.00    -0.296 C  
HETATM   21  C   UNL     1     -10.040   5.031  65.934  1.00  0.00    -0.194 C  
BRANCH  21  22
HETATM   22  C   UNL     1     -10.369   4.166  64.752  1.00  0.00    -0.188 C  
BRANCH  22  23
HETATM   23  N   UNL     1      -9.560   4.361  63.540  1.00  0.00    -0.080 NA 
HETATM   24  C   UNL     1      -8.245   4.928  63.865  1.00  0.00    -0.122 C  
HETATM   25  C   UNL     1      -9.361   3.057  62.890  1.00  0.00    -0.093 C  
ENDBRANCH  22  23
ENDBRANCH  21  22
ENDBRANCH  17  20
ENDBRANCH   5  16
BRANCH  12  26
HETATM   26  N   UNL     1      -6.892  10.943  68.221  1.00  0.00    -0.066 NA 
HETATM   27  H   UNL     1      -6.245  10.569  67.528  1.00  0.00     0.000 HD 
BRANCH  26  28
HETATM   28  C   UNL     1      -7.791  11.907  67.711  1.00  0.00    -0.138 A  
HETATM   29 CL   UNL     1     -11.702  12.001  66.845  1.00  0.00    -0.382 Cl 
HETATM   30  C   UNL     1      -7.417  13.235  67.483  1.00  0.00    -0.163 A  
HETATM   31  C   UNL     1     -10.067  12.518  67.089  1.00  0.00    -0.214 A  
HETATM   32  C   UNL     1      -8.359  14.206  67.085  1.00  0.00    -0.189 A  
HETATM   33  C   UNL     1      -9.124  11.554  67.471  1.00  0.00    -0.166 A  
HETATM   34  C   UNL     1      -9.699  13.860  66.908  1.00  0.00    -0.268 A  
BRANCH  34  35
HETATM   35  O   UNL     1     -10.712  14.740  66.637  1.00  0.00    -0.297 OA 
BRANCH  35  36
HETATM   36  C   UNL     1     -12.014  14.478  67.160  1.00  0.00    -0.345 C  
BRANCH  36  37
HETATM   37  C   UNL     1     -12.066  14.931  68.608  1.00  0.00    -0.170 A  
HETATM   38  C   UNL     1     -10.892  15.250  69.291  1.00  0.00    -0.257 A  
HETATM   39  C   UNL     1     -10.970  15.655  70.622  1.00  0.00    -0.364 A  
HETATM   40  C   UNL     1     -12.213  15.736  71.238  1.00  0.00    -0.491 A  
HETATM   41  C   UNL     1     -13.331  15.402  70.493  1.00  0.00    -0.125 A  
HETATM   42  N   UNL     1     -13.285  14.991  69.205  1.00  0.00     1.053 NA 
ENDBRANCH  36  37
ENDBRANCH  35  36
ENDBRANCH  34  35
ENDBRANCH  26  28
ENDBRANCH  12  26
ENDBRANCH   3   4
ENDBRANCH   2   3
TORSDOF 11
ENDMDL
MODEL      115
REMARK 921   NORMALIZED FREE ENERGY PREDICTED BY IDOCK:   -2.17 KCAL/MOL
REMARK 922        TOTAL FREE ENERGY PREDICTED BY IDOCK:   -5.32 KCAL/MOL
REMARK 923 INTER-LIGAND FREE ENERGY PREDICTED BY IDOCK:   -5.65 KCAL/MOL
REMARK 924 INTRA-LIGAND FREE ENERGY PREDICTED BY IDOCK:    0.33 KCAL/MOL
REMARK 927      BINDING AFFINITY PREDICTED BY RF-SCORE:    0.00 PKD
ROOT
HETATM    1  C   UNL     1     -11.629   7.009  68.876  1.00  0.00     0.333 C  
HETATM    2  C   UNL     1     -11.653   8.524  68.981  1.00  0.00     1.060 C  
ENDROOT
BRANCH   2   3
HETATM    3  O   UNL     1     -10.312   8.991  68.958  1.00  0.00    -0.210 OA 
BRANCH   3   4
HETATM    4  C   UNL     1      -9.990  10.150  68.308  1.00  0.00    -0.148 A  
HETATM    5  C   UNL     1      -8.802  10.882  68.298  1.00  0.00    -0.140 A  
HETATM    6  C   UNL     1     -11.248  15.340  64.578  1.00  0.00    -0.280 C  
HETATM    7  C   UNL     1      -8.743  12.111  67.607  1.00  0.00    -0.172 A  
HETATM    8  C   UNL     1     -12.122  13.323  65.493  1.00  0.00    -0.435 A  
HETATM    9  C   UNL     1     -11.074  10.653  67.583  1.00  0.00    -0.385 A  
HETATM   10  C   UNL     1      -9.849  12.617  66.858  1.00  0.00    -0.234 A  
HETATM   11  N   UNL     1     -12.134  12.174  66.203  1.00  0.00    -0.590 NA 
HETATM   12  C   UNL     1      -9.865  13.850  66.096  1.00  0.00    -0.302 A  
HETATM   13  C   UNL     1     -11.031  11.839  66.866  1.00  0.00    -0.285 A  
HETATM   14  N   UNL     1     -11.517  16.246  63.904  1.00  0.00    -0.952 NA 
HETATM   15  C   UNL     1     -11.046  14.192  65.408  1.00  0.00    -0.321 A  
BRANCH   5  16
HETATM   16  N   UNL     1      -7.633  10.438  68.944  1.00  0.00    -0.094 N  
HETATM   17  C   UNL     1      -7.687   9.972  70.243  1.00  0.00    -0.073 C  
HETATM   18  H   UNL     1      -6.742  10.460  68.450  1.00  0.00     0.000 HD 
HETATM   19  O   UNL     1      -8.695   9.960  70.941  1.00  0.00    -0.016 OA 
BRANCH  17  20
HETATM   20  C   UNL     1      -6.377   9.471  70.741  1.00  0.00    -0.091 C  
HETATM   21  C   UNL     1      -6.354   8.363  71.501  1.00  0.00    -0.052 C  
BRANCH  21  22
HETATM   22  C   UNL     1      -5.151   7.654  72.054  1.00  0.00    -0.035 C  
BRANCH  22  23
HETATM   23  N   UNL     1      -5.308   7.000  73.361  1.00  0.00    -0.042 NA 
HETATM   24  C   UNL     1      -5.303   7.984  74.451  1.00  0.00    -0.066 C  
HETATM   25  C   UNL     1      -6.592   6.284  73.381  1.00  0.00    -0.074 C  
ENDBRANCH  22  23
ENDBRANCH  21  22
ENDBRANCH  17  20
ENDBRANCH   5  16
BRANCH  12  26
HETATM   26  N   UNL     1      -8.672  14.651  66.101  1.00  0.00    -0.387 NA 
HETATM   27  H   UNL     1      -7.871  14.206  65.652  1.00  0.00     0.000 HD 
BRANCH  26  28
HETATM   28  C   UNL     1      -8.403  15.941  66.611  1.00  0.00    -0.293 A  
HETATM   29 CL   UNL     1      -5.671  18.787  65.910  1.00  0.00    -0.189 Cl 
HETATM   30  C   UNL     1      -9.250  16.579  67.524  1.00  0.00    -0.203 A  
HETATM   31  C   UNL     1      -7.064  17.976  66.546  1.00  0.00    -0.228 A  
HETATM   32  C   UNL     1      -9.025  17.910  67.929  1.00  0.00    -0.264 A  
HETATM   33  C   UNL     1      -7.283  16.648  66.157  1.00  0.00     0.125 A  
HETATM   34  C   UNL     1      -7.941  18.630  67.424  1.00  0.00    -0.236 A  
BRANCH  34  35
HETATM   35  O   UNL     1      -7.695  19.955  67.660  1.00  0.00    -0.275 OA 
BRANCH  35  36
HETATM   36  C   UNL     1      -7.987  20.494  68.950  1.00  0.00     0.686 C  
BRANCH  36  37
HETATM   37  C   UNL     1      -6.971  19.966  69.947  1.00  0.00    -0.082 A  
HETATM   38  C   UNL     1      -6.433  18.688  69.799  1.00  0.00    -0.135 A  
HETATM   39  C   UNL     1      -5.508  18.228  70.734  1.00  0.00    -0.202 A  
HETATM   40  C   UNL     1      -5.142  19.052  71.791  1.00  0.00    -0.226 A  
HETATM   41  C   UNL     1      -5.722  20.305  71.871  1.00  0.00    -0.276 A  
HETATM   42  N   UNL     1      -6.632  20.774  70.986  1.00  0.00     0.137 NA 
ENDBRANCH  36  37
ENDBRANCH  35  36
ENDBRANCH  34  35
ENDBRANCH  26  28
ENDBRANCH  12  26
ENDBRANCH   3   4
ENDBRANCH   2   3
TORSDOF 11
ENDMDL
MODEL      116
REMARK 921   NORMALIZED FREE ENERGY PREDICTED BY IDOCK:   -2.10 KCAL/MOL
REMARK 922        TOTAL FREE ENERGY PREDICTED BY IDOCK:   -5.20 KCAL/MOL
REMARK 923 INTER-LIGAND FREE ENERGY PREDICTED BY IDOCK:   -6.07 KCAL/MOL
REMARK 924 INTRA-LIGAND FREE ENERGY PREDICTED BY IDOCK:    0.87 KCAL/MOL
REMARK 927      BINDING AFFINITY PREDICTED BY RF-SCORE:    0.00 PKD
ROOT
HETATM    1  C   UNL     1     -11.301   5.092  66.179  1.00  0.00     0.677 C  
HETATM    2  C   UNL     1     -10.225   6.161  66.087  1.00  0.00     0.165 C  
ENDROOT
BRANCH   2   3
HETATM    3  O   UNL     1     -10.430   7.087  67.144  1.00  0.00    -0.243 OA 
BRANCH   3   4
HETATM    4  C   UNL     1      -9.960   8.367  67.048  1.00  0.00    -0.253 A  
HETATM    5  C   UNL     1      -8.680   8.879  67.260  1.00  0.00    -0.121 A  
HETATM    6  C   UNL     1     -10.543  14.786  66.111  1.00  0.00    -0.311 C  
HETATM    7  C   UNL     1      -8.460  10.271  67.181  1.00  0.00    -0.125 A  
HETATM    8  C   UNL     1     -11.677  12.693  66.113  1.00  0.00    -0.406 A  
HETATM    9  C   UNL     1     -10.977   9.266  66.713  1.00  0.00     0.204 A  
HETATM   10  C   UNL     1      -9.498  11.186  66.829  1.00  0.00    -0.203 A  
HETATM   11  N   UNL     1     -11.838  11.358  66.241  1.00  0.00    -0.129 NA 
HETATM   12  C   UNL     1      -9.354  12.622  66.693  1.00  0.00    -0.236 A  
HETATM   13  C   UNL     1     -10.779  10.633  66.592  1.00  0.00    -0.181 A  
HETATM   14  N   UNL     1     -10.694  15.923  65.931  1.00  0.00    -0.317 NA 
HETATM   15  C   UNL     1     -10.489  13.373  66.329  1.00  0.00    -0.289 A  
BRANCH   5  16
HETATM   16  N   UNL     1      -7.572   8.058  67.543  1.00  0.00    -0.100 N  
HETATM   17  C   UNL     1      -7.409   7.515  68.802  1.00  0.00    -0.095 C  
HETATM   18  H   UNL     1      -6.887   7.862  66.814  1.00  0.00     0.000 HD 
HETATM   19  O   UNL     1      -8.141   7.736  69.761  1.00  0.00    -0.113 OA 
BRANCH  17  20
HETATM   20  C   UNL     1      -6.231   6.611  68.903  1.00  0.00    -0.027 C  
HETATM   21  C   UNL     1      -6.199   5.695  69.886  1.00  0.00    -0.026 C  
BRANCH  21  22
HETATM   22  C   UNL     1      -5.149   4.651  70.134  1.00  0.00     0.000 C  
BRANCH  22  23
HETATM   23  N   UNL     1      -5.498   3.564  71.060  1.00  0.00    -0.008 NA 
HETATM   24  C   UNL     1      -6.803   3.802  71.690  1.00  0.00    -0.027 C  
HETATM   25  C   UNL     1      -5.563   2.303  70.308  1.00  0.00    -0.016 C  
ENDBRANCH  22  23
ENDBRANCH  21  22
ENDBRANCH  17  20
ENDBRANCH   5  16
BRANCH  12  26
HETATM   26  N   UNL     1      -8.059  13.189  66.950  1.00  0.00    -0.404 NA 
HETATM   27  H   UNL     1      -7.283  12.558  66.749  1.00  0.00     0.000 HD 
BRANCH  26  28
HETATM   28  C   UNL     1      -7.661  14.457  67.428  1.00  0.00    -0.185 A  
HETATM   29 CL   UNL     1      -6.009  15.857  70.800  1.00  0.00     0.135 Cl 
HETATM   30  C   UNL     1      -7.693  15.605  66.630  1.00  0.00    -0.068 A  
HETATM   31  C   UNL     1      -6.638  15.799  69.187  1.00  0.00    -0.148 A  
HETATM   32  C   UNL     1      -7.182  16.835  67.089  1.00  0.00    -0.220 A  
HETATM   33  C   UNL     1      -7.160  14.582  68.730  1.00  0.00    -0.112 A  
HETATM   34  C   UNL     1      -6.627  16.937  68.366  1.00  0.00    -0.155 A  
BRANCH  34  35
HETATM   35  O   UNL     1      -6.003  18.047  68.869  1.00  0.00    -0.192 OA 
BRANCH  35  36
HETATM   36  C   UNL     1      -6.241  19.313  68.253  1.00  0.00    -0.224 C  
BRANCH  36  37
HETATM   37  C   UNL     1      -7.728  19.462  67.987  1.00  0.00    -0.296 A  
HETATM   38  C   UNL     1      -8.633  19.532  69.047  1.00  0.00    -0.215 A  
HETATM   39  C   UNL     1      -9.992  19.660  68.771  1.00  0.00    -0.542 A  
HETATM   40  C   UNL     1     -10.417  19.718  67.450  1.00  0.00    -0.577 A  
HETATM   41  C   UNL     1      -9.459  19.640  66.455  1.00  0.00    -0.395 A  
HETATM   42  N   UNL     1      -8.134  19.501  66.691  1.00  0.00    -0.289 NA 
ENDBRANCH  36  37
ENDBRANCH  35  36
ENDBRANCH  34  35
ENDBRANCH  26  28
ENDBRANCH  12  26
ENDBRANCH   3   4
ENDBRANCH   2   3
TORSDOF 11
ENDMDL
MODEL      117
REMARK 921   NORMALIZED FREE ENERGY PREDICTED BY IDOCK:   -1.90 KCAL/MOL
REMARK 922        TOTAL FREE ENERGY PREDICTED BY IDOCK:   -4.88 KCAL/MOL
REMARK 923 INTER-LIGAND FREE ENERGY PREDICTED BY IDOCK:   -5.01 KCAL/MOL
REMARK 924 INTRA-LIGAND FREE ENERGY PREDICTED BY IDOCK:    0.13 KCAL/MOL
REMARK 927      BINDING AFFINITY PREDICTED BY RF-SCORE:    0.00 PKD
ROOT
HETATM    1  C   UNL     1     -11.014   6.227  73.213  1.00  0.00    -0.221 C  
HETATM    2  C   UNL     1     -11.407   5.662  71.859  1.00  0.00    -0.141 C  
ENDROOT
BRANCH   2   3
HETATM    3  O   UNL     1     -12.558   6.359  71.406  1.00  0.00    -0.167 OA 
BRANCH   3   4
HETATM    4  C   UNL     1     -12.459   7.643  70.949  1.00  0.00    -0.094 A  
HETATM    5  C   UNL     1     -11.812   8.156  69.824  1.00  0.00     0.714 A  
HETATM    6  C   UNL     1     -13.386  14.082  71.271  1.00  0.00    -0.272 C  
HETATM    7  C   UNL     1     -11.779   9.551  69.610  1.00  0.00     0.199 A  
HETATM    8  C   UNL     1     -13.819  11.984  72.308  1.00  0.00     0.228 A  
HETATM    9  C   UNL     1     -13.098   8.546  71.804  1.00  0.00    -0.383 A  
HETATM   10  C   UNL     1     -12.442  10.470  70.480  1.00  0.00    -0.433 A  
HETATM   11  N   UNL     1     -13.784  10.645  72.484  1.00  0.00     0.292 NA 
HETATM   12  C   UNL     1     -12.486  11.910  70.319  1.00  0.00    -0.121 A  
HETATM   13  C   UNL     1     -13.112   9.917  71.597  1.00  0.00    -0.437 A  
HETATM   14  N   UNL     1     -13.580  15.223  71.368  1.00  0.00    -0.483 NA 
HETATM   15  C   UNL     1     -13.196  12.664  71.274  1.00  0.00    -0.119 A  
BRANCH   5  16
HETATM   16  N   UNL     1     -11.190   7.334  68.867  1.00  0.00    -0.449 N  
HETATM   17  C   UNL     1     -10.036   7.749  68.233  1.00  0.00    -0.178 C  
HETATM   18  H   UNL     1     -11.594   6.425  68.640  1.00  0.00     0.000 HD 
HETATM   19  O   UNL     1      -9.505   8.844  68.391  1.00  0.00    -0.139 OA 
BRANCH  17  20
HETATM   20  C   UNL     1      -9.471   6.726  67.312  1.00  0.00    -0.156 C  
HETATM   21  C   UNL     1      -8.627   5.803  67.806  1.00  0.00    -0.101 C  
BRANCH  21  22
HETATM   22  C   UNL     1      -7.995   4.653  67.078  1.00  0.00    -0.102 C  
BRANCH  22  23
HETATM   23  N   UNL     1      -8.811   3.986  66.053  1.00  0.00    -0.116 NA 
HETATM   24  C   UNL     1      -8.838   2.532  66.259  1.00  0.00    -0.130 C  
HETATM   25  C   UNL     1     -10.187   4.497  66.138  1.00  0.00    -0.254 C  
ENDBRANCH  22  23
ENDBRANCH  21  22
ENDBRANCH  17  20
ENDBRANCH   5  16
BRANCH  12  26
HETATM   26  N   UNL     1     -11.792  12.476  69.196  1.00  0.00    -0.306 NA 
HETATM   27  H   UNL     1     -12.311  12.427  68.319  1.00  0.00     0.000 HD 
BRANCH  26  28
HETATM   28  C   UNL     1     -10.524  13.088  69.081  1.00  0.00     0.111 A  
HETATM   29 CL   UNL     1      -6.989  12.077  67.487  1.00  0.00    -0.118 Cl 
HETATM   30  C   UNL     1     -10.287  14.406  69.483  1.00  0.00     0.027 A  
HETATM   31  C   UNL     1      -8.235  13.011  68.248  1.00  0.00    -0.150 A  
HETATM   32  C   UNL     1      -9.047  15.035  69.252  1.00  0.00    -0.157 A  
HETATM   33  C   UNL     1      -9.465  12.386  68.493  1.00  0.00    -0.101 A  
HETATM   34  C   UNL     1      -8.016  14.349  68.608  1.00  0.00    -0.145 A  
BRANCH  34  35
HETATM   35  O   UNL     1      -6.818  14.895  68.233  1.00  0.00    -0.103 OA 
BRANCH  35  36
HETATM   36  C   UNL     1      -6.731  15.575  66.981  1.00  0.00     0.170 C  
BRANCH  36  37
HETATM   37  C   UNL     1      -6.604  17.066  67.236  1.00  0.00    -0.164 A  
HETATM   38  C   UNL     1      -7.731  17.888  67.202  1.00  0.00    -0.227 A  
HETATM   39  C   UNL     1      -7.582  19.254  67.432  1.00  0.00    -0.260 A  
HETATM   40  C   UNL     1      -6.318  19.767  67.691  1.00  0.00    -0.228 A  
HETATM   41  C   UNL     1      -5.249  18.888  67.706  1.00  0.00    -0.170 A  
HETATM   42  N   UNL     1      -5.361  17.560  67.473  1.00  0.00    -0.126 NA 
ENDBRANCH  36  37
ENDBRANCH  35  36
ENDBRANCH  34  35
ENDBRANCH  26  28
ENDBRANCH  12  26
ENDBRANCH   3   4
ENDBRANCH   2   3
TORSDOF 11
ENDMDL
MODEL      118
REMARK 921   NORMALIZED FREE ENERGY PREDICTED BY IDOCK:   -1.82 KCAL/MOL
REMARK 922        TOTAL FREE ENERGY PREDICTED BY IDOCK:   -4.75 KCAL/MOL
REMARK 923 INTER-LIGAND FREE ENERGY PREDICTED BY IDOCK:   -3.41 KCAL/MOL
REMARK 924 INTRA-LIGAND FREE ENERGY PREDICTED BY IDOCK:   -1.34 KCAL/MOL
REMARK 927      BINDING AFFINITY PREDICTED BY RF-SCORE:    0.00 PKD
ROOT
HETATM    1  C   UNL     1     -10.261   1.467  69.316  1.00  0.00     0.690 C  
HETATM    2  C   UNL     1      -9.547   2.346  70.330  1.00  0.00    -0.026 C  
ENDROOT
BRANCH   2   3
HETATM    3  O   UNL     1     -10.116   3.645  70.267  1.00  0.00     0.022 OA 
BRANCH   3   4
HETATM    4  C   UNL     1      -9.326   4.756  70.376  1.00  0.00    -0.151 A  
HETATM    5  C   UNL     1      -8.745   5.554  69.390  1.00  0.00    -0.107 A  
HETATM    6  C   UNL     1      -5.911   9.238  73.643  1.00  0.00     0.089 C  
HETATM    7  C   UNL     1      -7.887   6.612  69.761  1.00  0.00    -0.115 A  
HETATM    8  C   UNL     1      -7.344   7.347  73.826  1.00  0.00    -0.099 A  
HETATM    9  C   UNL     1      -9.065   5.074  71.713  1.00  0.00    -0.160 A  
HETATM   10  C   UNL     1      -7.632   6.941  71.127  1.00  0.00    -0.087 A  
HETATM   11  N   UNL     1      -8.124   6.324  73.413  1.00  0.00    -0.111 NA 
HETATM   12  C   UNL     1      -6.793   8.026  71.596  1.00  0.00    -0.057 A  
HETATM   13  C   UNL     1      -8.256   6.129  72.104  1.00  0.00    -0.110 A  
HETATM   14  N   UNL     1      -5.320  10.018  74.267  1.00  0.00    -0.336 NA 
HETATM   15  C   UNL     1      -6.659   8.210  72.987  1.00  0.00    -0.100 A  
BRANCH   5  16
HETATM   16  N   UNL     1      -8.989   5.361  68.018  1.00  0.00    -0.108 N  
HETATM   17  C   UNL     1      -9.707   6.295  67.297  1.00  0.00    -0.129 C  
HETATM   18  H   UNL     1      -8.633   4.526  67.553  1.00  0.00     0.000 HD 
HETATM   19  O   UNL     1     -10.226   7.298  67.773  1.00  0.00    -0.171 OA 
BRANCH  17  20
HETATM   20  C   UNL     1      -9.802   5.971  65.848  1.00  0.00     0.150 C  
HETATM   21  C   UNL     1      -9.283   4.812  65.406  1.00  0.00    -0.156 C  
BRANCH  21  22
HETATM   22  C   UNL     1      -9.321   4.262  64.010  1.00  0.00    -0.141 C  
BRANCH  22  23
HETATM   23  N   UNL     1     -10.090   3.026  63.804  1.00  0.00    -0.161 NA 
HETATM   24  C   UNL     1     -10.307   2.768  62.375  1.00  0.00    -0.114 C  
HETATM   25  C   UNL     1      -9.337   1.899  64.376  1.00  0.00    -0.132 C  
ENDBRANCH  22  23
ENDBRANCH  21  22
ENDBRANCH  17  20
ENDBRANCH   5  16
BRANCH  12  26
HETATM   26  N   UNL     1      -6.143   8.841  70.607  1.00  0.00    -0.032 NA 
HETATM   27  H   UNL     1      -5.129   8.733  70.582  1.00  0.00     0.000 HD 
BRANCH  26  28
HETATM   28  C   UNL     1      -6.648   9.763  69.663  1.00  0.00    -0.052 A  
HETATM   29 CL   UNL     1      -6.989  13.750  69.453  1.00  0.00    -0.051 Cl 
HETATM   30  C   UNL     1      -7.092   9.372  68.396  1.00  0.00    -0.072 A  
HETATM   31  C   UNL     1      -7.033  12.077  69.003  1.00  0.00    -0.094 A  
HETATM   32  C   UNL     1      -7.481  10.320  67.428  1.00  0.00    -0.094 A  
HETATM   33  C   UNL     1      -6.661  11.130  69.966  1.00  0.00    -0.105 A  
HETATM   34  C   UNL     1      -7.432  11.686  67.717  1.00  0.00    -0.111 A  
BRANCH  34  35
HETATM   35  O   UNL     1      -7.677  12.690  66.820  1.00  0.00     0.020 OA 
BRANCH  35  36
HETATM   36  C   UNL     1      -9.029  13.015  66.497  1.00  0.00    -0.065 C  
BRANCH  36  37
HETATM   37  C   UNL     1      -9.215  14.518  66.599  1.00  0.00    -0.266 A  
HETATM   38  C   UNL     1     -10.454  15.055  66.952  1.00  0.00    -0.279 A  
HETATM   39  C   UNL     1     -10.597  16.438  67.029  1.00  0.00    -0.260 A  
HETATM   40  C   UNL     1      -9.504  17.252  66.756  1.00  0.00    -0.274 A  
HETATM   41  C   UNL     1      -8.311  16.644  66.411  1.00  0.00    -0.318 A  
HETATM   42  N   UNL     1      -8.145  15.305  66.314  1.00  0.00     0.263 NA 
ENDBRANCH  36  37
ENDBRANCH  35  36
ENDBRANCH  34  35
ENDBRANCH  26  28
ENDBRANCH  12  26
ENDBRANCH   3   4
ENDBRANCH   2   3
TORSDOF 11
ENDMDL
MODEL      119
REMARK 921   NORMALIZED FREE ENERGY PREDICTED BY IDOCK:   -1.50 KCAL/MOL
REMARK 922        TOTAL FREE ENERGY PREDICTED BY IDOCK:   -4.22 KCAL/MOL
REMARK 923 INTER-LIGAND FREE ENERGY PREDICTED BY IDOCK:   -4.61 KCAL/MOL
REMARK 924 INTRA-LIGAND FREE ENERGY PREDICTED BY IDOCK:    0.39 KCAL/MOL
REMARK 927      BINDING AFFINITY PREDICTED BY RF-SCORE:    0.00 PKD
ROOT
HETATM    1  C   UNL     1      -7.696   8.107  72.387  1.00  0.00    -0.161 C  
HETATM    2  C   UNL     1      -7.193   6.979  71.504  1.00  0.00    -0.078 C  
ENDROOT
BRANCH   2   3
HETATM    3  O   UNL     1      -6.426   7.548  70.453  1.00  0.00    -0.038 OA 
BRANCH   3   4
HETATM    4  C   UNL     1      -6.480   8.890  70.200  1.00  0.00    -0.039 A  
HETATM    5  C   UNL     1      -6.955   9.582  69.085  1.00  0.00    -0.057 A  
HETATM    6  C   UNL     1      -5.366  15.169  71.524  1.00  0.00    -0.009 C  
HETATM    7  C   UNL     1      -6.822  10.986  69.024  1.00  0.00    -0.084 A  
HETATM    8  C   UNL     1      -5.180  12.934  72.321  1.00  0.00     0.116 A  
HETATM    9  C   UNL     1      -5.928   9.635  71.246  1.00  0.00    -0.053 A  
HETATM   10  C   UNL     1      -6.267  11.745  70.099  1.00  0.00    -0.104 A  
HETATM   11  N   UNL     1      -5.296  11.587  72.308  1.00  0.00    -0.169 NA 
HETATM   12  C   UNL     1      -6.123  13.187  70.133  1.00  0.00    -0.099 A  
HETATM   13  C   UNL     1      -5.820  11.017  71.227  1.00  0.00     0.263 A  
HETATM   14  N   UNL     1      -5.151  16.275  71.805  1.00  0.00    -0.231 NA 
HETATM   15  C   UNL     1      -5.557  13.772  71.284  1.00  0.00    -0.222 A  
BRANCH   5  16
HETATM   16  N   UNL     1      -7.583   8.937  68.003  1.00  0.00    -0.092 N  
HETATM   17  C   UNL     1      -6.900   8.731  66.821  1.00  0.00    -0.069 C  
HETATM   18  H   UNL     1      -8.548   8.620  68.093  1.00  0.00     0.000 HD 
HETATM   19  O   UNL     1      -5.761   9.125  66.592  1.00  0.00    -0.048 OA 
BRANCH  17  20
HETATM   20  C   UNL     1      -7.686   7.967  65.815  1.00  0.00    -0.093 C  
HETATM   21  C   UNL     1      -7.888   6.653  66.011  1.00  0.00    -0.104 C  
BRANCH  21  22
HETATM   22  C   UNL     1      -8.695   5.711  65.165  1.00  0.00    -0.093 C  
BRANCH  22  23
HETATM   23  N   UNL     1      -7.960   4.644  64.473  1.00  0.00    -0.090 NA 
HETATM   24  C   UNL     1      -7.426   3.662  65.426  1.00  0.00    -0.077 C  
HETATM   25  C   UNL     1      -8.878   3.954  63.554  1.00  0.00    -0.106 C  
ENDBRANCH  22  23
ENDBRANCH  21  22
ENDBRANCH  17  20
ENDBRANCH   5  16
BRANCH  12  26
HETATM   26  N   UNL     1      -6.559  13.928  68.982  1.00  0.00    -0.102 NA 
HETATM   27  H   UNL     1      -5.811  14.426  68.501  1.00  0.00     0.000 HD 
BRANCH  26  28
HETATM   28  C   UNL     1      -7.834  14.094  68.394  1.00  0.00    -0.143 A  
HETATM   29 CL   UNL     1     -11.599  14.340  69.742  1.00  0.00    -0.331 Cl 
HETATM   30  C   UNL     1      -8.003  14.342  67.029  1.00  0.00    -0.045 A  
HETATM   31  C   UNL     1     -10.241  14.361  68.667  1.00  0.00    -0.245 A  
HETATM   32  C   UNL     1      -9.273  14.622  66.484  1.00  0.00    -0.294 A  
HETATM   33  C   UNL     1      -8.978  14.070  69.200  1.00  0.00     0.297 A  
HETATM   34  C   UNL     1     -10.402  14.657  67.305  1.00  0.00    -0.256 A  
BRANCH  34  35
HETATM   35  O   UNL     1     -11.657  15.028  66.905  1.00  0.00    -0.323 OA 
BRANCH  35  36
HETATM   36  C   UNL     1     -11.900  15.260  65.517  1.00  0.00     0.121 C  
BRANCH  36  37
HETATM   37  C   UNL     1     -11.919  13.929  64.788  1.00  0.00    -0.406 A  
HETATM   38  C   UNL     1     -13.109  13.211  64.659  1.00  0.00     0.060 A  
HETATM   39  C   UNL     1     -13.094  11.988  63.991  1.00  0.00    -0.125 A  
HETATM   40  C   UNL     1     -11.899  11.513  63.467  1.00  0.00    -0.213 A  
HETATM   41  C   UNL     1     -10.762  12.282  63.637  1.00  0.00    -0.467 A  
HETATM   42  N   UNL     1     -10.742  13.466  64.293  1.00  0.00    -0.401 NA 
ENDBRANCH  36  37
ENDBRANCH  35  36
ENDBRANCH  34  35
ENDBRANCH  26  28
ENDBRANCH  12  26
ENDBRANCH   3   4
ENDBRANCH   2   3
TORSDOF 11
ENDMDL
MODEL      120
REMARK 921   NORMALIZED FREE ENERGY PREDICTED BY IDOCK:   -1.45 KCAL/MOL
REMARK 922        TOTAL FREE ENERGY PREDICTED BY IDOCK:   -4.14 KCAL/MOL
REMARK 923 INTER-LIGAND FREE ENERGY PREDICTED BY IDOCK:   -5.27 KCAL/MOL
REMARK 924 INTRA-LIGAND FREE ENERGY PREDICTED BY IDOCK:    1.13 KCAL/MOL
REMARK 927      BINDING AFFINITY PREDICTED BY RF-SCORE:    0.00 PKD
ROOT
HETATM    1  C   UNL     1      -8.562  14.645  67.893  1.00  0.00    -0.165 C  
HETATM    2  C   UNL     1      -9.602  14.838  66.802  1.00  0.00    -0.254 C  
ENDROOT
BRANCH   2   3
HETATM    3  O   UNL     1     -10.598  13.838  66.958  1.00  0.00    -0.275 OA 
BRANCH   3   4
HETATM    4  C   UNL     1     -10.326  12.533  66.657  1.00  0.00    -0.227 A  
HETATM    5  C   UNL     1     -10.599  11.363  67.368  1.00  0.00    -0.218 A  
HETATM    6  C   UNL     1      -7.776   7.742  63.054  1.00  0.00    -0.132 C  
HETATM    7  C   UNL     1     -10.135  10.123  66.881  1.00  0.00    -0.279 A  
HETATM    8  C   UNL     1      -8.144  10.088  63.221  1.00  0.00    -0.159 A  
HETATM    9  C   UNL     1      -9.634  12.416  65.448  1.00  0.00    -0.043 A  
HETATM   10  C   UNL     1      -9.437  10.005  65.640  1.00  0.00    -0.278 A  
HETATM   11  N   UNL     1      -8.577  11.252  63.754  1.00  0.00     0.238 NA 
HETATM   12  C   UNL     1      -8.955   8.772  65.051  1.00  0.00    -0.060 A  
HETATM   13  C   UNL     1      -9.200  11.206  64.929  1.00  0.00    -0.155 A  
HETATM   14  N   UNL     1      -7.310   6.922  62.378  1.00  0.00    -0.060 NA 
HETATM   15  C   UNL     1      -8.290   8.843  63.810  1.00  0.00    -0.164 A  
BRANCH   5  16
HETATM   16  N   UNL     1     -11.341  11.360  68.564  1.00  0.00    -0.244 N  
HETATM   17  C   UNL     1     -11.128  12.333  69.520  1.00  0.00    -0.033 C  
HETATM   18  H   UNL     1     -12.038  10.634  68.725  1.00  0.00     0.000 HD 
HETATM   19  O   UNL     1     -10.275  13.211  69.449  1.00  0.00     0.269 OA 
BRANCH  17  20
HETATM   20  C   UNL     1     -12.050  12.224  70.683  1.00  0.00    -0.330 C  
HETATM   21  C   UNL     1     -12.427  11.004  71.101  1.00  0.00    -0.502 C  
BRANCH  21  22
HETATM   22  C   UNL     1     -13.292  10.662  72.280  1.00  0.00    -0.077 C  
BRANCH  22  23
HETATM   23  N   UNL     1     -13.959   9.353  72.257  1.00  0.00    -0.371 NA 
HETATM   24  C   UNL     1     -13.981   8.791  70.900  1.00  0.00     0.231 C  
HETATM   25  C   UNL     1     -13.222   8.431  73.134  1.00  0.00     0.804 C  
ENDBRANCH  22  23
ENDBRANCH  21  22
ENDBRANCH  17  20
ENDBRANCH   5  16
BRANCH  12  26
HETATM   26  N   UNL     1      -9.179   7.554  65.779  1.00  0.00    -0.395 NA 
HETATM   27  H   UNL     1      -9.535   6.788  65.207  1.00  0.00     0.000 HD 
BRANCH  26  28
HETATM   28  C   UNL     1      -8.997   7.221  67.140  1.00  0.00    -0.126 A  
HETATM   29 CL   UNL     1     -11.297   7.224  70.421  1.00  0.00    -0.307 Cl 
HETATM   30  C   UNL     1      -7.817   6.644  67.621  1.00  0.00    -0.111 A  
HETATM   31  C   UNL     1      -9.940   6.974  69.374  1.00  0.00    -0.162 A  
HETATM   32  C   UNL     1      -7.700   6.212  68.958  1.00  0.00    -0.096 A  
HETATM   33  C   UNL     1     -10.045   7.414  68.048  1.00  0.00    -0.216 A  
HETATM   34  C   UNL     1      -8.772   6.351  69.841  1.00  0.00    -0.142 A  
BRANCH  34  35
HETATM   35  O   UNL     1      -8.808   5.866  71.120  1.00  0.00    -0.134 OA 
BRANCH  35  36
HETATM   36  C   UNL     1      -8.078   4.679  71.430  1.00  0.00    -0.101 C  
BRANCH  36  37
HETATM   37  C   UNL     1      -9.012   3.681  72.090  1.00  0.00    -0.100 A  
HETATM   38  C   UNL     1      -9.985   4.113  72.992  1.00  0.00    -0.193 A  
HETATM   39  C   UNL     1     -10.823   3.173  73.588  1.00  0.00    -0.311 A  
HETATM   40  C   UNL     1     -10.674   1.829  73.270  1.00  0.00    -0.230 A  
HETATM   41  C   UNL     1      -9.685   1.480  72.368  1.00  0.00    -0.092 A  
HETATM   42  N   UNL     1      -8.848   2.368  71.784  1.00  0.00    -0.072 NA 
ENDBRANCH  36  37
ENDBRANCH  35  36
ENDBRANCH  34  35
ENDBRANCH  26  28
ENDBRANCH  12  26
ENDBRANCH   3   4
ENDBRANCH   2   3
TORSDOF 11
ENDMDL
MODEL      121
REMARK 921   NORMALIZED FREE ENERGY PREDICTED BY IDOCK:   -1.40 KCAL/MOL
REMARK 922        TOTAL FREE ENERGY PREDICTED BY IDOCK:   -4.07 KCAL/MOL
REMARK 923 INTER-LIGAND FREE ENERGY PREDICTED BY IDOCK:   -5.89 KCAL/MOL
REMARK 924 INTRA-LIGAND FREE ENERGY PREDICTED BY IDOCK:    1.83 KCAL/MOL
REMARK 927      BINDING AFFINITY PREDICTED BY RF-SCORE:    0.00 PKD
ROOT
HETATM    1  C   UNL     1      -9.624  11.157  62.714  1.00  0.00    -0.334 C  
HETATM    2  C   UNL     1      -9.395  10.079  63.760  1.00  0.00    -0.257 C  
ENDROOT
BRANCH   2   3
HETATM    3  O   UNL     1     -10.334  10.271  64.808  1.00  0.00    -0.277 OA 
BRANCH   3   4
HETATM    4  C   UNL     1     -10.339  11.430  65.532  1.00  0.00    -0.266 A  
HETATM    5  C   UNL     1     -10.264  11.636  66.910  1.00  0.00    -0.214 A  
HETATM    6  C   UNL     1     -10.783  17.884  66.292  1.00  0.00    -0.116 C  
HETATM    7  C   UNL     1     -10.378  12.943  67.431  1.00  0.00    -0.233 A  
HETATM    8  C   UNL     1     -10.733  16.092  64.726  1.00  0.00    -0.204 A  
HETATM    9  C   UNL     1     -10.478  12.552  64.710  1.00  0.00    -0.336 A  
HETATM   10  C   UNL     1     -10.509  14.088  66.588  1.00  0.00    -0.272 A  
HETATM   11  N   UNL     1     -10.659  14.816  64.286  1.00  0.00     0.184 NA 
HETATM   12  C   UNL     1     -10.599  15.465  67.034  1.00  0.00    -0.309 A  
HETATM   13  C   UNL     1     -10.555  13.849  65.194  1.00  0.00    -0.379 A  
HETATM   14  N   UNL     1     -10.862  19.039  66.378  1.00  0.00    -0.281 NA 
HETATM   15  C   UNL     1     -10.718  16.474  66.057  1.00  0.00    -0.180 A  
BRANCH   5  16
HETATM   16  N   UNL     1     -10.064  10.584  67.824  1.00  0.00    -0.170 N  
HETATM   17  C   UNL     1      -9.007  10.622  68.712  1.00  0.00    -0.172 C  
HETATM   18  H   UNL     1     -10.703   9.790  67.830  1.00  0.00     0.000 HD 
HETATM   19  O   UNL     1      -8.152  11.499  68.745  1.00  0.00    -0.145 OA 
BRANCH  17  20
HETATM   20  C   UNL     1      -8.992   9.471  69.655  1.00  0.00    -0.198 C  
HETATM   21  C   UNL     1      -8.066   9.442  70.629  1.00  0.00    -0.197 C  
BRANCH  21  22
HETATM   22  C   UNL     1      -7.908   8.420  71.717  1.00  0.00    -0.126 C  
BRANCH  22  23
HETATM   23  N   UNL     1      -7.219   8.853  72.940  1.00  0.00    -0.333 NA 
HETATM   24  C   UNL     1      -7.939   8.409  74.141  1.00  0.00    -0.160 C  
HETATM   25  C   UNL     1      -5.871   8.264  72.958  1.00  0.00    -0.065 C  
ENDBRANCH  22  23
ENDBRANCH  21  22
ENDBRANCH  17  20
ENDBRANCH   5  16
BRANCH  12  26
HETATM   26  N   UNL     1     -10.571  15.709  68.449  1.00  0.00    -0.244 NA 
HETATM   27  H   UNL     1     -10.018  16.523  68.719  1.00  0.00     0.000 HD 
BRANCH  26  28
HETATM   28  C   UNL     1     -11.167  15.031  69.536  1.00  0.00    -0.276 A  
HETATM   29 CL   UNL     1     -14.311  15.675  71.936  1.00  0.00    -0.527 Cl 
HETATM   30  C   UNL     1     -10.745  13.765  69.953  1.00  0.00     0.411 A  
HETATM   31  C   UNL     1     -12.951  14.901  71.192  1.00  0.00    -0.367 A  
HETATM   32  C   UNL     1     -11.430  13.057  70.962  1.00  0.00     1.391 A  
HETATM   33  C   UNL     1     -12.259  15.606  70.198  1.00  0.00    -0.387 A  
HETATM   34  C   UNL     1     -12.556  13.611  71.574  1.00  0.00    -0.295 A  
BRANCH  34  35
HETATM   35  O   UNL     1     -13.358  12.969  72.478  1.00  0.00    -0.519 OA 
BRANCH  35  36
HETATM   36  C   UNL     1     -14.280  11.985  72.008  1.00  0.00     1.048 C  
BRANCH  36  37
HETATM   37  C   UNL     1     -13.598  10.628  72.007  1.00  0.00    -0.085 A  
HETATM   38  C   UNL     1     -14.119   9.576  72.761  1.00  0.00     0.094 A  
HETATM   39  C   UNL     1     -13.467   8.344  72.746  1.00  0.00     0.010 A  
HETATM   40  C   UNL     1     -12.317   8.191  71.981  1.00  0.00    -0.380 A  
HETATM   41  C   UNL     1     -11.863   9.283  71.264  1.00  0.00    -0.343 A  
HETATM   42  N   UNL     1     -12.466  10.494  71.269  1.00  0.00    -0.389 NA 
ENDBRANCH  36  37
ENDBRANCH  35  36
ENDBRANCH  34  35
ENDBRANCH  26  28
ENDBRANCH  12  26
ENDBRANCH   3   4
ENDBRANCH   2   3
TORSDOF 11
ENDMDL
MODEL      122
REMARK 921   NORMALIZED FREE ENERGY PREDICTED BY IDOCK:   -1.20 KCAL/MOL
REMARK 922        TOTAL FREE ENERGY PREDICTED BY IDOCK:   -3.72 KCAL/MOL
REMARK 923 INTER-LIGAND FREE ENERGY PREDICTED BY IDOCK:   -3.40 KCAL/MOL
REMARK 924 INTRA-LIGAND FREE ENERGY PREDICTED BY IDOCK:   -0.33 KCAL/MOL
REMARK 927      BINDING AFFINITY PREDICTED BY RF-SCORE:    0.00 PKD
ROOT
HETATM    1  C   UNL     1      -8.381  17.918  66.214  1.00  0.00    -0.230 C  
HETATM    2  C   UNL     1      -9.137  16.805  65.509  1.00  0.00     0.582 C  
ENDROOT
BRANCH   2   3
HETATM    3  O   UNL     1      -8.670  15.563  66.015  1.00  0.00    -0.258 OA 
BRANCH   3   4
HETATM    4  C   UNL     1      -9.281  14.976  67.088  1.00  0.00    -0.216 A  
HETATM    5  C   UNL     1      -9.094  13.716  67.659  1.00  0.00    -0.207 A  
HETATM    6  C   UNL     1     -13.620  14.667  71.936  1.00  0.00    -0.392 C  
HETATM    7  C   UNL     1      -9.920  13.301  68.725  1.00  0.00    -0.051 A  
HETATM    8  C   UNL     1     -12.730  16.009  70.183  1.00  0.00     0.444 A  
HETATM    9  C   UNL     1     -10.265  15.803  67.638  1.00  0.00    -0.266 A  
HETATM   10  C   UNL     1     -10.916  14.152  69.292  1.00  0.00    -0.252 A  
HETATM   11  N   UNL     1     -11.939  16.338  69.138  1.00  0.00    -0.110 NA 
HETATM   12  C   UNL     1     -11.784  13.820  70.405  1.00  0.00    -0.171 A  
HETATM   13  C   UNL     1     -11.064  15.433  68.709  1.00  0.00    -0.283 A  
HETATM   14  N   UNL     1     -14.406  14.659  72.790  1.00  0.00    -0.220 NA 
HETATM   15  C   UNL     1     -12.709  14.789  70.839  1.00  0.00    -0.405 A  
BRANCH   5  16
HETATM   16  N   UNL     1      -8.093  12.828  67.223  1.00  0.00    -0.231 N  
HETATM   17  C   UNL     1      -8.367  11.892  66.246  1.00  0.00     0.080 C  
HETATM   18  H   UNL     1      -7.160  12.877  67.631  1.00  0.00     0.000 HD 
HETATM   19  O   UNL     1      -9.467  11.714  65.736  1.00  0.00    -0.228 OA 
BRANCH  17  20
HETATM   20  C   UNL     1      -7.176  11.091  65.850  1.00  0.00     0.037 C  
HETATM   21  C   UNL     1      -7.297  10.199  64.852  1.00  0.00    -0.136 C  
BRANCH  21  22
HETATM   22  C   UNL     1      -6.222   9.338  64.255  1.00  0.00    -0.077 C  
BRANCH  22  23
HETATM   23  N   UNL     1      -6.588   7.953  63.924  1.00  0.00    -0.061 NA 
HETATM   24  C   UNL     1      -5.497   7.024  64.244  1.00  0.00    -0.032 C  
HETATM   25  C   UNL     1      -7.772   7.575  64.710  1.00  0.00    -0.117 C  
ENDBRANCH  22  23
ENDBRANCH  21  22
ENDBRANCH  17  20
ENDBRANCH   5  16
BRANCH  12  26
HETATM   26  N   UNL     1     -11.648  12.513  70.988  1.00  0.00     0.337 NA 
HETATM   27  H   UNL     1     -11.564  12.519  72.004  1.00  0.00     0.000 HD 
BRANCH  26  28
HETATM   28  C   UNL     1     -11.610  11.223  70.413  1.00  0.00    -0.223 A  
HETATM   29 CL   UNL     1      -8.906   9.068  68.389  1.00  0.00    -0.133 Cl 
HETATM   30  C   UNL     1     -12.648  10.299  70.574  1.00  0.00    -0.338 A  
HETATM   31  C   UNL     1     -10.356   9.498  69.233  1.00  0.00    -0.208 A  
HETATM   32  C   UNL     1     -12.537   8.978  70.093  1.00  0.00     0.885 A  
HETATM   33  C   UNL     1     -10.476  10.813  69.701  1.00  0.00    -0.183 A  
HETATM   34  C   UNL     1     -11.378   8.559  69.438  1.00  0.00     0.360 A  
BRANCH  34  35
HETATM   35  O   UNL     1     -11.120   7.277  69.034  1.00  0.00    -0.099 OA 
BRANCH  35  36
HETATM   36  C   UNL     1     -10.184   6.494  69.774  1.00  0.00    -0.187 C  
BRANCH  36  37
HETATM   37  C   UNL     1      -9.636   5.399  68.877  1.00  0.00    -0.141 A  
HETATM   38  C   UNL     1      -8.973   5.721  67.693  1.00  0.00    -0.107 A  
HETATM   39  C   UNL     1      -8.488   4.694  66.886  1.00  0.00    -0.105 A  
HETATM   40  C   UNL     1      -8.672   3.374  67.279  1.00  0.00    -0.132 A  
HETATM   41  C   UNL     1      -9.341   3.136  68.466  1.00  0.00    -0.177 A  
HETATM   42  N   UNL     1      -9.835   4.111  69.263  1.00  0.00    -0.142 NA 
ENDBRANCH  36  37
ENDBRANCH  35  36
ENDBRANCH  34  35
ENDBRANCH  26  28
ENDBRANCH  12  26
ENDBRANCH   3   4
ENDBRANCH   2   3
TORSDOF 11
ENDMDL
MODEL      123
REMARK 921   NORMALIZED FREE ENERGY PREDICTED BY IDOCK:   -1.02 KCAL/MOL
REMARK 922        TOTAL FREE ENERGY PREDICTED BY IDOCK:   -3.44 KCAL/MOL
REMARK 923 INTER-LIGAND FREE ENERGY PREDICTED BY IDOCK:   -5.39 KCAL/MOL
REMARK 924 INTRA-LIGAND FREE ENERGY PREDICTED BY IDOCK:    1.95 KCAL/MOL
REMARK 927      BINDING AFFINITY PREDICTED BY RF-SCORE:    0.00 PKD
ROOT
HETATM    1  C   UNL     1      -8.248  17.353  66.084  1.00  0.00    -0.237 C  
HETATM    2  C   UNL     1      -9.119  16.225  65.559  1.00  0.00     0.372 C  
ENDROOT
BRANCH   2   3
HETATM    3  O   UNL     1      -8.585  14.997  66.031  1.00  0.00     0.062 OA 
BRANCH   3   4
HETATM    4  C   UNL     1      -9.147  14.360  67.102  1.00  0.00    -0.227 A  
HETATM    5  C   UNL     1      -8.867  13.113  67.663  1.00  0.00    -0.191 A  
HETATM    6  C   UNL     1     -13.426  13.709  71.969  1.00  0.00    -0.484 C  
HETATM    7  C   UNL     1      -9.655  12.632  68.730  1.00  0.00     0.085 A  
HETATM    8  C   UNL     1     -12.643  15.123  70.222  1.00  0.00    -0.326 A  
HETATM    9  C   UNL     1     -10.184  15.111  67.663  1.00  0.00    -0.241 A  
HETATM   10  C   UNL     1     -10.707  13.406  69.308  1.00  0.00    -0.018 A  
HETATM   11  N   UNL     1     -11.883  15.516  69.176  1.00  0.00    -0.360 NA 
HETATM   12  C   UNL     1     -11.542  13.005  70.423  1.00  0.00     0.131 A  
HETATM   13  C   UNL     1     -10.949  14.678  68.735  1.00  0.00    -0.258 A  
HETATM   14  N   UNL     1     -14.205  13.639  72.828  1.00  0.00    -0.544 NA 
HETATM   15  C   UNL     1     -12.532  13.904  70.869  1.00  0.00    -0.447 A  
BRANCH   5  16
HETATM   16  N   UNL     1      -7.808  12.302  67.215  1.00  0.00    -0.168 N  
HETATM   17  C   UNL     1      -8.025  11.338  66.251  1.00  0.00    -0.086 C  
HETATM   18  H   UNL     1      -6.874  12.427  67.606  1.00  0.00     0.000 HD 
HETATM   19  O   UNL     1      -9.118  11.070  65.763  1.00  0.00    -0.192 OA 
BRANCH  17  20
HETATM   20  C   UNL     1      -6.784  10.628  65.840  1.00  0.00    -0.116 C  
HETATM   21  C   UNL     1      -6.891   9.463  65.178  1.00  0.00    -0.084 C  
BRANCH  21  22
HETATM   22  C   UNL     1      -5.783   8.618  64.620  1.00  0.00    -0.063 C  
BRANCH  22  23
HETATM   23  N   UNL     1      -6.130   7.711  63.518  1.00  0.00    -0.053 NA 
HETATM   24  C   UNL     1      -5.702   6.336  63.806  1.00  0.00    -0.022 C  
HETATM   25  C   UNL     1      -7.589   7.719  63.339  1.00  0.00    -0.123 C  
ENDBRANCH  22  23
ENDBRANCH  21  22
ENDBRANCH  17  20
ENDBRANCH   5  16
BRANCH  12  26
HETATM   26  N   UNL     1     -11.311  11.708  70.995  1.00  0.00     0.552 NA 
HETATM   27  H   UNL     1     -11.337  11.693  72.015  1.00  0.00     0.000 HD 
BRANCH  26  28
HETATM   28  C   UNL     1     -11.054  10.449  70.407  1.00  0.00    -0.296 A  
HETATM   29 CL   UNL     1      -7.906   8.694  68.657  1.00  0.00    -0.105 Cl 
HETATM   30  C   UNL     1     -11.982   9.403  70.438  1.00  0.00    -0.080 A  
HETATM   31  C   UNL     1      -9.480   8.923  69.343  1.00  0.00    -0.161 A  
HETATM   32  C   UNL     1     -11.661   8.120  69.950  1.00  0.00     0.282 A  
HETATM   33  C   UNL     1      -9.809  10.199  69.817  1.00  0.00    -0.245 A  
HETATM   34  C   UNL     1     -10.396   7.862  69.419  1.00  0.00    -0.220 A  
BRANCH  34  35
HETATM   35  O   UNL     1      -9.941   6.633  69.024  1.00  0.00    -0.148 OA 
BRANCH  35  36
HETATM   36  C   UNL     1     -10.271   5.489  69.812  1.00  0.00    -0.265 C  
BRANCH  36  37
HETATM   37  C   UNL     1      -9.984   5.792  71.271  1.00  0.00    -0.191 A  
HETATM   38  C   UNL     1     -10.204   4.824  72.251  1.00  0.00    -0.252 A  
HETATM   39  C   UNL     1      -9.939   5.134  73.583  1.00  0.00    -0.191 A  
HETATM   40  C   UNL     1      -9.461   6.398  73.906  1.00  0.00    -0.178 A  
HETATM   41  C   UNL     1      -9.271   7.304  72.878  1.00  0.00    -0.147 A  
HETATM   42  N   UNL     1      -9.532   7.036  71.578  1.00  0.00    -0.155 NA 
ENDBRANCH  36  37
ENDBRANCH  35  36
ENDBRANCH  34  35
ENDBRANCH  26  28
ENDBRANCH  12  26
ENDBRANCH   3   4
ENDBRANCH   2   3
TORSDOF 11
ENDMDL
MODEL      124
REMARK 921   NORMALIZED FREE ENERGY PREDICTED BY IDOCK:   -0.82 KCAL/MOL
REMARK 922        TOTAL FREE ENERGY PREDICTED BY IDOCK:   -3.11 KCAL/MOL
REMARK 923 INTER-LIGAND FREE ENERGY PREDICTED BY IDOCK:   -5.79 KCAL/MOL
REMARK 924 INTRA-LIGAND FREE ENERGY PREDICTED BY IDOCK:    2.67 KCAL/MOL
REMARK 927      BINDING AFFINITY PREDICTED BY RF-SCORE:    0.00 PKD
ROOT
HETATM    1  C   UNL     1      -5.616  18.623  70.026  1.00  0.00    -0.239 C  
HETATM    2  C   UNL     1      -5.126  17.235  70.406  1.00  0.00    -0.238 C  
ENDROOT
BRANCH   2   3
HETATM    3  O   UNL     1      -6.210  16.329  70.264  1.00  0.00    -0.108 OA 
BRANCH   3   4
HETATM    4  C   UNL     1      -7.120  16.486  69.257  1.00  0.00    -0.219 A  
HETATM    5  C   UNL     1      -7.710  15.543  68.415  1.00  0.00    -0.124 A  
HETATM    6  C   UNL     1     -10.912  19.949  65.250  1.00  0.00     0.262 C  
HETATM    7  C   UNL     1      -8.569  15.968  67.379  1.00  0.00    -0.194 A  
HETATM    8  C   UNL     1      -9.402  20.040  67.088  1.00  0.00    -0.378 A  
HETATM    9  C   UNL     1      -7.450  17.831  69.065  1.00  0.00    -0.170 A  
HETATM   10  C   UNL     1      -8.912  17.341  67.192  1.00  0.00    -0.236 A  
HETATM   11  N   UNL     1      -8.556  19.580  68.036  1.00  0.00    -0.318 NA 
HETATM   12  C   UNL     1      -9.809  17.862  66.178  1.00  0.00    -0.249 A  
HETATM   13  C   UNL     1      -8.320  18.271  68.079  1.00  0.00    -0.261 A  
HETATM   14  N   UNL     1     -11.576  20.607  64.561  1.00  0.00     1.428 NA 
HETATM   15  C   UNL     1     -10.039  19.252  66.144  1.00  0.00    -0.517 A  
BRANCH   5  16
HETATM   16  N   UNL     1      -7.495  14.159  68.559  1.00  0.00    -0.116 N  
HETATM   17  C   UNL     1      -6.232  13.673  68.833  1.00  0.00    -0.092 C  
HETATM   18  H   UNL     1      -8.277  13.512  68.460  1.00  0.00     0.000 HD 
HETATM   19  O   UNL     1      -5.219  14.360  68.911  1.00  0.00    -0.084 OA 
BRANCH  17  20
HETATM   20  C   UNL     1      -6.200  12.199  69.031  1.00  0.00    -0.081 C  
HETATM   21  C   UNL     1      -5.709  11.423  68.050  1.00  0.00    -0.042 C  
BRANCH  21  22
HETATM   22  C   UNL     1      -5.528   9.932  68.062  1.00  0.00    -0.039 C  
BRANCH  22  23
HETATM   23  N   UNL     1      -6.700   9.118  67.711  1.00  0.00    -0.064 NA 
HETATM   24  C   UNL     1      -6.961   9.156  66.267  1.00  0.00    -0.086 C  
HETATM   25  C   UNL     1      -6.442   7.724  68.104  1.00  0.00    -0.054 C  
ENDBRANCH  22  23
ENDBRANCH  21  22
ENDBRANCH  17  20
ENDBRANCH   5  16
BRANCH  12  26
HETATM   26  N   UNL     1     -10.398  16.922  65.265  1.00  0.00    -0.638 NA 
HETATM   27  H   UNL     1     -10.534  17.289  64.323  1.00  0.00     0.000 HD 
BRANCH  26  28
HETATM   28  C   UNL     1     -10.823  15.585  65.430  1.00  0.00    -0.390 A  
HETATM   29 CL   UNL     1      -9.013  12.045  65.925  1.00  0.00    -0.044 Cl 
HETATM   30  C   UNL     1     -12.170  15.238  65.572  1.00  0.00     0.427 A  
HETATM   31  C   UNL     1     -10.257  13.245  65.808  1.00  0.00    -0.292 A  
HETATM   32  C   UNL     1     -12.563  13.913  65.854  1.00  0.00    -0.498 A  
HETATM   33  C   UNL     1      -9.873  14.560  65.514  1.00  0.00    -0.320 A  
HETATM   34  C   UNL     1     -11.605  12.908  65.998  1.00  0.00    -0.375 A  
BRANCH  34  35
HETATM   35  O   UNL     1     -11.865  11.620  66.382  1.00  0.00    -0.470 OA 
BRANCH  35  36
HETATM   36  C   UNL     1     -11.839  11.293  67.772  1.00  0.00    -0.084 C  
BRANCH  36  37
HETATM   37  C   UNL     1     -11.259   9.901  67.942  1.00  0.00    -0.038 A  
HETATM   38  C   UNL     1     -11.027   9.091  66.830  1.00  0.00     0.199 A  
HETATM   39  C   UNL     1     -10.502   7.814  67.019  1.00  0.00    -0.419 A  
HETATM   40  C   UNL     1     -10.219   7.377  68.307  1.00  0.00    -0.213 A  
HETATM   41  C   UNL     1     -10.479   8.239  69.358  1.00  0.00    -0.220 A  
HETATM   42  N   UNL     1     -11.001   9.478  69.207  1.00  0.00    -0.190 NA 
ENDBRANCH  36  37
ENDBRANCH  35  36
ENDBRANCH  34  35
ENDBRANCH  26  28
ENDBRANCH  12  26
ENDBRANCH   3   4
ENDBRANCH   2   3
TORSDOF 11
ENDMDL
MODEL      125
REMARK 921   NORMALIZED FREE ENERGY PREDICTED BY IDOCK:   -0.78 KCAL/MOL
REMARK 922        TOTAL FREE ENERGY PREDICTED BY IDOCK:   -3.04 KCAL/MOL
REMARK 923 INTER-LIGAND FREE ENERGY PREDICTED BY IDOCK:   -2.79 KCAL/MOL
REMARK 924 INTRA-LIGAND FREE ENERGY PREDICTED BY IDOCK:   -0.25 KCAL/MOL
REMARK 927      BINDING AFFINITY PREDICTED BY RF-SCORE:    0.00 PKD
ROOT
HETATM    1  C   UNL     1     -11.670   5.833  65.769  1.00  0.00     2.361 C  
HETATM    2  C   UNL     1     -10.592   4.769  65.887  1.00  0.00    -0.244 C  
ENDROOT
BRANCH   2   3
HETATM    3  O   UNL     1      -9.363   5.334  65.455  1.00  0.00    -0.153 OA 
BRANCH   3   4
HETATM    4  C   UNL     1      -8.673   6.196  66.261  1.00  0.00    -0.143 A  
HETATM    5  C   UNL     1      -8.285   6.073  67.596  1.00  0.00    -0.109 A  
HETATM    6  C   UNL     1      -5.707  11.821  67.672  1.00  0.00    -0.067 C  
HETATM    7  C   UNL     1      -7.645   7.153  68.241  1.00  0.00    -0.115 A  
HETATM    8  C   UNL     1      -6.811  10.554  65.985  1.00  0.00    -0.134 A  
HETATM    9  C   UNL     1      -8.363   7.387  65.597  1.00  0.00    -0.143 A  
HETATM   10  C   UNL     1      -7.321   8.364  67.558  1.00  0.00    -0.093 A  
HETATM   11  N   UNL     1      -7.455   9.505  65.429  1.00  0.00    -0.096 NA 
HETATM   12  C   UNL     1      -6.639   9.507  68.132  1.00  0.00    -0.062 A  
HETATM   13  C   UNL     1      -7.703   8.448  66.198  1.00  0.00    -0.097 A  
HETATM   14  N   UNL     1      -5.184  12.837  67.876  1.00  0.00    -0.091 NA 
HETATM   15  C   UNL     1      -6.393  10.620  67.304  1.00  0.00    -0.064 A  
BRANCH   5  16
HETATM   16  N   UNL     1      -8.492   4.897  68.340  1.00  0.00    -0.094 N  
HETATM   17  C   UNL     1      -7.457   4.335  69.061  1.00  0.00    -0.055 C  
HETATM   18  H   UNL     1      -9.412   4.457  68.346  1.00  0.00     0.000 HD 
HETATM   19  O   UNL     1      -6.304   4.751  69.071  1.00  0.00    -0.030 OA 
BRANCH  17  20
HETATM   20  C   UNL     1      -7.872   3.143  69.850  1.00  0.00    -0.048 C  
HETATM   21  C   UNL     1      -7.542   3.080  71.152  1.00  0.00    -0.040 C  
BRANCH  21  22
HETATM   22  C   UNL     1      -7.907   2.011  72.141  1.00  0.00    -0.045 C  
BRANCH  22  23
HETATM   23  N   UNL     1      -7.433   2.193  73.520  1.00  0.00    -0.040 NA 
HETATM   24  C   UNL     1      -5.984   1.970  73.618  1.00  0.00     0.000 C  
HETATM   25  C   UNL     1      -7.724   3.570  73.944  1.00  0.00    -0.066 C  
ENDBRANCH  22  23
ENDBRANCH  21  22
ENDBRANCH  17  20
ENDBRANCH   5  16
BRANCH  12  26
HETATM   26  N   UNL     1      -6.265   9.432  69.518  1.00  0.00    -0.039 NA 
HETATM   27  H   UNL     1      -5.339   9.808  69.719  1.00  0.00     0.000 HD 
BRANCH  26  28
HETATM   28  C   UNL     1      -6.943   8.934  70.653  1.00  0.00    -0.064 A  
HETATM   29 CL   UNL     1      -5.906   6.899  73.945  1.00  0.00    -0.058 Cl 
HETATM   30  C   UNL     1      -8.293   9.203  70.899  1.00  0.00    -0.231 A  
HETATM   31  C   UNL     1      -6.856   7.792  72.804  1.00  0.00    -0.075 A  
HETATM   32  C   UNL     1      -8.919   8.796  72.095  1.00  0.00    -0.184 A  
HETATM   33  C   UNL     1      -6.242   8.187  71.608  1.00  0.00    -0.043 A  
HETATM   34  C   UNL     1      -8.197   8.106  73.070  1.00  0.00    -0.189 A  
BRANCH  34  35
HETATM   35  O   UNL     1      -8.670   7.765  74.308  1.00  0.00    -0.245 OA 
BRANCH  35  36
HETATM   36  C   UNL     1      -9.653   6.734  74.413  1.00  0.00    -0.266 C  
BRANCH  36  37
HETATM   37  C   UNL     1     -10.406   6.633  73.099  1.00  0.00    -0.234 A  
HETATM   38  C   UNL     1      -9.983   5.747  72.108  1.00  0.00    -0.206 A  
HETATM   39  C   UNL     1     -10.690   5.682  70.909  1.00  0.00    -0.313 A  
HETATM   40  C   UNL     1     -11.800   6.498  70.728  1.00  0.00    -0.394 A  
HETATM   41  C   UNL     1     -12.155   7.351  71.757  1.00  0.00    -0.312 A  
HETATM   42  N   UNL     1     -11.481   7.447  72.926  1.00  0.00    -0.269 NA 
ENDBRANCH  36  37
ENDBRANCH  35  36
ENDBRANCH  34  35
ENDBRANCH  26  28
ENDBRANCH  12  26
ENDBRANCH   3   4
ENDBRANCH   2   3
TORSDOF 11
ENDMDL
MODEL      126
REMARK 921   NORMALIZED FREE ENERGY PREDICTED BY IDOCK:   -0.65 KCAL/MOL
REMARK 922        TOTAL FREE ENERGY PREDICTED BY IDOCK:   -2.83 KCAL/MOL
REMARK 923 INTER-LIGAND FREE ENERGY PREDICTED BY IDOCK:   -2.38 KCAL/MOL
REMARK 924 INTRA-LIGAND FREE ENERGY PREDICTED BY IDOCK:   -0.45 KCAL/MOL
REMARK 927      BINDING AFFINITY PREDICTED BY RF-SCORE:    0.00 PKD
ROOT
HETATM    1  C   UNL     1      -9.123   3.293  65.699  1.00  0.00    -0.152 C  
HETATM    2  C   UNL     1      -7.921   4.211  65.549  1.00  0.00    -0.097 C  
ENDROOT
BRANCH   2   3
HETATM    3  O   UNL     1      -8.377   5.460  65.051  1.00  0.00    -0.134 OA 
BRANCH   3   4
HETATM    4  C   UNL     1      -8.170   6.609  65.760  1.00  0.00    -0.135 A  
HETATM    5  C   UNL     1      -8.712   7.034  66.974  1.00  0.00    -0.123 A  
HETATM    6  C   UNL     1      -5.647  12.533  66.745  1.00  0.00     0.523 C  
HETATM    7  C   UNL     1      -8.403   8.320  67.468  1.00  0.00    -0.130 A  
HETATM    8  C   UNL     1      -5.713  10.645  65.297  1.00  0.00    -0.126 A  
HETATM    9  C   UNL     1      -7.292   7.473  65.099  1.00  0.00    -0.073 A  
HETATM   10  C   UNL     1      -7.497   9.195  66.795  1.00  0.00    -0.087 A  
HETATM   11  N   UNL     1      -6.075   9.421  64.852  1.00  0.00    -0.066 NA 
HETATM   12  C   UNL     1      -7.100  10.515  67.245  1.00  0.00    -0.088 A  
HETATM   13  C   UNL     1      -6.943   8.725  65.581  1.00  0.00    -0.079 A  
HETATM   14  N   UNL     1      -5.170  13.583  66.880  1.00  0.00     0.404 NA 
HETATM   15  C   UNL     1      -6.186  11.240  66.455  1.00  0.00    -0.130 A  
BRANCH   5  16
HETATM   16  N   UNL     1      -9.559   6.222  67.752  1.00  0.00    -0.117 N  
HETATM   17  C   UNL     1      -9.028   5.344  68.676  1.00  0.00    -0.107 C  
HETATM   18  H   UNL     1     -10.569   6.281  67.631  1.00  0.00     0.000 HD 
HETATM   19  O   UNL     1      -7.830   5.154  68.855  1.00  0.00    -0.080 OA 
BRANCH  17  20
HETATM   20  C   UNL     1     -10.065   4.623  69.463  1.00  0.00    -0.212 C  
HETATM   21  C   UNL     1      -9.696   3.969  70.578  1.00  0.00    -0.258 C  
BRANCH  21  22
HETATM   22  C   UNL     1     -10.577   3.235  71.547  1.00  0.00     0.823 C  
BRANCH  22  23
HETATM   23  N   UNL     1     -10.059   3.056  72.911  1.00  0.00    -0.138 NA 
HETATM   24  C   UNL     1     -11.153   2.891  73.877  1.00  0.00    -0.162 C  
HETATM   25  C   UNL     1      -9.219   1.849  72.944  1.00  0.00    -0.069 C  
ENDBRANCH  22  23
ENDBRANCH  21  22
ENDBRANCH  17  20
ENDBRANCH   5  16
BRANCH  12  26
HETATM   26  N   UNL     1      -7.675  11.002  68.469  1.00  0.00    -0.114 NA 
HETATM   27  H   UNL     1      -7.106  10.820  69.296  1.00  0.00     0.000 HD 
BRANCH  26  28
HETATM   28  C   UNL     1      -8.881  11.686  68.738  1.00  0.00    -0.011 A  
HETATM   29 CL   UNL     1      -9.884  15.423  69.780  1.00  0.00    -0.265 Cl 
HETATM   30  C   UNL     1     -10.136  11.096  68.554  1.00  0.00    -0.208 A  
HETATM   31  C   UNL     1     -10.024  13.765  69.298  1.00  0.00     0.314 A  
HETATM   32  C   UNL     1     -11.326  11.833  68.715  1.00  0.00    -0.325 A  
HETATM   33  C   UNL     1      -8.844  13.024  69.150  1.00  0.00     0.692 A  
HETATM   34  C   UNL     1     -11.279  13.184  69.066  1.00  0.00    -0.258 A  
BRANCH  34  35
HETATM   35  O   UNL     1     -12.362  14.018  69.137  1.00  0.00    -0.313 OA 
BRANCH  35  36
HETATM   36  C   UNL     1     -12.685  14.830  68.008  1.00  0.00     1.069 C  
BRANCH  36  37
HETATM   37  C   UNL     1     -11.821  14.409  66.833  1.00  0.00    -0.410 A  
HETATM   38  C   UNL     1     -10.639  15.092  66.544  1.00  0.00    -0.304 A  
HETATM   39  C   UNL     1      -9.871  14.688  65.454  1.00  0.00    -0.280 A  
HETATM   40  C   UNL     1     -10.296  13.615  64.681  1.00  0.00    -0.407 A  
HETATM   41  C   UNL     1     -11.480  12.990  65.031  1.00  0.00    -0.313 A  
HETATM   42  N   UNL     1     -12.254  13.368  66.074  1.00  0.00    -0.436 NA 
ENDBRANCH  36  37
ENDBRANCH  35  36
ENDBRANCH  34  35
ENDBRANCH  26  28
ENDBRANCH  12  26
ENDBRANCH   3   4
ENDBRANCH   2   3
TORSDOF 11
ENDMDL
MODEL      127
REMARK 921   NORMALIZED FREE ENERGY PREDICTED BY IDOCK:   -0.58 KCAL/MOL
REMARK 922        TOTAL FREE ENERGY PREDICTED BY IDOCK:   -2.72 KCAL/MOL
REMARK 923 INTER-LIGAND FREE ENERGY PREDICTED BY IDOCK:   -4.09 KCAL/MOL
REMARK 924 INTRA-LIGAND FREE ENERGY PREDICTED BY IDOCK:    1.38 KCAL/MOL
REMARK 927      BINDING AFFINITY PREDICTED BY RF-SCORE:    0.00 PKD
ROOT
HETATM    1  C   UNL     1      -9.564  10.501  62.390  1.00  0.00    -0.179 C  
HETATM    2  C   UNL     1      -9.328   9.477  63.487  1.00  0.00     0.166 C  
ENDROOT
BRANCH   2   3
HETATM    3  O   UNL     1     -10.270   9.713  64.523  1.00  0.00     0.339 OA 
BRANCH   3   4
HETATM    4  C   UNL     1     -10.294  10.910  65.182  1.00  0.00    -0.278 A  
HETATM    5  C   UNL     1     -10.199  11.195  66.545  1.00  0.00    -0.231 A  
HETATM    6  C   UNL     1     -10.901  17.382  65.588  1.00  0.00    -0.011 C  
HETATM    7  C   UNL     1     -10.339  12.526  66.993  1.00  0.00    -0.236 A  
HETATM    8  C   UNL     1     -10.831  15.507  64.124  1.00  0.00     0.685 A  
HETATM    9  C   UNL     1     -10.480  11.980  64.301  1.00  0.00    -0.369 A  
HETATM   10  C   UNL     1     -10.517  13.618  66.090  1.00  0.00    -0.297 A  
HETATM   11  N   UNL     1     -10.730  14.211  63.755  1.00  0.00     0.693 NA 
HETATM   12  C   UNL     1     -10.637  15.015  66.460  1.00  0.00    -0.305 A  
HETATM   13  C   UNL     1     -10.583  13.300  64.713  1.00  0.00    -0.386 A  
HETATM   14  N   UNL     1     -11.011  18.538  65.612  1.00  0.00    -0.220 NA 
HETATM   15  C   UNL     1     -10.802  15.964  65.431  1.00  0.00    -0.361 A  
BRANCH   5  16
HETATM   16  N   UNL     1      -9.953  10.202  67.511  1.00  0.00    -0.183 N  
HETATM   17  C   UNL     1      -8.707   9.616  67.608  1.00  0.00    -0.126 C  
HETATM   18  H   UNL     1     -10.699   9.915  68.143  1.00  0.00     0.000 HD 
HETATM   19  O   UNL     1      -7.764   9.847  66.860  1.00  0.00    -0.098 OA 
BRANCH  17  20
HETATM   20  C   UNL     1      -8.600   8.646  68.732  1.00  0.00    -0.130 C  
HETATM   21  C   UNL     1      -8.815   7.342  68.487  1.00  0.00    -0.126 C  
BRANCH  21  22
HETATM   22  C   UNL     1      -8.701   6.196  69.450  1.00  0.00    -0.123 C  
BRANCH  22  23
HETATM   23  N   UNL     1      -7.791   5.103  69.076  1.00  0.00    -0.081 NA 
HETATM   24  C   UNL     1      -8.256   3.818  69.615  1.00  0.00    -0.053 C  
HETATM   25  C   UNL     1      -7.744   5.007  67.609  1.00  0.00    -0.087 C  
ENDBRANCH  22  23
ENDBRANCH  21  22
ENDBRANCH  17  20
ENDBRANCH   5  16
BRANCH  12  26
HETATM   26  N   UNL     1     -10.589  15.340  67.859  1.00  0.00    -0.254 NA 
HETATM   27  H   UNL     1     -10.093  16.206  68.067  1.00  0.00     0.000 HD 
BRANCH  26  28
HETATM   28  C   UNL     1     -11.102  14.681  68.999  1.00  0.00    -0.259 A  
HETATM   29 CL   UNL     1     -14.238  15.202  71.438  1.00  0.00    -0.589 Cl 
HETATM   30  C   UNL     1     -10.565  13.482  69.478  1.00  0.00     0.252 A  
HETATM   31  C   UNL     1     -12.833  14.502  70.705  1.00  0.00    -0.361 A  
HETATM   32  C   UNL     1     -11.165  12.781  70.544  1.00  0.00     1.079 A  
HETATM   33  C   UNL     1     -12.225  15.201  69.654  1.00  0.00    -0.292 A  
HETATM   34  C   UNL     1     -12.321  13.275  71.152  1.00  0.00    -0.232 A  
BRANCH  34  35
HETATM   35  O   UNL     1     -13.046  12.623  72.113  1.00  0.00    -0.408 OA 
BRANCH  35  36
HETATM   36  C   UNL     1     -13.883  11.532  71.727  1.00  0.00     0.579 C  
BRANCH  36  37
HETATM   37  C   UNL     1     -13.080  10.246  71.789  1.00  0.00    -0.465 A  
HETATM   38  C   UNL     1     -13.360   9.284  72.761  1.00  0.00    -0.196 A  
HETATM   39  C   UNL     1     -12.601   8.117  72.798  1.00  0.00    -0.003 A  
HETATM   40  C   UNL     1     -11.585   7.935  71.868  1.00  0.00    -0.338 A  
HETATM   41  C   UNL     1     -11.368   8.935  70.938  1.00  0.00    -0.283 A  
HETATM   42  N   UNL     1     -12.079  10.085  70.885  1.00  0.00    -0.329 NA 
ENDBRANCH  36  37
ENDBRANCH  35  36
ENDBRANCH  34  35
ENDBRANCH  26  28
ENDBRANCH  12  26
ENDBRANCH   3   4
ENDBRANCH   2   3
TORSDOF 11
ENDMDL
MODEL      128
REMARK 921   NORMALIZED FREE ENERGY PREDICTED BY IDOCK:   -0.16 KCAL/MOL
REMARK 922        TOTAL FREE ENERGY PREDICTED BY IDOCK:   -2.03 KCAL/MOL
REMARK 923 INTER-LIGAND FREE ENERGY PREDICTED BY IDOCK:   -2.32 KCAL/MOL
REMARK 924 INTRA-LIGAND FREE ENERGY PREDICTED BY IDOCK:    0.29 KCAL/MOL
REMARK 927      BINDING AFFINITY PREDICTED BY RF-SCORE:    0.00 PKD
ROOT
HETATM    1  C   UNL     1      -6.805  17.435  66.472  1.00  0.00    -0.289 C  
HETATM    2  C   UNL     1      -6.584  16.060  67.080  1.00  0.00    -0.053 C  
ENDROOT
BRANCH   2   3
HETATM    3  O   UNL     1      -7.601  15.194  66.598  1.00  0.00     0.038 OA 
BRANCH   3   4
HETATM    4  C   UNL     1      -7.718  13.922  67.083  1.00  0.00     0.029 A  
HETATM    5  C   UNL     1      -8.496  13.419  68.127  1.00  0.00    -0.172 A  
HETATM    6  C   UNL     1      -6.218   7.591  67.398  1.00  0.00    -0.049 C  
HETATM    7  C   UNL     1      -8.377  12.063  68.498  1.00  0.00    -0.104 A  
HETATM    8  C   UNL     1      -5.821   9.647  66.266  1.00  0.00    -0.058 A  
HETATM    9  C   UNL     1      -6.876  13.033  66.408  1.00  0.00     2.216 A  
HETATM   10  C   UNL     1      -7.524  11.155  67.801  1.00  0.00    -0.095 A  
HETATM   11  N   UNL     1      -5.945  10.962  65.979  1.00  0.00    -0.138 NA 
HETATM   12  C   UNL     1      -7.366   9.744  68.093  1.00  0.00    -0.080 A  
HETATM   13  C   UNL     1      -6.769  11.688  66.729  1.00  0.00    -0.087 A  
HETATM   14  N   UNL     1      -5.922   6.469  67.414  1.00  0.00    -0.019 NA 
HETATM   15  C   UNL     1      -6.482   8.993  67.292  1.00  0.00    -0.061 A  
BRANCH   5  16
HETATM   16  N   UNL     1      -9.420  14.212  68.832  1.00  0.00    -0.384 N  
HETATM   17  C   UNL     1     -10.522  14.740  68.189  1.00  0.00    -0.239 C  
HETATM   18  H   UNL     1      -9.275  14.397  69.824  1.00  0.00     0.000 HD 
HETATM   19  O   UNL     1     -10.754  14.627  66.990  1.00  0.00    -0.281 OA 
BRANCH  17  20
HETATM   20  C   UNL     1     -11.433  15.484  69.100  1.00  0.00    -0.356 C  
HETATM   21  C   UNL     1     -11.202  15.444  70.424  1.00  0.00    -0.345 C  
BRANCH  21  22
HETATM   22  C   UNL     1     -11.949  16.163  71.509  1.00  0.00    -0.430 C  
BRANCH  22  23
HETATM   23  N   UNL     1     -12.937  15.380  72.266  1.00  0.00    -0.359 NA 
HETATM   24  C   UNL     1     -12.551  13.965  72.338  1.00  0.00    -0.101 C  
HETATM   25  C   UNL     1     -13.017  15.914  73.634  1.00  0.00    -0.568 C  
ENDBRANCH  22  23
ENDBRANCH  21  22
ENDBRANCH  17  20
ENDBRANCH   5  16
BRANCH  12  26
HETATM   26  N   UNL     1      -8.118   9.203  69.191  1.00  0.00    -0.102 NA 
HETATM   27  H   UNL     1      -9.055   9.595  69.286  1.00  0.00     0.000 HD 
BRANCH  26  28
HETATM   28  C   UNL     1      -7.801   8.228  70.164  1.00  0.00    -0.097 A  
HETATM   29 CL   UNL     1      -5.152   7.925  73.155  1.00  0.00    -0.040 Cl 
HETATM   30  C   UNL     1      -8.552   7.061  70.330  1.00  0.00    -0.140 A  
HETATM   31  C   UNL     1      -6.475   7.561  72.097  1.00  0.00    -0.050 A  
HETATM   32  C   UNL     1      -8.289   6.160  71.382  1.00  0.00    -0.123 A  
HETATM   33  C   UNL     1      -6.732   8.446  71.042  1.00  0.00    -0.049 A  
HETATM   34  C   UNL     1      -7.261   6.416  72.291  1.00  0.00    -0.087 A  
BRANCH  34  35
HETATM   35  O   UNL     1      -6.993   5.673  73.409  1.00  0.00    -0.082 OA 
BRANCH  35  36
HETATM   36  C   UNL     1      -7.695   4.445  73.607  1.00  0.00    -0.082 C  
BRANCH  36  37
HETATM   37  C   UNL     1      -9.187   4.720  73.598  1.00  0.00    -0.121 A  
HETATM   38  C   UNL     1      -9.686   5.926  74.091  1.00  0.00    -0.191 A  
HETATM   39  C   UNL     1     -11.062   6.147  74.077  1.00  0.00     0.533 A  
HETATM   40  C   UNL     1     -11.905   5.165  73.572  1.00  0.00     0.499 A  
HETATM   41  C   UNL     1     -11.333   3.995  73.104  1.00  0.00    -0.071 A  
HETATM   42  N   UNL     1     -10.004   3.746  73.117  1.00  0.00    -0.127 NA 
ENDBRANCH  36  37
ENDBRANCH  35  36
ENDBRANCH  34  35
ENDBRANCH  26  28
ENDBRANCH  12  26
ENDBRANCH   3   4
ENDBRANCH   2   3
TORSDOF 11
ENDMDL
MODEL      129
REMARK 921   NORMALIZED FREE ENERGY PREDICTED BY IDOCK:   -0.12 KCAL/MOL
REMARK 922        TOTAL FREE ENERGY PREDICTED BY IDOCK:   -1.96 KCAL/MOL
REMARK 923 INTER-LIGAND FREE ENERGY PREDICTED BY IDOCK:   -0.98 KCAL/MOL
REMARK 924 INTRA-LIGAND FREE ENERGY PREDICTED BY IDOCK:   -0.99 KCAL/MOL
REMARK 927      BINDING AFFINITY PREDICTED BY RF-SCORE:    0.00 PKD
ROOT
HETATM    1  C   UNL     1      -5.336   3.331  71.448  1.00  0.00    -0.004 C  
HETATM    2  C   UNL     1      -5.147   4.549  70.560  1.00  0.00     0.000 C  
ENDROOT
BRANCH   2   3
HETATM    3  O   UNL     1      -5.728   4.269  69.295  1.00  0.00    -0.016 OA 
BRANCH   3   4
HETATM    4  C   UNL     1      -6.381   5.247  68.598  1.00  0.00    -0.035 A  
HETATM    5  C   UNL     1      -7.463   6.049  68.962  1.00  0.00    -0.086 A  
HETATM    6  C   UNL     1      -7.611   8.895  63.343  1.00  0.00    -0.110 C  
HETATM    7  C   UNL     1      -8.022   6.941  68.021  1.00  0.00    -0.115 A  
HETATM    8  C   UNL     1      -6.216   7.206  64.276  1.00  0.00    -0.037 A  
HETATM    9  C   UNL     1      -5.860   5.398  67.309  1.00  0.00    -0.018 A  
HETATM   10  C   UNL     1      -7.480   7.101  66.710  1.00  0.00    -0.089 A  
HETATM   11  N   UNL     1      -5.747   6.342  65.203  1.00  0.00    -0.022 NA 
HETATM   12  C   UNL     1      -7.970   8.013  65.694  1.00  0.00    -0.114 A  
HETATM   13  C   UNL     1      -6.367   6.293  66.379  1.00  0.00    -0.042 A  
HETATM   14  N   UNL     1      -7.790   9.525  62.385  1.00  0.00    -0.111 NA 
HETATM   15  C   UNL     1      -7.305   8.044  64.452  1.00  0.00    -0.090 A  
BRANCH   5  16
HETATM   16  N   UNL     1      -8.027   6.021  70.251  1.00  0.00    -0.105 N  
HETATM   17  C   UNL     1      -8.802   4.951  70.651  1.00  0.00    -0.117 C  
HETATM   18  H   UNL     1      -7.862   6.796  70.893  1.00  0.00     0.000 HD 
HETATM   19  O   UNL     1      -9.108   4.002  69.938  1.00  0.00    -0.093 OA 
BRANCH  17  20
HETATM   20  C   UNL     1      -9.250   5.048  72.067  1.00  0.00    -0.160 C  
HETATM   21  C   UNL     1      -9.559   6.257  72.568  1.00  0.00    -0.146 C  
BRANCH  21  22
HETATM   22  C   UNL     1     -10.086   6.576  73.937  1.00  0.00    -0.308 C  
BRANCH  22  23
HETATM   23  N   UNL     1     -11.536   6.788  74.058  1.00  0.00     1.101 NA 
HETATM   24  C   UNL     1     -11.902   8.166  73.703  1.00  0.00     2.435 C  
HETATM   25  C   UNL     1     -12.227   5.869  73.142  1.00  0.00     0.834 C  
ENDBRANCH  22  23
ENDBRANCH  21  22
ENDBRANCH  17  20
ENDBRANCH   5  16
BRANCH  12  26
HETATM   26  N   UNL     1      -9.111   8.822  66.021  1.00  0.00    -0.199 NA 
HETATM   27  H   UNL     1      -9.987   8.486  65.619  1.00  0.00     0.000 HD 
BRANCH  26  28
HETATM   28  C   UNL     1      -9.246   9.997  66.794  1.00  0.00    -0.148 A  
HETATM   29 CL   UNL     1      -8.439  13.885  66.261  1.00  0.00     0.481 Cl 
HETATM   30  C   UNL     1      -9.881  10.006  68.040  1.00  0.00    -0.164 A  
HETATM   31  C   UNL     1      -9.018  12.417  66.974  1.00  0.00    -0.209 A  
HETATM   32  C   UNL     1     -10.109  11.208  68.741  1.00  0.00    -0.211 A  
HETATM   33  C   UNL     1      -8.783  11.218  66.289  1.00  0.00    -0.184 A  
HETATM   34  C   UNL     1      -9.700  12.429  68.201  1.00  0.00    -0.214 A  
BRANCH  34  35
HETATM   35  O   UNL     1      -9.969  13.659  68.738  1.00  0.00    -0.191 OA 
BRANCH  35  36
HETATM   36  C   UNL     1     -11.286  14.195  68.613  1.00  0.00    -0.277 C  
BRANCH  36  37
HETATM   37  C   UNL     1     -11.606  14.385  67.141  1.00  0.00    -0.386 A  
HETATM   38  C   UNL     1     -12.502  13.531  66.497  1.00  0.00    -0.309 A  
HETATM   39  C   UNL     1     -12.770  13.726  65.143  1.00  0.00    -0.439 A  
HETATM   40  C   UNL     1     -12.142  14.764  64.467  1.00  0.00    -0.460 A  
HETATM   41  C   UNL     1     -11.265  15.565  65.175  1.00  0.00    -0.318 A  
HETATM   42  N   UNL     1     -10.974  15.393  66.485  1.00  0.00    -0.303 NA 
ENDBRANCH  36  37
ENDBRANCH  35  36
ENDBRANCH  34  35
ENDBRANCH  26  28
ENDBRANCH  12  26
ENDBRANCH   3   4
ENDBRANCH   2   3
TORSDOF 11
ENDMDL
MODEL      130
REMARK 921   NORMALIZED FREE ENERGY PREDICTED BY IDOCK:   -0.07 KCAL/MOL
REMARK 922        TOTAL FREE ENERGY PREDICTED BY IDOCK:   -1.87 KCAL/MOL
REMARK 923 INTER-LIGAND FREE ENERGY PREDICTED BY IDOCK:   -5.52 KCAL/MOL
REMARK 924 INTRA-LIGAND FREE ENERGY PREDICTED BY IDOCK:    3.64 KCAL/MOL
REMARK 927      BINDING AFFINITY PREDICTED BY RF-SCORE:    0.00 PKD
ROOT
HETATM    1  C   UNL     1     -11.264  19.666  69.741  1.00  0.00     3.003 C  
HETATM    2  C   UNL     1      -9.758  19.702  69.939  1.00  0.00     0.395 C  
ENDROOT
BRANCH   2   3
HETATM    3  O   UNL     1      -9.145  19.189  68.766  1.00  0.00    -0.363 OA 
BRANCH   3   4
HETATM    4  C   UNL     1      -9.361  17.897  68.377  1.00  0.00    -0.288 A  
HETATM    5  C   UNL     1      -8.986  17.228  67.211  1.00  0.00    -0.227 A  
HETATM    6  C   UNL     1     -11.844  11.908  69.004  1.00  0.00    -0.308 C  
HETATM    7  C   UNL     1      -9.408  15.898  67.000  1.00  0.00    -0.230 A  
HETATM    8  C   UNL     1     -11.595  14.045  70.023  1.00  0.00    -0.232 A  
HETATM    9  C   UNL     1     -10.113  17.192  69.322  1.00  0.00    -0.192 A  
HETATM   10  C   UNL     1     -10.166  15.177  67.972  1.00  0.00    -0.230 A  
HETATM   11  N   UNL     1     -11.197  15.329  70.154  1.00  0.00    -0.270 NA 
HETATM   12  C   UNL     1     -10.613  13.803  67.852  1.00  0.00    -0.252 A  
HETATM   13  C   UNL     1     -10.509  15.874  69.155  1.00  0.00    -0.235 A  
HETATM   14  N   UNL     1     -12.301  10.853  69.161  1.00  0.00    -0.397 NA 
HETATM   15  C   UNL     1     -11.349  13.248  68.917  1.00  0.00    -0.333 A  
BRANCH   5  16
HETATM   16  N   UNL     1      -8.180  17.823  66.222  1.00  0.00    -0.242 N  
HETATM   17  C   UNL     1      -7.749  19.127  66.364  1.00  0.00    -0.276 C  
HETATM   18  H   UNL     1      -7.912  17.287  65.397  1.00  0.00     0.000 HD 
HETATM   19  O   UNL     1      -8.063  19.872  67.286  1.00  0.00    -0.282 OA 
BRANCH  17  20
HETATM   20  C   UNL     1      -6.843  19.568  65.268  1.00  0.00    -0.234 C  
HETATM   21  C   UNL     1      -6.186  20.733  65.399  1.00  0.00    -0.276 C  
BRANCH  21  22
HETATM   22  C   UNL     1      -5.186  21.334  64.455  1.00  0.00    -0.161 C  
BRANCH  22  23
HETATM   23  N   UNL     1      -5.166  20.806  63.084  1.00  0.00    -0.188 NA 
HETATM   24  C   UNL     1      -5.231  19.339  63.079  1.00  0.00    -0.311 C  
HETATM   25  C   UNL     1      -6.332  21.330  62.357  1.00  0.00    -0.246 C  
ENDBRANCH  22  23
ENDBRANCH  21  22
ENDBRANCH  17  20
ENDBRANCH   5  16
BRANCH  12  26
HETATM   26  N   UNL     1     -10.283  13.099  66.644  1.00  0.00    -0.254 NA 
HETATM   27  H   UNL     1     -10.541  13.594  65.790  1.00  0.00     0.000 HD 
BRANCH  26  28
HETATM   28  C   UNL     1      -9.666  11.847  66.420  1.00  0.00    -0.221 A  
HETATM   29 CL   UNL     1      -6.135  10.190  67.336  1.00  0.00    -0.057 Cl 
HETATM   30  C   UNL     1     -10.341  10.773  65.832  1.00  0.00    -0.302 A  
HETATM   31  C   UNL     1      -7.757  10.369  66.755  1.00  0.00    -0.114 A  
HETATM   32  C   UNL     1      -9.745   9.499  65.726  1.00  0.00    -0.357 A  
HETATM   33  C   UNL     1      -8.349  11.636  66.846  1.00  0.00    -0.169 A  
HETATM   34  C   UNL     1      -8.454   9.281  66.210  1.00  0.00    -0.127 A  
BRANCH  34  35
HETATM   35  O   UNL     1      -7.826   8.066  66.261  1.00  0.00    -0.095 OA 
BRANCH  35  36
HETATM   36  C   UNL     1      -8.608   6.877  66.135  1.00  0.00    -0.143 C  
BRANCH  36  37
HETATM   37  C   UNL     1      -9.237   6.554  67.477  1.00  0.00    -0.113 A  
HETATM   38  C   UNL     1      -8.435   6.297  68.590  1.00  0.00    -0.122 A  
HETATM   39  C   UNL     1      -9.042   5.995  69.808  1.00  0.00    -0.145 A  
HETATM   40  C   UNL     1     -10.428   5.959  69.888  1.00  0.00    -0.337 A  
HETATM   41  C   UNL     1     -11.153   6.223  68.740  1.00  0.00    -0.346 A  
HETATM   42  N   UNL     1     -10.593   6.505  67.541  1.00  0.00    -0.239 NA 
ENDBRANCH  36  37
ENDBRANCH  35  36
ENDBRANCH  34  35
ENDBRANCH  26  28
ENDBRANCH  12  26
ENDBRANCH   3   4
ENDBRANCH   2   3
TORSDOF 11
ENDMDL
MODEL      131
REMARK 921   NORMALIZED FREE ENERGY PREDICTED BY IDOCK:    0.11 KCAL/MOL
REMARK 922        TOTAL FREE ENERGY PREDICTED BY IDOCK:   -1.58 KCAL/MOL
REMARK 923 INTER-LIGAND FREE ENERGY PREDICTED BY IDOCK:   -0.86 KCAL/MOL
REMARK 924 INTRA-LIGAND FREE ENERGY PREDICTED BY IDOCK:   -0.72 KCAL/MOL
REMARK 927      BINDING AFFINITY PREDICTED BY RF-SCORE:    0.00 PKD
ROOT
HETATM    1  C   UNL     1     -10.372   2.760  70.053  1.00  0.00     1.584 C  
HETATM    2  C   UNL     1      -9.810   3.692  71.113  1.00  0.00    -0.130 C  
ENDROOT
BRANCH   2   3
HETATM    3  O   UNL     1     -10.279   5.005  70.841  1.00  0.00    -0.221 OA 
BRANCH   3   4
HETATM    4  C   UNL     1      -9.429   6.074  70.902  1.00  0.00    -0.168 A  
HETATM    5  C   UNL     1      -8.804   6.792  69.882  1.00  0.00    -0.141 A  
HETATM    6  C   UNL     1      -5.776  10.509  73.969  1.00  0.00     0.901 C  
HETATM    7  C   UNL     1      -7.889   7.816  70.206  1.00  0.00    -0.091 A  
HETATM    8  C   UNL     1      -7.312   8.710  74.234  1.00  0.00    -0.052 A  
HETATM    9  C   UNL     1      -9.154   6.439  72.223  1.00  0.00    -0.139 A  
HETATM   10  C   UNL     1      -7.617   8.194  71.556  1.00  0.00    -0.090 A  
HETATM   11  N   UNL     1      -8.147   7.714  73.867  1.00  0.00    -0.152 NA 
HETATM   12  C   UNL     1      -6.720   9.252  71.978  1.00  0.00     0.282 A  
HETATM   13  C   UNL     1      -8.288   7.466  72.567  1.00  0.00    -0.109 A  
HETATM   14  N   UNL     1      -5.143  11.284  74.558  1.00  0.00    -0.370 NA 
HETATM   15  C   UNL     1      -6.578   9.494  73.359  1.00  0.00     0.872 A  
BRANCH   5  16
HETATM   16  N   UNL     1      -9.055   6.547  68.519  1.00  0.00    -0.128 N  
HETATM   17  C   UNL     1      -9.270   7.598  67.649  1.00  0.00    -0.135 C  
HETATM   18  H   UNL     1      -9.079   5.589  68.172  1.00  0.00     0.000 HD 
HETATM   19  O   UNL     1      -9.321   8.779  67.976  1.00  0.00    -0.141 OA 
BRANCH  17  20
HETATM   20  C   UNL     1      -9.441   7.164  66.236  1.00  0.00    -0.125 C  
HETATM   21  C   UNL     1      -8.349   7.019  65.465  1.00  0.00    -0.135 C  
BRANCH  21  22
HETATM   22  C   UNL     1      -8.285   6.536  64.045  1.00  0.00     0.043 C  
BRANCH  22  23
HETATM   23  N   UNL     1      -7.092   6.906  63.271  1.00  0.00    -0.059 NA 
HETATM   24  C   UNL     1      -7.160   8.303  62.823  1.00  0.00    -0.091 C  
HETATM   25  C   UNL     1      -5.905   6.745  64.125  1.00  0.00    -0.032 C  
ENDBRANCH  22  23
ENDBRANCH  21  22
ENDBRANCH  17  20
ENDBRANCH   5  16
BRANCH  12  26
HETATM   26  N   UNL     1      -6.024   9.982  70.954  1.00  0.00    -0.127 NA 
HETATM   27  H   UNL     1      -5.014   9.838  70.955  1.00  0.00     0.000 HD 
BRANCH  26  28
HETATM   28  C   UNL     1      -6.480  10.862  69.947  1.00  0.00    -0.144 A  
HETATM   29 CL   UNL     1      -6.693  14.839  69.501  1.00  0.00    -0.148 Cl 
HETATM   30  C   UNL     1      -6.907  10.412  68.694  1.00  0.00    -0.058 A  
HETATM   31  C   UNL     1      -6.779  13.145  69.147  1.00  0.00    -0.089 A  
HETATM   32  C   UNL     1      -7.245  11.314  67.664  1.00  0.00    -0.092 A  
HETATM   33  C   UNL     1      -6.457  12.245  70.171  1.00  0.00     0.163 A  
HETATM   34  C   UNL     1      -7.160  12.691  67.875  1.00  0.00    -0.113 A  
BRANCH  34  35
HETATM   35  O   UNL     1      -7.354  13.649  66.917  1.00  0.00     0.173 OA 
BRANCH  35  36
HETATM   36  C   UNL     1      -8.620  14.305  66.840  1.00  0.00    -0.146 C  
BRANCH  36  37
HETATM   37  C   UNL     1      -9.722  13.270  66.970  1.00  0.00    -0.238 A  
HETATM   38  C   UNL     1     -10.500  13.206  68.127  1.00  0.00    -0.255 A  
HETATM   39  C   UNL     1     -11.499  12.240  68.220  1.00  0.00    -0.367 A  
HETATM   40  C   UNL     1     -11.701  11.364  67.160  1.00  0.00    -0.059 A  
HETATM   41  C   UNL     1     -10.888  11.490  66.049  1.00  0.00    -0.276 A  
HETATM   42  N   UNL     1      -9.901  12.408  65.935  1.00  0.00    -0.256 NA 
ENDBRANCH  36  37
ENDBRANCH  35  36
ENDBRANCH  34  35
ENDBRANCH  26  28
ENDBRANCH  12  26
ENDBRANCH   3   4
ENDBRANCH   2   3
TORSDOF 11
ENDMDL
MODEL      132
REMARK 921   NORMALIZED FREE ENERGY PREDICTED BY IDOCK:    0.17 KCAL/MOL
REMARK 922        TOTAL FREE ENERGY PREDICTED BY IDOCK:   -1.48 KCAL/MOL
REMARK 923 INTER-LIGAND FREE ENERGY PREDICTED BY IDOCK:   -1.32 KCAL/MOL
REMARK 924 INTRA-LIGAND FREE ENERGY PREDICTED BY IDOCK:   -0.15 KCAL/MOL
REMARK 927      BINDING AFFINITY PREDICTED BY RF-SCORE:    0.00 PKD
ROOT
HETATM    1  C   UNL     1     -14.411  16.137  70.123  1.00  0.00     3.916 C  
HETATM    2  C   UNL     1     -13.577  15.339  71.111  1.00  0.00    -0.469 C  
ENDROOT
BRANCH   2   3
HETATM    3  O   UNL     1     -12.342  16.015  71.296  1.00  0.00    -0.437 OA 
BRANCH   3   4
HETATM    4  C   UNL     1     -11.375  15.973  70.332  1.00  0.00    -0.391 A  
HETATM    5  C   UNL     1     -10.753  14.884  69.720  1.00  0.00    -0.204 A  
HETATM    6  C   UNL     1      -7.017  18.596  66.262  1.00  0.00    -0.236 C  
HETATM    7  C   UNL     1      -9.705  15.102  68.799  1.00  0.00    -0.221 A  
HETATM    8  C   UNL     1      -8.723  19.041  67.862  1.00  0.00    -0.301 A  
HETATM    9  C   UNL     1     -10.959  17.256  69.962  1.00  0.00     0.686 A  
HETATM   10  C   UNL     1      -9.290  16.413  68.416  1.00  0.00    -0.217 A  
HETATM   11  N   UNL     1      -9.691  18.773  68.766  1.00  0.00    -0.385 NA 
HETATM   12  C   UNL     1      -8.249  16.728  67.457  1.00  0.00    -0.173 A  
HETATM   13  C   UNL     1      -9.958  17.497  69.033  1.00  0.00    -0.260 A  
HETATM   14  N   UNL     1      -6.258  19.108  65.549  1.00  0.00    -0.220 NA 
HETATM   15  C   UNL     1      -7.974  18.085  67.195  1.00  0.00    -0.224 A  
BRANCH   5  16
HETATM   16  N   UNL     1     -11.135  13.553  69.973  1.00  0.00    -0.434 N  
HETATM   17  C   UNL     1     -11.387  12.689  68.927  1.00  0.00    -0.297 C  
HETATM   18  H   UNL     1     -11.226  13.227  70.934  1.00  0.00     0.000 HD 
HETATM   19  O   UNL     1     -11.363  12.999  67.741  1.00  0.00    -0.260 OA 
BRANCH  17  20
HETATM   20  C   UNL     1     -11.700  11.304  69.372  1.00  0.00    -0.409 C  
HETATM   21  C   UNL     1     -10.796  10.333  69.158  1.00  0.00    -0.270 C  
BRANCH  21  22
HETATM   22  C   UNL     1     -10.877   8.893  69.577  1.00  0.00    -0.153 C  
BRANCH  22  23
HETATM   23  N   UNL     1     -10.285   7.903  68.667  1.00  0.00    -0.202 NA 
HETATM   24  C   UNL     1     -11.191   6.765  68.458  1.00  0.00    -0.072 C  
HETATM   25  C   UNL     1     -10.031   8.544  67.368  1.00  0.00    -0.214 C  
ENDBRANCH  22  23
ENDBRANCH  21  22
ENDBRANCH  17  20
ENDBRANCH   5  16
BRANCH  12  26
HETATM   26  N   UNL     1      -7.556  15.629  66.843  1.00  0.00    -0.204 NA 
HETATM   27  H   UNL     1      -7.031  15.886  66.007  1.00  0.00     0.000 HD 
BRANCH  26  28
HETATM   28  C   UNL     1      -7.468  14.261  67.182  1.00  0.00     0.093 A  
HETATM   29 CL   UNL     1      -6.265  12.176  70.386  1.00  0.00    -0.023 Cl 
HETATM   30  C   UNL     1      -7.963  13.249  66.354  1.00  0.00     1.022 A  
HETATM   31  C   UNL     1      -6.937  12.548  68.833  1.00  0.00    -0.088 A  
HETATM   32  C   UNL     1      -7.971  11.900  66.765  1.00  0.00    -0.087 A  
HETATM   33  C   UNL     1      -6.918  13.885  68.414  1.00  0.00    -0.102 A  
HETATM   34  C   UNL     1      -7.479  11.541  68.021  1.00  0.00    -0.098 A  
BRANCH  34  35
HETATM   35  O   UNL     1      -7.542  10.286  68.563  1.00  0.00    -0.084 OA 
BRANCH  35  36
HETATM   36  C   UNL     1      -6.361   9.483  68.589  1.00  0.00    -0.048 C  
BRANCH  36  37
HETATM   37  C   UNL     1      -6.211   8.867  69.968  1.00  0.00    -0.037 A  
HETATM   38  C   UNL     1      -5.271   9.370  70.868  1.00  0.00    -0.032 A  
HETATM   39  C   UNL     1      -5.150   8.779  72.124  1.00  0.00    -0.042 A  
HETATM   40  C   UNL     1      -5.969   7.705  72.453  1.00  0.00    -0.040 A  
HETATM   41  C   UNL     1      -6.874   7.264  71.505  1.00  0.00    -0.055 A  
HETATM   42  N   UNL     1      -7.005   7.808  70.273  1.00  0.00    -0.049 NA 
ENDBRANCH  36  37
ENDBRANCH  35  36
ENDBRANCH  34  35
ENDBRANCH  26  28
ENDBRANCH  12  26
ENDBRANCH   3   4
ENDBRANCH   2   3
TORSDOF 11
ENDMDL
MODEL      133
REMARK 921   NORMALIZED FREE ENERGY PREDICTED BY IDOCK:    0.30 KCAL/MOL
REMARK 922        TOTAL FREE ENERGY PREDICTED BY IDOCK:   -1.27 KCAL/MOL
REMARK 923 INTER-LIGAND FREE ENERGY PREDICTED BY IDOCK:   -2.69 KCAL/MOL
REMARK 924 INTRA-LIGAND FREE ENERGY PREDICTED BY IDOCK:    1.42 KCAL/MOL
REMARK 927      BINDING AFFINITY PREDICTED BY RF-SCORE:    0.00 PKD
ROOT
HETATM    1  C   UNL     1     -13.284  13.324  65.707  1.00  0.00     0.657 C  
HETATM    2  C   UNL     1     -12.988  14.564  64.880  1.00  0.00     0.218 C  
ENDROOT
BRANCH   2   3
HETATM    3  O   UNL     1     -11.922  14.260  63.992  1.00  0.00    -0.403 OA 
BRANCH   3   4
HETATM    4  C   UNL     1     -10.835  13.555  64.427  1.00  0.00    -0.389 A  
HETATM    5  C   UNL     1      -9.706  13.976  65.131  1.00  0.00     0.051 A  
HETATM    6  C   UNL     1      -7.136   8.225  65.011  1.00  0.00    -0.075 C  
HETATM    7  C   UNL     1      -8.662  13.062  65.392  1.00  0.00     1.598 A  
HETATM    8  C   UNL     1      -9.182   9.112  64.177  1.00  0.00     0.256 A  
HETATM    9  C   UNL     1     -10.904  12.212  64.046  1.00  0.00    -0.436 A  
HETATM   10  C   UNL     1      -8.741  11.689  65.011  1.00  0.00     0.455 A  
HETATM   11  N   UNL     1     -10.131  10.038  63.919  1.00  0.00     0.231 NA 
HETATM   12  C   UNL     1      -7.734  10.677  65.267  1.00  0.00    -0.021 A  
HETATM   13  C   UNL     1      -9.910  11.286  64.323  1.00  0.00    -0.273 A  
HETATM   14  N   UNL     1      -6.513   7.250  65.094  1.00  0.00    -0.040 NA 
HETATM   15  C   UNL     1      -7.983   9.363  64.824  1.00  0.00    -0.122 A  
BRANCH   5  16
HETATM   16  N   UNL     1      -9.561  15.290  65.614  1.00  0.00    -0.368 N  
HETATM   17  C   UNL     1     -10.097  15.649  66.835  1.00  0.00    -0.263 C  
HETATM   18  H   UNL     1      -9.056  15.981  65.059  1.00  0.00     0.000 HD 
HETATM   19  O   UNL     1     -10.769  14.912  67.548  1.00  0.00    -0.266 OA 
BRANCH  17  20
HETATM   20  C   UNL     1      -9.782  17.050  67.225  1.00  0.00    -0.253 C  
HETATM   21  C   UNL     1     -10.350  17.558  68.332  1.00  0.00    -0.378 C  
BRANCH  21  22
HETATM   22  C   UNL     1     -10.128  18.913  68.939  1.00  0.00    -0.311 C  
BRANCH  22  23
HETATM   23  N   UNL     1      -9.396  19.894  68.125  1.00  0.00    -0.333 NA 
HETATM   24  C   UNL     1      -8.264  19.268  67.430  1.00  0.00    -0.282 C  
HETATM   25  C   UNL     1     -10.312  20.453  67.119  1.00  0.00    -0.181 C  
ENDBRANCH  22  23
ENDBRANCH  21  22
ENDBRANCH  17  20
ENDBRANCH   5  16
BRANCH  12  26
HETATM   26  N   UNL     1      -6.538  11.087  65.951  1.00  0.00    -0.343 NA 
HETATM   27  H   UNL     1      -5.707  11.101  65.360  1.00  0.00     0.000 HD 
BRANCH  26  28
HETATM   28  C   UNL     1      -6.301  11.474  67.289  1.00  0.00    -0.107 A  
HETATM   29 CL   UNL     1      -7.229  10.008  70.901  1.00  0.00     0.145 Cl 
HETATM   30  C   UNL     1      -5.482  12.556  67.623  1.00  0.00    -0.123 A  
HETATM   31  C   UNL     1      -6.529  11.006  69.670  1.00  0.00    -0.123 A  
HETATM   32  C   UNL     1      -5.165  12.852  68.965  1.00  0.00    -0.068 A  
HETATM   33  C   UNL     1      -6.852  10.724  68.336  1.00  0.00    -0.068 A  
HETATM   34  C   UNL     1      -5.668  12.063  70.000  1.00  0.00    -0.140 A  
BRANCH  34  35
HETATM   35  O   UNL     1      -5.335  12.189  71.322  1.00  0.00    -0.284 OA 
BRANCH  35  36
HETATM   36  C   UNL     1      -5.227  13.497  71.885  1.00  0.00    -0.166 C  
BRANCH  36  37
HETATM   37  C   UNL     1      -5.871  14.497  70.943  1.00  0.00    -0.170 A  
HETATM   38  C   UNL     1      -5.169  15.629  70.527  1.00  0.00    -0.158 A  
HETATM   39  C   UNL     1      -5.790  16.533  69.667  1.00  0.00    -0.191 A  
HETATM   40  C   UNL     1      -7.090  16.288  69.243  1.00  0.00    -0.222 A  
HETATM   41  C   UNL     1      -7.719  15.145  69.702  1.00  0.00    -0.148 A  
HETATM   42  N   UNL     1      -7.148  14.256  70.547  1.00  0.00     0.408 NA 
ENDBRANCH  36  37
ENDBRANCH  35  36
ENDBRANCH  34  35
ENDBRANCH  26  28
ENDBRANCH  12  26
ENDBRANCH   3   4
ENDBRANCH   2   3
TORSDOF 11
ENDMDL
MODEL      134
REMARK 921   NORMALIZED FREE ENERGY PREDICTED BY IDOCK:    0.53 KCAL/MOL
REMARK 922        TOTAL FREE ENERGY PREDICTED BY IDOCK:   -0.89 KCAL/MOL
REMARK 923 INTER-LIGAND FREE ENERGY PREDICTED BY IDOCK:   -3.48 KCAL/MOL
REMARK 924 INTRA-LIGAND FREE ENERGY PREDICTED BY IDOCK:    2.59 KCAL/MOL
REMARK 927      BINDING AFFINITY PREDICTED BY RF-SCORE:    0.00 PKD
ROOT
HETATM    1  C   UNL     1      -6.054   6.891  73.747  1.00  0.00    -0.063 C  
HETATM    2  C   UNL     1      -5.803   6.229  72.403  1.00  0.00    -0.038 C  
ENDROOT
BRANCH   2   3
HETATM    3  O   UNL     1      -5.366   7.227  71.493  1.00  0.00    -0.031 OA 
BRANCH   3   4
HETATM    4  C   UNL     1      -6.270   8.013  70.835  1.00  0.00    -0.033 A  
HETATM    5  C   UNL     1      -7.489   7.687  70.239  1.00  0.00    -0.083 A  
HETATM    6  C   UNL     1      -8.423  13.590  68.247  1.00  0.00    -0.168 C  
HETATM    7  C   UNL     1      -8.212   8.674  69.536  1.00  0.00    -0.115 A  
HETATM    8  C   UNL     1      -6.682  12.549  69.493  1.00  0.00     0.019 A  
HETATM    9  C   UNL     1      -5.834   9.339  70.748  1.00  0.00    -0.050 A  
HETATM   10  C   UNL     1      -7.769  10.029  69.457  1.00  0.00    -0.146 A  
HETATM   11  N   UNL     1      -6.013  11.555  70.119  1.00  0.00    -0.147 NA 
HETATM   12  C   UNL     1      -8.462  11.111  68.785  1.00  0.00    -0.134 A  
HETATM   13  C   UNL     1      -6.543  10.335  70.094  1.00  0.00    -0.138 A  
HETATM   14  N   UNL     1      -8.768  14.607  67.806  1.00  0.00    -0.164 NA 
HETATM   15  C   UNL     1      -7.880  12.394  68.815  1.00  0.00     0.020 A  
BRANCH   5  16
HETATM   16  N   UNL     1      -8.050   6.398  70.319  1.00  0.00    -0.118 N  
HETATM   17  C   UNL     1      -7.912   5.511  69.270  1.00  0.00    -0.095 C  
HETATM   18  H   UNL     1      -8.561   6.119  71.155  1.00  0.00     0.000 HD 
HETATM   19  O   UNL     1      -7.369   5.769  68.201  1.00  0.00    -0.074 OA 
BRANCH  17  20
HETATM   20  C   UNL     1      -8.496   4.172  69.553  1.00  0.00    -0.093 C  
HETATM   21  C   UNL     1      -8.466   3.705  70.813  1.00  0.00    -0.101 C  
BRANCH  21  22
HETATM   22  C   UNL     1      -9.046   2.420  71.331  1.00  0.00    -0.096 C  
BRANCH  22  23
HETATM   23  N   UNL     1      -8.997   2.207  72.784  1.00  0.00    -0.066 NA 
HETATM   24  C   UNL     1      -7.937   3.013  73.404  1.00  0.00    -0.065 C  
HETATM   25  C   UNL     1     -10.288   2.603  73.366  1.00  0.00    -0.132 C  
ENDBRANCH  22  23
ENDBRANCH  21  22
ENDBRANCH  17  20
ENDBRANCH   5  16
BRANCH  12  26
HETATM   26  N   UNL     1      -9.698  10.800  68.122  1.00  0.00    -0.155 NA 
HETATM   27  H   UNL     1     -10.271  10.112  68.612  1.00  0.00     0.000 HD 
BRANCH  26  28
HETATM   28  C   UNL     1     -10.268  11.270  66.918  1.00  0.00    -0.219 A  
HETATM   29 CL   UNL     1     -13.277  13.729  65.940  1.00  0.00    -0.043 Cl 
HETATM   30  C   UNL     1      -9.715  10.985  65.665  1.00  0.00    -0.276 A  
HETATM   31  C   UNL     1     -11.900  12.687  65.793  1.00  0.00    -0.444 A  
HETATM   32  C   UNL     1     -10.230  11.561  64.486  1.00  0.00    -0.338 A  
HETATM   33  C   UNL     1     -11.394  12.101  66.960  1.00  0.00    -0.398 A  
HETATM   34  C   UNL     1     -11.315  12.438  64.542  1.00  0.00    -0.328 A  
BRANCH  34  35
HETATM   35  O   UNL     1     -11.819  13.138  63.480  1.00  0.00    -0.499 OA 
BRANCH  35  36
HETATM   36  C   UNL     1     -12.504  14.367  63.725  1.00  0.00     0.197 C  
BRANCH  36  37
HETATM   37  C   UNL     1     -11.535  15.360  64.339  1.00  0.00    -0.255 A  
HETATM   38  C   UNL     1     -10.231  14.975  64.651  1.00  0.00     0.100 A  
HETATM   39  C   UNL     1      -9.366  15.906  65.221  1.00  0.00     0.473 A  
HETATM   40  C   UNL     1      -9.820  17.197  65.465  1.00  0.00     0.169 A  
HETATM   41  C   UNL     1     -11.127  17.501  65.130  1.00  0.00     0.468 A  
HETATM   42  N   UNL     1     -11.994  16.615  64.588  1.00  0.00     0.180 NA 
ENDBRANCH  36  37
ENDBRANCH  35  36
ENDBRANCH  34  35
ENDBRANCH  26  28
ENDBRANCH  12  26
ENDBRANCH   3   4
ENDBRANCH   2   3
TORSDOF 11
ENDMDL
MODEL      135
REMARK 921   NORMALIZED FREE ENERGY PREDICTED BY IDOCK:    0.57 KCAL/MOL
REMARK 922        TOTAL FREE ENERGY PREDICTED BY IDOCK:   -0.82 KCAL/MOL
REMARK 923 INTER-LIGAND FREE ENERGY PREDICTED BY IDOCK:   -1.88 KCAL/MOL
REMARK 924 INTRA-LIGAND FREE ENERGY PREDICTED BY IDOCK:    1.07 KCAL/MOL
REMARK 927      BINDING AFFINITY PREDICTED BY RF-SCORE:    0.00 PKD
ROOT
HETATM    1  C   UNL     1     -13.275  13.101  65.772  1.00  0.00     0.844 C  
HETATM    2  C   UNL     1     -13.239  14.458  65.091  1.00  0.00     0.355 C  
ENDROOT
BRANCH   2   3
HETATM    3  O   UNL     1     -12.150  14.468  64.179  1.00  0.00    -0.454 OA 
BRANCH   3   4
HETATM    4  C   UNL     1     -11.056  13.677  64.395  1.00  0.00    -0.364 A  
HETATM    5  C   UNL     1     -10.046  13.770  65.353  1.00  0.00    -0.286 A  
HETATM    6  C   UNL     1      -6.993   8.770  63.037  1.00  0.00    -0.090 C  
HETATM    7  C   UNL     1      -8.960  12.869  65.317  1.00  0.00     1.070 A  
HETATM    8  C   UNL     1      -9.010   9.874  62.422  1.00  0.00    -0.274 A  
HETATM    9  C   UNL     1     -10.970  12.647  63.453  1.00  0.00    -0.305 A  
HETATM   10  C   UNL     1      -8.881  11.812  64.360  1.00  0.00     0.654 A  
HETATM   11  N   UNL     1     -10.004  10.787  62.480  1.00  0.00    -0.045 NA 
HETATM   12  C   UNL     1      -7.822  10.825  64.271  1.00  0.00     0.251 A  
HETATM   13  C   UNL     1      -9.934  11.727  63.419  1.00  0.00    -0.423 A  
HETATM   14  N   UNL     1      -6.299   7.881  62.759  1.00  0.00    -0.076 NA 
HETATM   15  C   UNL     1      -7.911   9.844  63.264  1.00  0.00    -0.146 A  
BRANCH   5  16
HETATM   16  N   UNL     1     -10.065  14.730  66.382  1.00  0.00    -0.269 N  
HETATM   17  C   UNL     1     -10.760  14.488  67.551  1.00  0.00    -0.276 C  
HETATM   18  H   UNL     1      -9.562  15.609  66.264  1.00  0.00     0.000 HD 
HETATM   19  O   UNL     1     -11.442  13.493  67.766  1.00  0.00    -0.280 OA 
BRANCH  17  20
HETATM   20  C   UNL     1     -10.607  15.572  68.559  1.00  0.00    -0.246 C  
HETATM   21  C   UNL     1     -11.357  15.531  69.674  1.00  0.00    -0.319 C  
BRANCH  21  22
HETATM   22  C   UNL     1     -11.322  16.476  70.840  1.00  0.00    -0.041 C  
BRANCH  22  23
HETATM   23  N   UNL     1     -12.461  16.429  71.768  1.00  0.00    -0.059 NA 
HETATM   24  C   UNL     1     -13.532  15.567  71.251  1.00  0.00    -0.480 C  
HETATM   25  C   UNL     1     -12.001  15.884  73.054  1.00  0.00    -0.491 C  
ENDBRANCH  22  23
ENDBRANCH  21  22
ENDBRANCH  17  20
ENDBRANCH   5  16
BRANCH  12  26
HETATM   26  N   UNL     1      -6.743  10.920  65.215  1.00  0.00    -0.360 NA 
HETATM   27  H   UNL     1      -5.823  10.735  64.813  1.00  0.00     0.000 HD 
BRANCH  26  28
HETATM   28  C   UNL     1      -6.719  11.223  66.595  1.00  0.00    -0.132 A  
HETATM   29 CL   UNL     1      -9.183  10.632  69.699  1.00  0.00    -0.000 Cl 
HETATM   30  C   UNL     1      -5.600  11.780  67.222  1.00  0.00    -0.115 A  
HETATM   31  C   UNL     1      -7.781  11.077  68.783  1.00  0.00    -0.135 A  
HETATM   32  C   UNL     1      -5.556  11.964  68.619  1.00  0.00    -0.049 A  
HETATM   33  C   UNL     1      -7.825  10.908  67.393  1.00  0.00    -0.113 A  
HETATM   34  C   UNL     1      -6.639  11.591  69.416  1.00  0.00    -0.117 A  
BRANCH  34  35
HETATM   35  O   UNL     1      -6.658  11.619  70.784  1.00  0.00     0.077 OA 
BRANCH  35  36
HETATM   36  C   UNL     1      -5.968  12.668  71.464  1.00  0.00     0.989 C  
BRANCH  36  37
HETATM   37  C   UNL     1      -6.224  13.978  70.742  1.00  0.00    -0.074 A  
HETATM   38  C   UNL     1      -7.475  14.245  70.183  1.00  0.00     0.586 A  
HETATM   39  C   UNL     1      -7.678  15.453  69.520  1.00  0.00    -0.210 A  
HETATM   40  C   UNL     1      -6.633  16.366  69.431  1.00  0.00    -0.210 A  
HETATM   41  C   UNL     1      -5.423  16.027  70.009  1.00  0.00    -0.153 A  
HETATM   42  N   UNL     1      -5.192  14.856  70.647  1.00  0.00    -0.122 NA 
ENDBRANCH  36  37
ENDBRANCH  35  36
ENDBRANCH  34  35
ENDBRANCH  26  28
ENDBRANCH  12  26
ENDBRANCH   3   4
ENDBRANCH   2   3
TORSDOF 11
ENDMDL
MODEL      136
REMARK 921   NORMALIZED FREE ENERGY PREDICTED BY IDOCK:    1.18 KCAL/MOL
REMARK 922        TOTAL FREE ENERGY PREDICTED BY IDOCK:    0.19 KCAL/MOL
REMARK 923 INTER-LIGAND FREE ENERGY PREDICTED BY IDOCK:   -3.56 KCAL/MOL
REMARK 924 INTRA-LIGAND FREE ENERGY PREDICTED BY IDOCK:    3.74 KCAL/MOL
REMARK 927      BINDING AFFINITY PREDICTED BY RF-SCORE:    0.00 PKD
ROOT
HETATM    1  C   UNL     1      -8.638   5.992  73.924  1.00  0.00    -0.120 C  
HETATM    2  C   UNL     1      -8.695   7.487  74.191  1.00  0.00    -0.235 C  
ENDROOT
BRANCH   2   3
HETATM    3  O   UNL     1      -8.417   8.164  72.974  1.00  0.00    -0.177 OA 
BRANCH   3   4
HETATM    4  C   UNL     1      -8.695   7.576  71.772  1.00  0.00    -0.115 A  
HETATM    5  C   UNL     1      -9.113   8.138  70.565  1.00  0.00    -0.150 A  
HETATM    6  C   UNL     1      -9.475   2.516  67.745  1.00  0.00    -0.107 C  
HETATM    7  C   UNL     1      -9.422   7.300  69.472  1.00  0.00    -0.155 A  
HETATM    8  C   UNL     1      -8.849   3.200  69.938  1.00  0.00    -0.090 A  
HETATM    9  C   UNL     1      -8.552   6.187  71.832  1.00  0.00    -0.132 A  
HETATM   10  C   UNL     1      -9.265   5.882  69.533  1.00  0.00    -0.149 A  
HETATM   11  N   UNL     1      -8.606   4.046  70.963  1.00  0.00    -0.075 NA 
HETATM   12  C   UNL     1      -9.528   4.952  68.452  1.00  0.00    -0.139 A  
HETATM   13  C   UNL     1      -8.813   5.345  70.762  1.00  0.00    -0.133 A  
HETATM   14  N   UNL     1      -9.597   1.585  67.063  1.00  0.00     0.175 NA 
HETATM   15  C   UNL     1      -9.310   3.580  68.688  1.00  0.00    -0.230 A  
BRANCH   5  16
HETATM   16  N   UNL     1      -9.232   9.528  70.377  1.00  0.00    -0.257 N  
HETATM   17  C   UNL     1      -8.140  10.275  69.981  1.00  0.00     0.040 C  
HETATM   18  H   UNL     1     -10.129   9.986  70.535  1.00  0.00     0.000 HD 
HETATM   19  O   UNL     1      -7.008   9.831  69.823  1.00  0.00    -0.065 OA 
BRANCH  17  20
HETATM   20  C   UNL     1      -8.462  11.710  69.754  1.00  0.00     1.536 C  
HETATM   21  C   UNL     1      -7.651  12.441  68.971  1.00  0.00     0.121 C  
BRANCH  21  22
HETATM   22  C   UNL     1      -7.818  13.876  68.561  1.00  0.00    -0.139 C  
BRANCH  22  23
HETATM   23  N   UNL     1      -9.173  14.306  68.186  1.00  0.00    -0.195 NA 
HETATM   24  C   UNL     1      -9.924  14.775  69.358  1.00  0.00    -0.085 C  
HETATM   25  C   UNL     1      -9.069  15.412  67.222  1.00  0.00    -0.206 C  
ENDBRANCH  22  23
ENDBRANCH  21  22
ENDBRANCH  17  20
ENDBRANCH   5  16
BRANCH  12  26
HETATM   26  N   UNL     1     -10.004   5.493  67.209  1.00  0.00    -0.149 NA 
HETATM   27  H   UNL     1     -10.529   4.828  66.641  1.00  0.00     0.000 HD 
BRANCH  26  28
HETATM   28  C   UNL     1      -9.879   6.775  66.628  1.00  0.00    -0.152 A  
HETATM   29 CL   UNL     1     -10.859  10.511  67.694  1.00  0.00    -0.327 Cl 
HETATM   30  C   UNL     1      -9.186   6.993  65.433  1.00  0.00     0.402 A  
HETATM   31  C   UNL     1     -10.191   9.186  66.801  1.00  0.00    -0.261 A  
HETATM   32  C   UNL     1      -8.972   8.294  64.933  1.00  0.00     0.198 A  
HETATM   33  C   UNL     1     -10.412   7.890  67.286  1.00  0.00    -0.390 A  
HETATM   34  C   UNL     1      -9.453   9.405  65.627  1.00  0.00    -0.262 A  
BRANCH  34  35
HETATM   35  O   UNL     1      -9.207  10.710  65.295  1.00  0.00    -0.178 OA 
BRANCH  35  36
HETATM   36  C   UNL     1      -9.818  11.253  64.124  1.00  0.00    -0.279 C  
BRANCH  36  37
HETATM   37  C   UNL     1     -11.037  12.060  64.531  1.00  0.00    -0.331 A  
HETATM   38  C   UNL     1     -11.972  12.458  63.575  1.00  0.00    -0.627 A  
HETATM   39  C   UNL     1     -13.077  13.205  63.977  1.00  0.00     0.506 A  
HETATM   40  C   UNL     1     -13.226  13.534  65.318  1.00  0.00     0.080 A  
HETATM   41  C   UNL     1     -12.255  13.104  66.205  1.00  0.00    -0.385 A  
HETATM   42  N   UNL     1     -11.165  12.390  65.843  1.00  0.00    -0.320 NA 
ENDBRANCH  36  37
ENDBRANCH  35  36
ENDBRANCH  34  35
ENDBRANCH  26  28
ENDBRANCH  12  26
ENDBRANCH   3   4
ENDBRANCH   2   3
TORSDOF 11
ENDMDL
MODEL      137
REMARK 921   NORMALIZED FREE ENERGY PREDICTED BY IDOCK:    1.26 KCAL/MOL
REMARK 922        TOTAL FREE ENERGY PREDICTED BY IDOCK:    0.31 KCAL/MOL
REMARK 923 INTER-LIGAND FREE ENERGY PREDICTED BY IDOCK:   -3.42 KCAL/MOL
REMARK 924 INTRA-LIGAND FREE ENERGY PREDICTED BY IDOCK:    3.73 KCAL/MOL
REMARK 927      BINDING AFFINITY PREDICTED BY RF-SCORE:    0.00 PKD
ROOT
HETATM    1  C   UNL     1     -10.533  10.367  62.794  1.00  0.00     0.897 C  
HETATM    2  C   UNL     1      -9.627   9.148  62.832  1.00  0.00     1.308 C  
ENDROOT
BRANCH   2   3
HETATM    3  O   UNL     1      -8.847   9.212  64.017  1.00  0.00    -0.181 OA 
BRANCH   3   4
HETATM    4  C   UNL     1      -8.788  10.365  64.749  1.00  0.00    -0.193 A  
HETATM    5  C   UNL     1      -8.093  10.658  65.923  1.00  0.00    -0.159 A  
HETATM    6  C   UNL     1     -10.434  16.500  66.192  1.00  0.00    -0.294 C  
HETATM    7  C   UNL     1      -8.264  11.914  66.544  1.00  0.00    -0.026 A  
HETATM    8  C   UNL     1     -10.713  14.704  64.654  1.00  0.00    -0.286 A  
HETATM    9  C   UNL     1      -9.601  11.364  64.204  1.00  0.00    -0.217 A  
HETATM   10  C   UNL     1      -9.086  12.936  65.980  1.00  0.00     0.150 A  
HETATM   11  N   UNL     1     -10.543  13.473  64.125  1.00  0.00    -0.283 NA 
HETATM   12  C   UNL     1      -9.292  14.261  66.531  1.00  0.00    -0.271 A  
HETATM   13  C   UNL     1      -9.757  12.619  64.774  1.00  0.00     0.077 A  
HETATM   14  N   UNL     1     -10.754  17.595  66.407  1.00  0.00    -0.176 NA 
HETATM   15  C   UNL     1     -10.136  15.148  65.833  1.00  0.00    -0.349 A  
BRANCH   5  16
HETATM   16  N   UNL     1      -7.202   9.748  66.523  1.00  0.00    -0.093 N  
HETATM   17  C   UNL     1      -5.926  10.144  66.868  1.00  0.00    -0.055 C  
HETATM   18  H   UNL     1      -7.502   8.790  66.703  1.00  0.00     0.000 HD 
HETATM   19  O   UNL     1      -5.451  11.252  66.640  1.00  0.00    -0.095 OA 
BRANCH  17  20
HETATM   20  C   UNL     1      -5.148   9.082  67.561  1.00  0.00    -0.034 C  
HETATM   21  C   UNL     1      -5.742   7.903  67.812  1.00  0.00    -0.037 C  
BRANCH  21  22
HETATM   22  C   UNL     1      -5.133   6.682  68.438  1.00  0.00    -0.008 C  
BRANCH  22  23
HETATM   23  N   UNL     1      -5.818   6.125  69.614  1.00  0.00    -0.017 NA 
HETATM   24  C   UNL     1      -5.711   7.028  70.768  1.00  0.00    -0.027 C  
HETATM   25  C   UNL     1      -7.241   5.944  69.291  1.00  0.00    -0.074 C  
ENDBRANCH  22  23
ENDBRANCH  21  22
ENDBRANCH  17  20
ENDBRANCH   5  16
BRANCH  12  26
HETATM   26  N   UNL     1      -8.627  14.579  67.764  1.00  0.00    -0.166 NA 
HETATM   27  H   UNL     1      -8.871  13.963  68.539  1.00  0.00     0.000 HD 
BRANCH  26  28
HETATM   28  C   UNL     1      -7.697  15.589  68.101  1.00  0.00    -0.123 A  
HETATM   29 CL   UNL     1      -5.133  17.912  66.080  1.00  0.00    -0.209 Cl 
HETATM   30  C   UNL     1      -7.575  16.093  69.400  1.00  0.00    -0.161 A  
HETATM   31  C   UNL     1      -6.063  17.248  67.382  1.00  0.00    -0.141 A  
HETATM   32  C   UNL     1      -6.726  17.181  69.689  1.00  0.00    -0.044 A  
HETATM   33  C   UNL     1      -6.898  16.158  67.102  1.00  0.00    -0.240 A  
HETATM   34  C   UNL     1      -5.979  17.784  68.676  1.00  0.00    -0.189 A  
BRANCH  34  35
HETATM   35  O   UNL     1      -5.215  18.910  68.823  1.00  0.00    -0.189 OA 
BRANCH  35  36
HETATM   36  C   UNL     1      -5.617  20.110  68.161  1.00  0.00    -0.211 C  
BRANCH  36  37
HETATM   37  C   UNL     1      -7.133  20.162  68.109  1.00  0.00    -0.275 A  
HETATM   38  C   UNL     1      -7.890  19.840  69.236  1.00  0.00    -0.059 A  
HETATM   39  C   UNL     1      -9.280  19.891  69.156  1.00  0.00     0.004 A  
HETATM   40  C   UNL     1      -9.881  20.261  67.960  1.00  0.00    -0.447 A  
HETATM   41  C   UNL     1      -9.062  20.564  66.887  1.00  0.00    -0.235 A  
HETATM   42  N   UNL     1      -7.711  20.511  66.930  1.00  0.00    -0.298 NA 
ENDBRANCH  36  37
ENDBRANCH  35  36
ENDBRANCH  34  35
ENDBRANCH  26  28
ENDBRANCH  12  26
ENDBRANCH   3   4
ENDBRANCH   2   3
TORSDOF 11
ENDMDL
MODEL      138
REMARK 921   NORMALIZED FREE ENERGY PREDICTED BY IDOCK:    1.38 KCAL/MOL
REMARK 922        TOTAL FREE ENERGY PREDICTED BY IDOCK:    0.52 KCAL/MOL
REMARK 923 INTER-LIGAND FREE ENERGY PREDICTED BY IDOCK:   -0.11 KCAL/MOL
REMARK 924 INTRA-LIGAND FREE ENERGY PREDICTED BY IDOCK:    0.63 KCAL/MOL
REMARK 927      BINDING AFFINITY PREDICTED BY RF-SCORE:    0.00 PKD
ROOT
HETATM    1  C   UNL     1     -10.374   2.761  70.054  1.00  0.00     1.584 C  
HETATM    2  C   UNL     1      -9.809   3.693  71.112  1.00  0.00    -0.130 C  
ENDROOT
BRANCH   2   3
HETATM    3  O   UNL     1     -10.289   5.003  70.850  1.00  0.00    -0.230 OA 
BRANCH   3   4
HETATM    4  C   UNL     1      -9.446   6.078  70.909  1.00  0.00    -0.168 A  
HETATM    5  C   UNL     1      -8.840   6.809  69.887  1.00  0.00    -0.141 A  
HETATM    6  C   UNL     1      -5.781  10.511  73.964  1.00  0.00     0.901 C  
HETATM    7  C   UNL     1      -7.927   7.837  70.207  1.00  0.00    -0.100 A  
HETATM    8  C   UNL     1      -7.301   8.700  74.235  1.00  0.00    -0.052 A  
HETATM    9  C   UNL     1      -9.154   6.433  72.229  1.00  0.00    -0.139 A  
HETATM   10  C   UNL     1      -7.640   8.205  71.557  1.00  0.00    -0.090 A  
HETATM   11  N   UNL     1      -8.134   7.701  73.870  1.00  0.00    -0.152 NA 
HETATM   12  C   UNL     1      -6.744   9.266  71.975  1.00  0.00     0.282 A  
HETATM   13  C   UNL     1      -8.291   7.463  72.570  1.00  0.00    -0.109 A  
HETATM   14  N   UNL     1      -5.145  11.285  74.551  1.00  0.00    -0.370 NA 
HETATM   15  C   UNL     1      -6.585   9.496  73.356  1.00  0.00     0.872 A  
BRANCH   5  16
HETATM   16  N   UNL     1      -9.109   6.575  68.525  1.00  0.00    -0.128 N  
HETATM   17  C   UNL     1     -10.410   6.440  68.083  1.00  0.00    -0.192 C  
HETATM   18  H   UNL     1      -8.338   6.504  67.861  1.00  0.00     0.000 HD 
HETATM   19  O   UNL     1     -11.400   6.449  68.807  1.00  0.00    -0.327 OA 
BRANCH  17  20
HETATM   20  C   UNL     1     -10.515   6.277  66.608  1.00  0.00    -0.255 C  
HETATM   21  C   UNL     1      -9.428   5.890  65.919  1.00  0.00    -0.033 C  
BRANCH  21  22
HETATM   22  C   UNL     1      -9.325   5.606  64.448  1.00  0.00     0.714 C  
BRANCH  22  23
HETATM   23  N   UNL     1      -8.288   4.653  64.027  1.00  0.00    -0.114 NA 
HETATM   24  C   UNL     1      -7.177   5.340  63.356  1.00  0.00    -0.049 C  
HETATM   25  C   UNL     1      -7.764   3.965  65.216  1.00  0.00    -0.082 C  
ENDBRANCH  22  23
ENDBRANCH  21  22
ENDBRANCH  17  20
ENDBRANCH   5  16
BRANCH  12  26
HETATM   26  N   UNL     1      -6.068  10.010  70.948  1.00  0.00    -0.180 NA 
HETATM   27  H   UNL     1      -5.057   9.870  70.932  1.00  0.00     0.000 HD 
BRANCH  26  28
HETATM   28  C   UNL     1      -6.543  10.898  69.958  1.00  0.00    -0.151 A  
HETATM   29 CL   UNL     1      -9.464  10.833  67.216  1.00  0.00    -0.173 Cl 
HETATM   30  C   UNL     1      -6.054  12.201  69.821  1.00  0.00    -0.143 A  
HETATM   31  C   UNL     1      -8.161  11.401  68.206  1.00  0.00    -0.150 A  
HETATM   32  C   UNL     1      -6.623  13.108  68.905  1.00  0.00    -0.104 A  
HETATM   33  C   UNL     1      -7.582  10.499  69.109  1.00  0.00    -0.123 A  
HETATM   34  C   UNL     1      -7.700  12.722  68.105  1.00  0.00    -0.137 A  
BRANCH  34  35
HETATM   35  O   UNL     1      -8.399  13.551  67.269  1.00  0.00    -0.186 OA 
BRANCH  35  36
HETATM   36  C   UNL     1      -7.712  14.626  66.628  1.00  0.00     0.682 C  
BRANCH  36  37
HETATM   37  C   UNL     1      -7.661  15.814  67.571  1.00  0.00    -0.161 A  
HETATM   38  C   UNL     1      -8.785  16.620  67.753  1.00  0.00    -0.201 A  
HETATM   39  C   UNL     1      -8.707  17.708  68.620  1.00  0.00    -0.266 A  
HETATM   40  C   UNL     1      -7.514  17.965  69.284  1.00  0.00     0.015 A  
HETATM   41  C   UNL     1      -6.443  17.121  69.048  1.00  0.00    -0.208 A  
HETATM   42  N   UNL     1      -6.485  16.066  68.203  1.00  0.00    -0.117 NA 
ENDBRANCH  36  37
ENDBRANCH  35  36
ENDBRANCH  34  35
ENDBRANCH  26  28
ENDBRANCH  12  26
ENDBRANCH   3   4
ENDBRANCH   2   3
TORSDOF 11
ENDMDL
MODEL      139
REMARK 921   NORMALIZED FREE ENERGY PREDICTED BY IDOCK:    2.88 KCAL/MOL
REMARK 922        TOTAL FREE ENERGY PREDICTED BY IDOCK:    2.98 KCAL/MOL
REMARK 923 INTER-LIGAND FREE ENERGY PREDICTED BY IDOCK:   -0.86 KCAL/MOL
REMARK 924 INTRA-LIGAND FREE ENERGY PREDICTED BY IDOCK:    3.84 KCAL/MOL
REMARK 927      BINDING AFFINITY PREDICTED BY RF-SCORE:    0.00 PKD
ROOT
HETATM    1  C   UNL     1     -11.495  20.201  69.672  1.00  0.00     3.473 C  
HETATM    2  C   UNL     1     -10.132  20.237  70.342  1.00  0.00     1.101 C  
ENDROOT
BRANCH   2   3
HETATM    3  O   UNL     1      -9.244  19.431  69.583  1.00  0.00     0.044 OA 
BRANCH   3   4
HETATM    4  C   UNL     1      -9.545  18.124  69.318  1.00  0.00     0.076 A  
HETATM    5  C   UNL     1      -9.218  17.324  68.223  1.00  0.00    -0.265 A  
HETATM    6  C   UNL     1     -12.407  12.396  70.510  1.00  0.00    -0.262 C  
HETATM    7  C   UNL     1      -9.727  16.010  68.139  1.00  0.00    -0.217 A  
HETATM    8  C   UNL     1     -12.016  14.599  71.321  1.00  0.00    -0.343 A  
HETATM    9  C   UNL     1     -10.336  17.563  70.325  1.00  0.00     1.051 A  
HETATM   10  C   UNL     1     -10.526  15.436  69.173  1.00  0.00    -0.239 A  
HETATM   11  N   UNL     1     -11.535  15.862  71.330  1.00  0.00    -0.417 NA 
HETATM   12  C   UNL     1     -11.061  14.089  69.184  1.00  0.00    -0.259 A  
HETATM   13  C   UNL     1     -10.817  16.263  70.284  1.00  0.00    -0.254 A  
HETATM   14  N   UNL     1     -12.931  11.392  70.766  1.00  0.00    -0.139 NA 
HETATM   15  C   UNL     1     -11.827  13.686  70.297  1.00  0.00    -0.336 A  
BRANCH   5  16
HETATM   16  N   UNL     1      -8.380  17.768  67.183  1.00  0.00    -0.219 N  
HETATM   17  C   UNL     1      -7.902  19.064  67.177  1.00  0.00    -0.246 C  
HETATM   18  H   UNL     1      -8.124  17.129  66.431  1.00  0.00     0.000 HD 
HETATM   19  O   UNL     1      -8.197  19.923  68.000  1.00  0.00    -0.298 OA 
BRANCH  17  20
HETATM   20  C   UNL     1      -6.968  19.339  66.051  1.00  0.00    -0.283 C  
HETATM   21  C   UNL     1      -6.984  20.555  65.478  1.00  0.00    -0.198 C  
BRANCH  21  22
HETATM   22  C   UNL     1      -6.095  21.064  64.380  1.00  0.00    -0.277 C  
BRANCH  22  23
HETATM   23  N   UNL     1      -5.142  20.108  63.800  1.00  0.00    -0.167 NA 
HETATM   24  C   UNL     1      -5.428  18.737  64.243  1.00  0.00    -0.199 C  
HETATM   25  C   UNL     1      -5.253  20.160  62.334  1.00  0.00    -0.224 C  
ENDBRANCH  22  23
ENDBRANCH  21  22
ENDBRANCH  17  20
ENDBRANCH   5  16
BRANCH  12  26
HETATM   26  N   UNL     1     -10.782  13.252  68.050  1.00  0.00    -0.235 NA 
HETATM   27  H   UNL     1     -11.322  13.488  67.217  1.00  0.00     0.000 HD 
BRANCH  26  28
HETATM   28  C   UNL     1      -9.898  12.164  67.874  1.00  0.00    -0.199 A  
HETATM   29 CL   UNL     1     -10.070   8.207  68.483  1.00  0.00    -0.209 Cl 
HETATM   30  C   UNL     1      -8.648  12.304  67.263  1.00  0.00    -0.183 A  
HETATM   31  C   UNL     1      -9.491   9.764  67.989  1.00  0.00    -0.131 A  
HETATM   32  C   UNL     1      -7.833  11.186  66.992  1.00  0.00    -0.142 A  
HETATM   33  C   UNL     1     -10.292  10.879  68.268  1.00  0.00    -0.194 A  
HETATM   34  C   UNL     1      -8.260   9.901  67.331  1.00  0.00    -0.118 A  
BRANCH  34  35
HETATM   35  O   UNL     1      -7.604   8.742  67.014  1.00  0.00    -0.087 OA 
BRANCH  35  36
HETATM   36  C   UNL     1      -6.368   8.447  67.665  1.00  0.00    -0.053 C  
BRANCH  36  37
HETATM   37  C   UNL     1      -6.230   6.942  67.806  1.00  0.00    -0.041 A  
HETATM   38  C   UNL     1      -7.091   6.086  67.118  1.00  0.00    -0.070 A  
HETATM   39  C   UNL     1      -6.945   4.709  67.274  1.00  0.00    -0.060 A  
HETATM   40  C   UNL     1      -5.946   4.219  68.106  1.00  0.00    -0.027 A  
HETATM   41  C   UNL     1      -5.134   5.132  68.754  1.00  0.00     0.000 A  
HETATM   42  N   UNL     1      -5.260   6.474  68.634  1.00  0.00    -0.010 NA 
ENDBRANCH  36  37
ENDBRANCH  35  36
ENDBRANCH  34  35
ENDBRANCH  26  28
ENDBRANCH  12  26
ENDBRANCH   3   4
ENDBRANCH   2   3
TORSDOF 11
ENDMDL
MODEL      140
REMARK 921   NORMALIZED FREE ENERGY PREDICTED BY IDOCK:    3.23 KCAL/MOL
REMARK 922        TOTAL FREE ENERGY PREDICTED BY IDOCK:    3.55 KCAL/MOL
REMARK 923 INTER-LIGAND FREE ENERGY PREDICTED BY IDOCK:   -1.04 KCAL/MOL
REMARK 924 INTRA-LIGAND FREE ENERGY PREDICTED BY IDOCK:    4.60 KCAL/MOL
REMARK 927      BINDING AFFINITY PREDICTED BY RF-SCORE:    0.00 PKD
ROOT
HETATM    1  C   UNL     1      -5.697   6.894  73.659  1.00  0.00    -0.054 C  
HETATM    2  C   UNL     1      -5.374   6.450  72.242  1.00  0.00    -0.032 C  
ENDROOT
BRANCH   2   3
HETATM    3  O   UNL     1      -5.129   7.610  71.461  1.00  0.00    -0.027 OA 
BRANCH   3   4
HETATM    4  C   UNL     1      -6.158   8.260  70.839  1.00  0.00    -0.033 A  
HETATM    5  C   UNL     1      -7.252   7.757  70.133  1.00  0.00    -0.062 A  
HETATM    6  C   UNL     1      -9.382  13.524  68.760  1.00  0.00     0.066 C  
HETATM    7  C   UNL     1      -8.146   8.646  69.500  1.00  0.00    -0.110 A  
HETATM    8  C   UNL     1      -7.504  12.733  69.990  1.00  0.00     1.636 A  
HETATM    9  C   UNL     1      -6.021   9.648  70.929  1.00  0.00    -0.081 A  
HETATM   10  C   UNL     1      -8.009  10.064  69.602  1.00  0.00    -0.176 A  
HETATM   11  N   UNL     1      -6.658  11.836  70.542  1.00  0.00     0.091 NA 
HETATM   12  C   UNL     1      -8.897  11.047  69.013  1.00  0.00    -0.058 A  
HETATM   13  C   UNL     1      -6.906  10.543  70.347  1.00  0.00    -0.002 A  
HETATM   14  N   UNL     1      -9.924  14.491  68.414  1.00  0.00    -0.234 NA 
HETATM   15  C   UNL     1      -8.612  12.411  69.224  1.00  0.00     0.879 A  
BRANCH   5  16
HETATM   16  N   UNL     1      -7.519   6.379  70.032  1.00  0.00    -0.089 N  
HETATM   17  C   UNL     1      -8.767   5.936  69.643  1.00  0.00    -0.128 C  
HETATM   18  H   UNL     1      -6.785   5.703  70.247  1.00  0.00     0.000 HD 
HETATM   19  O   UNL     1      -9.730   6.662  69.421  1.00  0.00    -0.148 OA 
BRANCH  17  20
HETATM   20  C   UNL     1      -8.851   4.456  69.512  1.00  0.00    -0.133 C  
HETATM   21  C   UNL     1      -9.019   3.921  68.291  1.00  0.00    -0.162 C  
BRANCH  21  22
HETATM   22  C   UNL     1      -9.067   2.466  67.924  1.00  0.00    -0.184 C  
BRANCH  22  23
HETATM   23  N   UNL     1      -8.266   2.047  66.765  1.00  0.00    -0.079 NA 
HETATM   24  C   UNL     1      -8.410   2.992  65.650  1.00  0.00    -0.098 C  
HETATM   25  C   UNL     1      -6.850   1.998  67.159  1.00  0.00    -0.039 C  
ENDBRANCH  22  23
ENDBRANCH  21  22
ENDBRANCH  17  20
ENDBRANCH   5  16
BRANCH  12  26
HETATM   26  N   UNL     1     -10.008  10.563  68.241  1.00  0.00    -0.155 NA 
HETATM   27  H   UNL     1     -10.592   9.888  68.734  1.00  0.00     0.000 HD 
BRANCH  26  28
HETATM   28  C   UNL     1     -10.441  10.851  66.927  1.00  0.00    -0.249 A  
HETATM   29 CL   UNL     1     -13.326  13.098  65.290  1.00  0.00     0.296 Cl 
HETATM   30  C   UNL     1      -9.753  10.402  65.796  1.00  0.00    -0.285 A  
HETATM   31  C   UNL     1     -11.941  12.069  65.442  1.00  0.00    -0.113 A  
HETATM   32  C   UNL     1     -10.135  10.798  64.498  1.00  0.00    -0.415 A  
HETATM   33  C   UNL     1     -11.566  11.661  66.729  1.00  0.00    -0.220 A  
HETATM   34  C   UNL     1     -11.220  11.656  64.311  1.00  0.00    -0.319 A  
BRANCH  34  35
HETATM   35  O   UNL     1     -11.605  12.192  63.112  1.00  0.00    -0.345 OA 
BRANCH  35  36
HETATM   36  C   UNL     1     -12.310  13.433  63.104  1.00  0.00    -0.003 C  
BRANCH  36  37
HETATM   37  C   UNL     1     -11.539  14.447  63.928  1.00  0.00     0.137 A  
HETATM   38  C   UNL     1     -12.062  15.721  64.152  1.00  0.00     0.071 A  
HETATM   39  C   UNL     1     -11.327  16.633  64.907  1.00  0.00     0.048 A  
HETATM   40  C   UNL     1     -10.093  16.255  65.420  1.00  0.00    -0.179 A  
HETATM   41  C   UNL     1      -9.642  14.975  65.152  1.00  0.00     0.186 A  
HETATM   42  N   UNL     1     -10.326  14.072  64.412  1.00  0.00    -0.244 NA 
ENDBRANCH  36  37
ENDBRANCH  35  36
ENDBRANCH  34  35
ENDBRANCH  26  28
ENDBRANCH  12  26
ENDBRANCH   3   4
ENDBRANCH   2   3
TORSDOF 11
ENDMDL
MODEL      141
REMARK 921   NORMALIZED FREE ENERGY PREDICTED BY IDOCK:    3.35 KCAL/MOL
REMARK 922        TOTAL FREE ENERGY PREDICTED BY IDOCK:    3.74 KCAL/MOL
REMARK 923 INTER-LIGAND FREE ENERGY PREDICTED BY IDOCK:    3.91 KCAL/MOL
REMARK 924 INTRA-LIGAND FREE ENERGY PREDICTED BY IDOCK:   -0.17 KCAL/MOL
REMARK 927      BINDING AFFINITY PREDICTED BY RF-SCORE:    0.00 PKD
ROOT
HETATM    1  C   UNL     1     -14.143  13.610  63.939  1.00  0.00     6.123 C  
HETATM    2  C   UNL     1     -12.727  13.060  63.881  1.00  0.00    -0.086 C  
ENDROOT
BRANCH   2   3
HETATM    3  O   UNL     1     -12.652  11.942  64.753  1.00  0.00    -0.312 OA 
BRANCH   3   4
HETATM    4  C   UNL     1     -11.445  11.516  65.234  1.00  0.00    -0.021 A  
HETATM    5  C   UNL     1     -10.674  11.994  66.294  1.00  0.00    -0.267 A  
HETATM    6  C   UNL     1      -6.087   7.812  65.215  1.00  0.00    -0.038 C  
HETATM    7  C   UNL     1      -9.403  11.432  66.545  1.00  0.00    -0.204 A  
HETATM    8  C   UNL     1      -8.184   8.234  64.170  1.00  0.00    -0.104 A  
HETATM    9  C   UNL     1     -10.937  10.451  64.484  1.00  0.00     1.002 A  
HETATM   10  C   UNL     1      -8.892  10.337  65.784  1.00  0.00    -0.179 A  
HETATM   11  N   UNL     1      -9.373   8.835  63.950  1.00  0.00     0.798 NA 
HETATM   12  C   UNL     1      -7.616   9.681  65.992  1.00  0.00    -0.102 A  
HETATM   13  C   UNL     1      -9.709   9.857  64.733  1.00  0.00    -0.235 A  
HETATM   14  N   UNL     1      -5.152   7.125  65.175  1.00  0.00    -0.027 NA 
HETATM   15  C   UNL     1      -7.275   8.606  65.147  1.00  0.00    -0.087 A  
BRANCH   5  16
HETATM   16  N   UNL     1     -11.115  13.020  67.149  1.00  0.00    -0.265 N  
HETATM   17  C   UNL     1     -10.965  14.344  66.787  1.00  0.00    -0.314 C  
HETATM   18  H   UNL     1     -11.548  12.785  68.042  1.00  0.00     0.000 HD 
HETATM   19  O   UNL     1     -10.406  14.732  65.767  1.00  0.00    -0.301 OA 
BRANCH  17  20
HETATM   20  C   UNL     1     -11.556  15.293  67.770  1.00  0.00    -0.277 C  
HETATM   21  C   UNL     1     -11.059  15.327  69.018  1.00  0.00    -0.263 C  
BRANCH  21  22
HETATM   22  C   UNL     1     -11.458  16.240  70.141  1.00  0.00    -0.216 C  
BRANCH  22  23
HETATM   23  N   UNL     1     -12.260  15.650  71.223  1.00  0.00    -0.380 NA 
HETATM   24  C   UNL     1     -12.656  14.273  70.901  1.00  0.00    -0.356 C  
HETATM   25  C   UNL     1     -11.454  15.631  72.453  1.00  0.00    -0.337 C  
ENDBRANCH  22  23
ENDBRANCH  21  22
ENDBRANCH  17  20
ENDBRANCH   5  16
BRANCH  12  26
HETATM   26  N   UNL     1      -6.776  10.178  67.047  1.00  0.00    -0.077 NA 
HETATM   27  H   UNL     1      -6.415  11.117  66.882  1.00  0.00     0.000 HD 
BRANCH  26  28
HETATM   28  C   UNL     1      -6.358   9.606  68.269  1.00  0.00    -0.056 A  
HETATM   29 CL   UNL     1      -6.376  10.735  72.114  1.00  0.00     1.799 Cl 
HETATM   30  C   UNL     1      -5.884   8.293  68.360  1.00  0.00    -0.041 A  
HETATM   31  C   UNL     1      -6.183   9.759  70.695  1.00  0.00    -0.095 A  
HETATM   32  C   UNL     1      -5.584   7.704  69.606  1.00  0.00    -0.023 A  
HETATM   33  C   UNL     1      -6.467  10.344  69.454  1.00  0.00    -0.057 A  
HETATM   34  C   UNL     1      -5.755   8.426  70.788  1.00  0.00    -0.032 A  
BRANCH  34  35
HETATM   35  O   UNL     1      -5.604   7.920  72.051  1.00  0.00    -0.035 OA 
BRANCH  35  36
HETATM   36  C   UNL     1      -6.458   8.393  73.093  1.00  0.00    -0.099 C  
BRANCH  36  37
HETATM   37  C   UNL     1      -7.504   7.335  73.394  1.00  0.00    -0.075 A  
HETATM   38  C   UNL     1      -7.197   5.980  73.264  1.00  0.00    -0.085 A  
HETATM   39  C   UNL     1      -8.180   5.033  73.540  1.00  0.00    -0.107 A  
HETATM   40  C   UNL     1      -9.442   5.456  73.940  1.00  0.00    -0.138 A  
HETATM   41  C   UNL     1      -9.669   6.817  74.043  1.00  0.00    -0.279 A  
HETATM   42  N   UNL     1      -8.739   7.761  73.769  1.00  0.00    -0.238 NA 
ENDBRANCH  36  37
ENDBRANCH  35  36
ENDBRANCH  34  35
ENDBRANCH  26  28
ENDBRANCH  12  26
ENDBRANCH   3   4
ENDBRANCH   2   3
TORSDOF 11
ENDMDL
MODEL      142
REMARK 921   NORMALIZED FREE ENERGY PREDICTED BY IDOCK:    3.41 KCAL/MOL
REMARK 922        TOTAL FREE ENERGY PREDICTED BY IDOCK:    3.84 KCAL/MOL
REMARK 923 INTER-LIGAND FREE ENERGY PREDICTED BY IDOCK:   -0.14 KCAL/MOL
REMARK 924 INTRA-LIGAND FREE ENERGY PREDICTED BY IDOCK:    3.98 KCAL/MOL
REMARK 927      BINDING AFFINITY PREDICTED BY RF-SCORE:    0.00 PKD
ROOT
HETATM    1  C   UNL     1     -11.499  20.201  69.683  1.00  0.00     3.473 C  
HETATM    2  C   UNL     1     -10.141  20.243  70.363  1.00  0.00     1.101 C  
ENDROOT
BRANCH   2   3
HETATM    3  O   UNL     1      -9.251  19.418  69.626  1.00  0.00     0.044 OA 
BRANCH   3   4
HETATM    4  C   UNL     1      -9.553  18.106  69.388  1.00  0.00     0.215 A  
HETATM    5  C   UNL     1      -9.223  17.282  68.312  1.00  0.00    -0.265 A  
HETATM    6  C   UNL     1     -12.433  12.411  70.691  1.00  0.00    -0.234 C  
HETATM    7  C   UNL     1      -9.734  15.967  68.254  1.00  0.00    -0.214 A  
HETATM    8  C   UNL     1     -12.042  14.631  71.455  1.00  0.00    -0.348 A  
HETATM    9  C   UNL     1     -10.351  17.569  70.403  1.00  0.00     1.289 A  
HETATM   10  C   UNL     1     -10.540  15.417  69.297  1.00  0.00    -0.252 A  
HETATM   11  N   UNL     1     -11.558  15.893  71.439  1.00  0.00    -0.434 NA 
HETATM   12  C   UNL     1     -11.078  14.072  69.335  1.00  0.00    -0.203 A  
HETATM   13  C   UNL     1     -10.834  16.269  70.388  1.00  0.00    -0.203 A  
HETATM   14  N   UNL     1     -12.961  11.414  70.967  1.00  0.00    -0.262 NA 
HETATM   15  C   UNL     1     -11.849  13.695  70.452  1.00  0.00    -0.308 A  
BRANCH   5  16
HETATM   16  N   UNL     1      -8.379  17.701  67.267  1.00  0.00    -0.212 N  
HETATM   17  C   UNL     1      -7.898  18.995  67.235  1.00  0.00    -0.245 C  
HETATM   18  H   UNL     1      -8.121  17.046  66.530  1.00  0.00     0.000 HD 
HETATM   19  O   UNL     1      -8.195  19.873  68.038  1.00  0.00    -0.298 OA 
BRANCH  17  20
HETATM   20  C   UNL     1      -6.959  19.244  66.108  1.00  0.00    -0.261 C  
HETATM   21  C   UNL     1      -7.063  20.393  65.418  1.00  0.00    -0.209 C  
BRANCH  21  22
HETATM   22  C   UNL     1      -6.189  20.873  64.296  1.00  0.00    -0.316 C  
BRANCH  22  23
HETATM   23  N   UNL     1      -5.140  19.955  63.832  1.00  0.00    -0.160 NA 
HETATM   24  C   UNL     1      -5.387  18.585  64.300  1.00  0.00    -0.062 C  
HETATM   25  C   UNL     1      -5.128  19.953  62.361  1.00  0.00    -0.231 C  
ENDBRANCH  22  23
ENDBRANCH  21  22
ENDBRANCH  17  20
ENDBRANCH   5  16
BRANCH  12  26
HETATM   26  N   UNL     1     -10.795  13.210  68.220  1.00  0.00    -0.244 NA 
HETATM   27  H   UNL     1     -11.188  13.533  67.336  1.00  0.00     0.000 HD 
BRANCH  26  28
HETATM   28  C   UNL     1     -10.073  12.000  68.123  1.00  0.00    -0.200 A  
HETATM   29 CL   UNL     1     -10.247   8.741  65.798  1.00  0.00     0.248 Cl 
HETATM   30  C   UNL     1      -8.926  11.747  68.882  1.00  0.00     0.118 A  
HETATM   31  C   UNL     1      -9.699   9.876  66.986  1.00  0.00    -0.182 A  
HETATM   32  C   UNL     1      -8.155  10.583  68.683  1.00  0.00    -0.127 A  
HETATM   33  C   UNL     1     -10.470  11.027  67.197  1.00  0.00    -0.274 A  
HETATM   34  C   UNL     1      -8.523   9.648  67.715  1.00  0.00    -0.125 A  
BRANCH  34  35
HETATM   35  O   UNL     1      -7.789   8.548  67.362  1.00  0.00    -0.097 OA 
BRANCH  35  36
HETATM   36  C   UNL     1      -6.618   8.724  66.564  1.00  0.00    -0.063 C  
BRANCH  36  37
HETATM   37  C   UNL     1      -6.997   8.620  65.098  1.00  0.00    -0.072 A  
HETATM   38  C   UNL     1      -6.652   9.635  64.205  1.00  0.00    -0.111 A  
HETATM   39  C   UNL     1      -7.020   9.515  62.867  1.00  0.00    -0.099 A  
HETATM   40  C   UNL     1      -7.720   8.389  62.451  1.00  0.00    -0.129 A  
HETATM   41  C   UNL     1      -8.026   7.427  63.397  1.00  0.00    -0.078 A  
HETATM   42  N   UNL     1      -7.694   7.522  64.705  1.00  0.00    -0.110 NA 
ENDBRANCH  36  37
ENDBRANCH  35  36
ENDBRANCH  34  35
ENDBRANCH  26  28
ENDBRANCH  12  26
ENDBRANCH   3   4
ENDBRANCH   2   3
TORSDOF 11
ENDMDL
MODEL      143
REMARK 921   NORMALIZED FREE ENERGY PREDICTED BY IDOCK:    3.43 KCAL/MOL
REMARK 922        TOTAL FREE ENERGY PREDICTED BY IDOCK:    3.88 KCAL/MOL
REMARK 923 INTER-LIGAND FREE ENERGY PREDICTED BY IDOCK:    1.37 KCAL/MOL
REMARK 924 INTRA-LIGAND FREE ENERGY PREDICTED BY IDOCK:    2.52 KCAL/MOL
REMARK 927      BINDING AFFINITY PREDICTED BY RF-SCORE:    0.00 PKD
ROOT
HETATM    1  C   UNL     1     -11.025  10.507  62.792  1.00  0.00     1.624 C  
HETATM    2  C   UNL     1     -10.161   9.271  62.979  1.00  0.00     2.847 C  
ENDROOT
BRANCH   2   3
HETATM    3  O   UNL     1      -9.157   9.574  63.936  1.00  0.00    -0.230 OA 
BRANCH   3   4
HETATM    4  C   UNL     1      -9.253  10.695  64.713  1.00  0.00    -0.220 A  
HETATM    5  C   UNL     1      -8.955  10.889  66.063  1.00  0.00    -0.186 A  
HETATM    6  C   UNL     1     -10.820  16.904  65.904  1.00  0.00    -0.037 C  
HETATM    7  C   UNL     1      -9.224  12.135  66.667  1.00  0.00    -0.206 A  
HETATM    8  C   UNL     1     -10.718  15.188  64.258  1.00  0.00     0.483 A  
HETATM    9  C   UNL     1      -9.770  11.778  63.996  1.00  0.00    -0.202 A  
HETATM   10  C   UNL     1      -9.742  13.243  65.930  1.00  0.00    -0.188 A  
HETATM   11  N   UNL     1     -10.478  13.962  63.741  1.00  0.00     0.605 NA 
HETATM   12  C   UNL     1     -10.017  14.563  66.461  1.00  0.00    -0.280 A  
HETATM   13  C   UNL     1     -10.009  13.023  64.557  1.00  0.00    -0.124 A  
HETATM   14  N   UNL     1     -11.110  18.016  66.068  1.00  0.00     0.327 NA 
HETATM   15  C   UNL     1     -10.522  15.542  65.582  1.00  0.00    -0.393 A  
BRANCH   5  16
HETATM   16  N   UNL     1      -8.375   9.886  66.862  1.00  0.00    -0.124 N  
HETATM   17  C   UNL     1      -7.306  10.180  67.685  1.00  0.00    -0.089 C  
HETATM   18  H   UNL     1      -8.747   8.937  66.833  1.00  0.00     0.000 HD 
HETATM   19  O   UNL     1      -6.750  11.271  67.748  1.00  0.00    -0.065 OA 
BRANCH  17  20
HETATM   20  C   UNL     1      -6.871   9.025  68.517  1.00  0.00    -0.064 C  
HETATM   21  C   UNL     1      -7.744   8.482  69.382  1.00  0.00    -0.092 C  
BRANCH  21  22
HETATM   22  C   UNL     1      -7.539   7.285  70.265  1.00  0.00    -0.089 C  
BRANCH  22  23
HETATM   23  N   UNL     1      -7.061   7.541  71.631  1.00  0.00    -0.061 NA 
HETATM   24  C   UNL     1      -7.872   8.571  72.294  1.00  0.00    -0.063 C  
HETATM   25  C   UNL     1      -7.156   6.297  72.408  1.00  0.00    -0.083 C  
ENDBRANCH  22  23
ENDBRANCH  21  22
ENDBRANCH  17  20
ENDBRANCH   5  16
BRANCH  12  26
HETATM   26  N   UNL     1      -9.764  14.784  67.858  1.00  0.00    -0.209 NA 
HETATM   27  H   UNL     1     -10.204  14.100  68.473  1.00  0.00     0.000 HD 
BRANCH  26  28
HETATM   28  C   UNL     1      -9.019  15.774  68.537  1.00  0.00    -0.194 A  
HETATM   29 CL   UNL     1      -5.227  16.159  69.774  1.00  0.00    -0.122 Cl 
HETATM   30  C   UNL     1      -9.548  17.031  68.849  1.00  0.00    -0.248 A  
HETATM   31  C   UNL     1      -6.881  16.538  69.424  1.00  0.00    -0.220 A  
HETATM   32  C   UNL     1      -8.751  18.044  69.420  1.00  0.00     0.465 A  
HETATM   33  C   UNL     1      -7.680  15.530  68.869  1.00  0.00    -0.175 A  
HETATM   34  C   UNL     1      -7.401  17.813  69.691  1.00  0.00     0.425 A  
BRANCH  34  35
HETATM   35  O   UNL     1      -6.514  18.755  70.135  1.00  0.00    -0.073 OA 
BRANCH  35  36
HETATM   36  C   UNL     1      -5.501  19.225  69.246  1.00  0.00    -0.201 C  
BRANCH  36  37
HETATM   37  C   UNL     1      -6.086  19.351  67.851  1.00  0.00    -0.209 A  
HETATM   38  C   UNL     1      -6.704  20.535  67.448  1.00  0.00    -0.333 A  
HETATM   39  C   UNL     1      -7.238  20.618  66.164  1.00  0.00    -0.128 A  
HETATM   40  C   UNL     1      -7.143  19.523  65.314  1.00  0.00    -0.083 A  
HETATM   41  C   UNL     1      -6.518  18.384  65.789  1.00  0.00    -0.270 A  
HETATM   42  N   UNL     1      -6.002  18.269  67.034  1.00  0.00    -0.147 NA 
ENDBRANCH  36  37
ENDBRANCH  35  36
ENDBRANCH  34  35
ENDBRANCH  26  28
ENDBRANCH  12  26
ENDBRANCH   3   4
ENDBRANCH   2   3
TORSDOF 11
ENDMDL
MODEL      144
REMARK 921   NORMALIZED FREE ENERGY PREDICTED BY IDOCK:    3.51 KCAL/MOL
REMARK 922        TOTAL FREE ENERGY PREDICTED BY IDOCK:    4.01 KCAL/MOL
REMARK 923 INTER-LIGAND FREE ENERGY PREDICTED BY IDOCK:    1.89 KCAL/MOL
REMARK 924 INTRA-LIGAND FREE ENERGY PREDICTED BY IDOCK:    2.12 KCAL/MOL
REMARK 927      BINDING AFFINITY PREDICTED BY RF-SCORE:    0.00 PKD
ROOT
HETATM    1  C   UNL     1      -6.716   8.044  71.937  1.00  0.00    -0.067 C  
HETATM    2  C   UNL     1      -7.703   7.679  70.842  1.00  0.00    -0.088 C  
ENDROOT
BRANCH   2   3
HETATM    3  O   UNL     1      -9.000   8.075  71.265  1.00  0.00    -0.130 OA 
BRANCH   3   4
HETATM    4  C   UNL     1      -9.630   9.135  70.675  1.00  0.00    -0.255 A  
HETATM    5  C   UNL     1      -9.684   9.526  69.337  1.00  0.00    -0.183 A  
HETATM    6  C   UNL     1     -13.123  14.633  70.672  1.00  0.00    -0.271 C  
HETATM    7  C   UNL     1     -10.338  10.726  68.984  1.00  0.00    -0.235 A  
HETATM    8  C   UNL     1     -12.223  12.881  72.010  1.00  0.00     0.914 A  
HETATM    9  C   UNL     1     -10.278   9.939  71.618  1.00  0.00     1.144 A  
HETATM   10  C   UNL     1     -11.009  11.539  69.947  1.00  0.00     0.044 A  
HETATM   11  N   UNL     1     -11.549  11.746  72.295  1.00  0.00     4.058 NA 
HETATM   12  C   UNL     1     -11.730  12.765  69.669  1.00  0.00    -0.302 A  
HETATM   13  C   UNL     1     -10.959  11.102  71.292  1.00  0.00     2.445 A  
HETATM   14  N   UNL     1     -13.752  15.607  70.720  1.00  0.00    -0.361 NA 
HETATM   15  C   UNL     1     -12.341  13.437  70.746  1.00  0.00    -0.433 A  
BRANCH   5  16
HETATM   16  N   UNL     1      -9.118   8.761  68.300  1.00  0.00    -0.141 N  
HETATM   17  C   UNL     1      -9.927   8.109  67.392  1.00  0.00    -0.209 C  
HETATM   18  H   UNL     1      -8.104   8.687  68.221  1.00  0.00     0.000 HD 
HETATM   19  O   UNL     1     -11.152   8.085  67.436  1.00  0.00    -0.025 OA 
BRANCH  17  20
HETATM   20  C   UNL     1      -9.165   7.413  66.319  1.00  0.00    -0.182 C  
HETATM   21  C   UNL     1      -8.869   6.111  66.473  1.00  0.00    -0.134 C  
BRANCH  21  22
HETATM   22  C   UNL     1      -8.170   5.207  65.500  1.00  0.00    -0.121 C  
BRANCH  22  23
HETATM   23  N   UNL     1      -7.606   3.961  66.039  1.00  0.00    -0.087 NA 
HETATM   24  C   UNL     1      -6.784   4.221  67.228  1.00  0.00    -0.047 C  
HETATM   25  C   UNL     1      -8.709   3.066  66.418  1.00  0.00    -0.133 C  
ENDBRANCH  22  23
ENDBRANCH  21  22
ENDBRANCH  17  20
ENDBRANCH   5  16
BRANCH  12  26
HETATM   26  N   UNL     1     -11.767  13.221  68.307  1.00  0.00    -0.333 NA 
HETATM   27  H   UNL     1     -11.989  14.212  68.207  1.00  0.00     0.000 HD 
BRANCH  26  28
HETATM   28  C   UNL     1     -11.553  12.552  67.081  1.00  0.00    -0.368 A  
HETATM   29 CL   UNL     1     -13.039  12.826  63.370  1.00  0.00     0.246 Cl 
HETATM   30  C   UNL     1     -10.548  11.594  66.915  1.00  0.00    -0.276 A  
HETATM   31  C   UNL     1     -12.052  12.333  64.705  1.00  0.00    -0.365 A  
HETATM   32  C   UNL     1     -10.275  11.025  65.654  1.00  0.00    -0.318 A  
HETATM   33  C   UNL     1     -12.328  12.885  65.963  1.00  0.00    -0.330 A  
HETATM   34  C   UNL     1     -11.011  11.409  64.531  1.00  0.00    -0.277 A  
BRANCH  34  35
HETATM   35  O   UNL     1     -10.757  11.008  63.247  1.00  0.00    -0.271 OA 
BRANCH  35  36
HETATM   36  C   UNL     1      -9.473  11.272  62.681  1.00  0.00    -0.244 C  
BRANCH  36  37
HETATM   37  C   UNL     1      -8.505  10.190  63.124  1.00  0.00    -0.182 A  
HETATM   38  C   UNL     1      -8.418   8.989  62.419  1.00  0.00    -0.213 A  
HETATM   39  C   UNL     1      -7.526   8.011  62.853  1.00  0.00    -0.113 A  
HETATM   40  C   UNL     1      -6.743   8.252  63.975  1.00  0.00    -0.071 A  
HETATM   41  C   UNL     1      -6.889   9.467  64.621  1.00  0.00    -0.101 A  
HETATM   42  N   UNL     1      -7.756  10.430  64.231  1.00  0.00    -0.093 NA 
ENDBRANCH  36  37
ENDBRANCH  35  36
ENDBRANCH  34  35
ENDBRANCH  26  28
ENDBRANCH  12  26
ENDBRANCH   3   4
ENDBRANCH   2   3
TORSDOF 11
ENDMDL
MODEL      145
REMARK 921   NORMALIZED FREE ENERGY PREDICTED BY IDOCK:    3.52 KCAL/MOL
REMARK 922        TOTAL FREE ENERGY PREDICTED BY IDOCK:    4.03 KCAL/MOL
REMARK 923 INTER-LIGAND FREE ENERGY PREDICTED BY IDOCK:    0.00 KCAL/MOL
REMARK 924 INTRA-LIGAND FREE ENERGY PREDICTED BY IDOCK:    4.03 KCAL/MOL
REMARK 927      BINDING AFFINITY PREDICTED BY RF-SCORE:    0.00 PKD
ROOT
HETATM    1  C   UNL     1      -5.644   8.901  71.565  1.00  0.00    -0.050 C  
HETATM    2  C   UNL     1      -5.999   7.628  70.815  1.00  0.00    -0.034 C  
ENDROOT
BRANCH   2   3
HETATM    3  O   UNL     1      -6.423   7.987  69.509  1.00  0.00    -0.034 OA 
BRANCH   3   4
HETATM    4  C   UNL     1      -6.692   9.291  69.199  1.00  0.00    -0.050 A  
HETATM    5  C   UNL     1      -7.424   9.838  68.144  1.00  0.00    -0.081 A  
HETATM    6  C   UNL     1      -6.212  15.738  69.989  1.00  0.00    -0.125 C  
HETATM    7  C   UNL     1      -7.488  11.239  67.989  1.00  0.00    -0.095 A  
HETATM    8  C   UNL     1      -5.611  13.606  70.858  1.00  0.00    -0.200 A  
HETATM    9  C   UNL     1      -6.083  10.171  70.098  1.00  0.00    -0.077 A  
HETATM   10  C   UNL     1      -6.873  12.136  68.914  1.00  0.00    -0.100 A  
HETATM   11  N   UNL     1      -5.551  12.258  70.936  1.00  0.00    -0.306 NA 
HETATM   12  C   UNL     1      -6.915  13.584  68.849  1.00  0.00    -0.108 A  
HETATM   13  C   UNL     1      -6.161  11.551  69.988  1.00  0.00    -0.151 A  
HETATM   14  N   UNL     1      -6.102  16.880  70.172  1.00  0.00    -0.140 NA 
HETATM   15  C   UNL     1      -6.255  14.314  69.858  1.00  0.00    -0.148 A  
BRANCH   5  16
HETATM   16  N   UNL     1      -8.127   9.045  67.218  1.00  0.00    -0.103 N  
HETATM   17  C   UNL     1      -7.448   8.175  66.387  1.00  0.00    -0.087 C  
HETATM   18  H   UNL     1      -9.142   9.113  67.160  1.00  0.00     0.000 HD 
HETATM   19  O   UNL     1      -6.228   8.062  66.338  1.00  0.00    -0.044 OA 
BRANCH  17  20
HETATM   20  C   UNL     1      -8.350   7.360  65.529  1.00  0.00    -0.139 C  
HETATM   21  C   UNL     1      -7.903   6.940  64.333  1.00  0.00    -0.112 C  
BRANCH  21  22
HETATM   22  C   UNL     1      -8.614   6.064  63.342  1.00  0.00     0.249 C  
BRANCH  22  23
HETATM   23  N   UNL     1      -8.344   4.621  63.418  1.00  0.00    -0.103 NA 
HETATM   24  C   UNL     1      -7.526   4.295  64.593  1.00  0.00    -0.072 C  
HETATM   25  C   UNL     1      -9.625   3.905  63.525  1.00  0.00    -0.147 C  
ENDBRANCH  22  23
ENDBRANCH  21  22
ENDBRANCH  17  20
ENDBRANCH   5  16
BRANCH  12  26
HETATM   26  N   UNL     1      -7.623  14.181  67.750  1.00  0.00    -0.149 NA 
HETATM   27  H   UNL     1      -8.200  13.525  67.224  1.00  0.00     0.000 HD 
BRANCH  26  28
HETATM   28  C   UNL     1      -7.667  15.507  67.265  1.00  0.00    -0.212 A  
HETATM   29 CL   UNL     1      -5.132  17.935  65.333  1.00  0.00    -0.186 Cl 
HETATM   30  C   UNL     1      -8.832  16.280  67.297  1.00  0.00    -0.204 A  
HETATM   31  C   UNL     1      -6.579  17.331  66.069  1.00  0.00    -0.052 A  
HETATM   32  C   UNL     1      -8.885  17.556  66.701  1.00  0.00    -0.284 A  
HETATM   33  C   UNL     1      -6.528  16.068  66.674  1.00  0.00     0.489 A  
HETATM   34  C   UNL     1      -7.763  18.084  66.060  1.00  0.00    -0.176 A  
BRANCH  34  35
HETATM   35  O   UNL     1      -7.736  19.256  65.354  1.00  0.00    -0.364 OA 
BRANCH  35  36
HETATM   36  C   UNL     1      -8.958  19.962  65.140  1.00  0.00     1.388 C  
BRANCH  36  37
HETATM   37  C   UNL     1      -9.646  20.178  66.476  1.00  0.00    -0.404 A  
HETATM   38  C   UNL     1     -10.909  19.636  66.715  1.00  0.00    -0.489 A  
HETATM   39  C   UNL     1     -11.519  19.857  67.948  1.00  0.00     1.027 A  
HETATM   40  C   UNL     1     -10.857  20.608  68.911  1.00  0.00     0.780 A  
HETATM   41  C   UNL     1      -9.608  21.113  68.597  1.00  0.00     1.264 A  
HETATM   42  N   UNL     1      -8.997  20.927  67.404  1.00  0.00    -0.174 NA 
ENDBRANCH  36  37
ENDBRANCH  35  36
ENDBRANCH  34  35
ENDBRANCH  26  28
ENDBRANCH  12  26
ENDBRANCH   3   4
ENDBRANCH   2   3
TORSDOF 11
ENDMDL
MODEL      146
REMARK 921   NORMALIZED FREE ENERGY PREDICTED BY IDOCK:    3.53 KCAL/MOL
REMARK 922        TOTAL FREE ENERGY PREDICTED BY IDOCK:    4.04 KCAL/MOL
REMARK 923 INTER-LIGAND FREE ENERGY PREDICTED BY IDOCK:    3.32 KCAL/MOL
REMARK 924 INTRA-LIGAND FREE ENERGY PREDICTED BY IDOCK:    0.73 KCAL/MOL
REMARK 927      BINDING AFFINITY PREDICTED BY RF-SCORE:    0.00 PKD
ROOT
HETATM    1  C   UNL     1     -12.148   6.240  65.500  1.00  0.00     5.597 C  
HETATM    2  C   UNL     1     -11.319   5.119  66.103  1.00  0.00     0.760 C  
ENDROOT
BRANCH   2   3
HETATM    3  O   UNL     1      -9.983   5.259  65.642  1.00  0.00    -0.068 OA 
BRANCH   3   4
HETATM    4  C   UNL     1      -9.163   6.219  66.167  1.00  0.00    -0.120 A  
HETATM    5  C   UNL     1      -8.049   6.102  66.999  1.00  0.00    -0.106 A  
HETATM    6  C   UNL     1      -7.273  12.346  67.315  1.00  0.00    -0.125 C  
HETATM    7  C   UNL     1      -7.411   7.264  67.483  1.00  0.00    -0.101 A  
HETATM    8  C   UNL     1      -8.843  10.956  66.187  1.00  0.00    -0.186 A  
HETATM    9  C   UNL     1      -9.577   7.505  65.805  1.00  0.00     0.324 A  
HETATM   10  C   UNL     1      -7.829   8.576  67.103  1.00  0.00    -0.097 A  
HETATM   11  N   UNL     1      -9.438   9.811  65.786  1.00  0.00    -0.219 NA 
HETATM   12  C   UNL     1      -7.214   9.819  67.526  1.00  0.00    -0.089 A  
HETATM   13  C   UNL     1      -8.945   8.661  66.237  1.00  0.00    -0.173 A  
HETATM   14  N   UNL     1      -6.971  13.453  67.488  1.00  0.00    -0.161 NA 
HETATM   15  C   UNL     1      -7.757  11.027  67.045  1.00  0.00    -0.134 A  
BRANCH   5  16
HETATM   16  N   UNL     1      -7.513   4.857  67.375  1.00  0.00    -0.081 N  
HETATM   17  C   UNL     1      -7.203   3.911  66.418  1.00  0.00    -0.064 C  
HETATM   18  H   UNL     1      -7.352   4.652  68.361  1.00  0.00     0.000 HD 
HETATM   19  O   UNL     1      -7.413   4.037  65.216  1.00  0.00    -0.078 OA 
BRANCH  17  20
HETATM   20  C   UNL     1      -6.573   2.687  66.984  1.00  0.00    -0.036 C  
HETATM   21  C   UNL     1      -6.149   2.706  68.259  1.00  0.00    -0.025 C  
BRANCH  21  22
HETATM   22  C   UNL     1      -5.548   1.577  69.044  1.00  0.00    -0.017 C  
BRANCH  22  23
HETATM   23  N   UNL     1      -5.929   1.475  70.460  1.00  0.00    -0.017 NA 
HETATM   24  C   UNL     1      -5.413   2.612  71.232  1.00  0.00    -0.008 C  
HETATM   25  C   UNL     1      -7.397   1.470  70.556  1.00  0.00    -0.033 C  
ENDBRANCH  22  23
ENDBRANCH  21  22
ENDBRANCH  17  20
ENDBRANCH   5  16
BRANCH  12  26
HETATM   26  N   UNL     1      -6.092   9.736  68.420  1.00  0.00    -0.046 NA 
HETATM   27  H   UNL     1      -5.219  10.082  68.023  1.00  0.00     0.000 HD 
BRANCH  26  28
HETATM   28  C   UNL     1      -5.975   9.264  69.747  1.00  0.00    -0.035 A  
HETATM   29 CL   UNL     1      -5.297   5.713  71.474  1.00  0.00    -0.009 Cl 
HETATM   30  C   UNL     1      -5.977  10.122  70.851  1.00  0.00    -0.070 A  
HETATM   31  C   UNL     1      -5.544   7.417  71.276  1.00  0.00    -0.035 A  
HETATM   32  C   UNL     1      -5.741   9.643  72.155  1.00  0.00     0.100 A  
HETATM   33  C   UNL     1      -5.793   7.897  69.983  1.00  0.00    -0.023 A  
HETATM   34  C   UNL     1      -5.498   8.286  72.376  1.00  0.00    -0.040 A  
BRANCH  34  35
HETATM   35  O   UNL     1      -5.146   7.733  73.578  1.00  0.00    -0.041 OA 
BRANCH  35  36
HETATM   36  C   UNL     1      -6.161   7.502  74.556  1.00  0.00    -0.082 C  
BRANCH  36  37
HETATM   37  C   UNL     1      -7.470   7.199  73.850  1.00  0.00    -0.100 A  
HETATM   38  C   UNL     1      -8.394   8.216  73.608  1.00  0.00    -0.305 A  
HETATM   39  C   UNL     1      -9.590   7.906  72.965  1.00  0.00    -0.341 A  
HETATM   40  C   UNL     1      -9.836   6.594  72.577  1.00  0.00    -0.176 A  
HETATM   41  C   UNL     1      -8.871   5.643  72.855  1.00  0.00    -0.124 A  
HETATM   42  N   UNL     1      -7.707   5.911  73.490  1.00  0.00    -0.101 NA 
ENDBRANCH  36  37
ENDBRANCH  35  36
ENDBRANCH  34  35
ENDBRANCH  26  28
ENDBRANCH  12  26
ENDBRANCH   3   4
ENDBRANCH   2   3
TORSDOF 11
ENDMDL
MODEL      147
REMARK 921   NORMALIZED FREE ENERGY PREDICTED BY IDOCK:    3.73 KCAL/MOL
REMARK 922        TOTAL FREE ENERGY PREDICTED BY IDOCK:    4.37 KCAL/MOL
REMARK 923 INTER-LIGAND FREE ENERGY PREDICTED BY IDOCK:   -0.39 KCAL/MOL
REMARK 924 INTRA-LIGAND FREE ENERGY PREDICTED BY IDOCK:    4.77 KCAL/MOL
REMARK 927      BINDING AFFINITY PREDICTED BY RF-SCORE:    0.00 PKD
ROOT
HETATM    1  C   UNL     1      -5.496  18.312  71.119  1.00  0.00    -0.091 C  
HETATM    2  C   UNL     1      -5.126  17.021  71.829  1.00  0.00     0.428 C  
ENDROOT
BRANCH   2   3
HETATM    3  O   UNL     1      -6.200  16.106  71.671  1.00  0.00     1.378 OA 
BRANCH   3   4
HETATM    4  C   UNL     1      -6.920  16.072  70.510  1.00  0.00     1.119 A  
HETATM    5  C   UNL     1      -7.169  15.018  69.630  1.00  0.00    -0.192 A  
HETATM    6  C   UNL     1     -10.441  18.700  65.701  1.00  0.00    -0.111 C  
HETATM    7  C   UNL     1      -7.881  15.258  68.435  1.00  0.00    -0.122 A  
HETATM    8  C   UNL     1      -9.339  19.104  67.772  1.00  0.00    -0.305 A  
HETATM    9  C   UNL     1      -7.436  17.330  70.187  1.00  0.00     1.760 A  
HETATM   10  C   UNL     1      -8.417  16.542  68.112  1.00  0.00    -0.191 A  
HETATM   11  N   UNL     1      -8.618  18.826  68.881  1.00  0.00    -0.256 NA 
HETATM   12  C   UNL     1      -9.185  16.868  66.927  1.00  0.00    -0.238 A  
HETATM   13  C   UNL     1      -8.170  17.584  69.038  1.00  0.00    -0.065 A  
HETATM   14  N   UNL     1     -11.069  19.211  64.869  1.00  0.00    -0.009 NA 
HETATM   15  C   UNL     1      -9.643  18.192  66.775  1.00  0.00    -0.301 A  
BRANCH   5  16
HETATM   16  N   UNL     1      -6.748  13.700  69.887  1.00  0.00    -0.353 N  
HETATM   17  C   UNL     1      -5.773  13.451  70.831  1.00  0.00    -0.180 C  
HETATM   18  H   UNL     1      -7.167  12.926  69.373  1.00  0.00     0.000 HD 
HETATM   19  O   UNL     1      -5.168  14.313  71.459  1.00  0.00    -0.134 OA 
BRANCH  17  20
HETATM   20  C   UNL     1      -5.507  12.000  71.031  1.00  0.00    -0.077 C  
HETATM   21  C   UNL     1      -6.517  11.127  70.871  1.00  0.00     0.754 C  
BRANCH  21  22
HETATM   22  C   UNL     1      -6.459   9.630  70.962  1.00  0.00    -0.050 C  
BRANCH  22  23
HETATM   23  N   UNL     1      -5.507   9.058  71.924  1.00  0.00    -0.054 NA 
HETATM   24  C   UNL     1      -6.083   9.004  73.274  1.00  0.00     0.066 C  
HETATM   25  C   UNL     1      -5.170   7.691  71.502  1.00  0.00    -0.031 C  
ENDBRANCH  22  23
ENDBRANCH  21  22
ENDBRANCH  17  20
ENDBRANCH   5  16
BRANCH  12  26
HETATM   26  N   UNL     1      -9.422  15.817  65.977  1.00  0.00    -0.339 NA 
HETATM   27  H   UNL     1      -9.424  16.128  65.005  1.00  0.00     0.000 HD 
BRANCH  26  28
HETATM   28  C   UNL     1      -9.651  14.432  66.139  1.00  0.00    -0.283 A  
HETATM   29 CL   UNL     1      -7.534  11.320  67.512  1.00  0.00    -0.101 Cl 
HETATM   30  C   UNL     1     -10.898  13.845  65.900  1.00  0.00    -0.287 A  
HETATM   31  C   UNL     1      -8.857  12.259  66.903  1.00  0.00    -0.207 A  
HETATM   32  C   UNL     1     -11.136  12.484  66.181  1.00  0.00    -0.336 A  
HETATM   33  C   UNL     1      -8.621  13.608  66.609  1.00  0.00     0.053 A  
HETATM   34  C   UNL     1     -10.121  11.684  66.709  1.00  0.00    -0.213 A  
BRANCH  34  35
HETATM   35  O   UNL     1     -10.274  10.388  67.123  1.00  0.00    -0.201 OA 
BRANCH  35  36
HETATM   36  C   UNL     1     -11.147  10.110  68.218  1.00  0.00    -0.227 C  
BRANCH  36  37
HETATM   37  C   UNL     1     -10.931   8.678  68.673  1.00  0.00     0.163 A  
HETATM   38  C   UNL     1     -10.369   7.739  67.807  1.00  0.00    -0.284 A  
HETATM   39  C   UNL     1     -10.190   6.430  68.250  1.00  0.00    -0.197 A  
HETATM   40  C   UNL     1     -10.572   6.090  69.542  1.00  0.00    -0.363 A  
HETATM   41  C   UNL     1     -11.124   7.077  70.338  1.00  0.00    -0.287 A  
HETATM   42  N   UNL     1     -11.323   8.352  69.932  1.00  0.00    -0.027 NA 
ENDBRANCH  36  37
ENDBRANCH  35  36
ENDBRANCH  34  35
ENDBRANCH  26  28
ENDBRANCH  12  26
ENDBRANCH   3   4
ENDBRANCH   2   3
TORSDOF 11
ENDMDL
MODEL      148
REMARK 921   NORMALIZED FREE ENERGY PREDICTED BY IDOCK:    3.77 KCAL/MOL
REMARK 922        TOTAL FREE ENERGY PREDICTED BY IDOCK:    4.43 KCAL/MOL
REMARK 923 INTER-LIGAND FREE ENERGY PREDICTED BY IDOCK:    2.38 KCAL/MOL
REMARK 924 INTRA-LIGAND FREE ENERGY PREDICTED BY IDOCK:    2.06 KCAL/MOL
REMARK 927      BINDING AFFINITY PREDICTED BY RF-SCORE:    0.00 PKD
ROOT
HETATM    1  C   UNL     1     -14.148  13.610  63.940  1.00  0.00     6.123 C  
HETATM    2  C   UNL     1     -12.731  13.066  63.867  1.00  0.00    -0.086 C  
ENDROOT
BRANCH   2   3
HETATM    3  O   UNL     1     -12.646  11.937  64.723  1.00  0.00    -0.312 OA 
BRANCH   3   4
HETATM    4  C   UNL     1     -11.435  11.510  65.193  1.00  0.00    -0.020 A  
HETATM    5  C   UNL     1     -10.659  11.981  66.253  1.00  0.00    -0.252 A  
HETATM    6  C   UNL     1      -6.066   7.824  65.109  1.00  0.00    -0.038 C  
HETATM    7  C   UNL     1      -9.385  11.421  66.491  1.00  0.00    -0.204 A  
HETATM    8  C   UNL     1      -8.170   8.249  64.080  1.00  0.00    -0.096 A  
HETATM    9  C   UNL     1     -10.929  10.454  64.431  1.00  0.00     1.095 A  
HETATM   10  C   UNL     1      -8.875  10.335  65.717  1.00  0.00    -0.179 A  
HETATM   11  N   UNL     1      -9.363   8.849  63.873  1.00  0.00     0.636 NA 
HETATM   12  C   UNL     1      -7.596   9.681  65.912  1.00  0.00    -0.103 A  
HETATM   13  C   UNL     1      -9.697   9.862  64.667  1.00  0.00    -0.195 A  
HETATM   14  N   UNL     1      -5.129   7.141  65.057  1.00  0.00    -0.027 NA 
HETATM   15  C   UNL     1      -7.257   8.615  65.055  1.00  0.00    -0.084 A  
BRANCH   5  16
HETATM   16  N   UNL     1     -11.098  12.999  67.121  1.00  0.00    -0.265 N  
HETATM   17  C   UNL     1     -10.367  14.162  67.260  1.00  0.00    -0.267 C  
HETATM   18  H   UNL     1     -11.961  12.876  67.649  1.00  0.00     0.000 HD 
HETATM   19  O   UNL     1      -9.291  14.381  66.716  1.00  0.00    -0.246 OA 
BRANCH  17  20
HETATM   20  C   UNL     1     -11.016  15.159  68.154  1.00  0.00    -0.287 C  
HETATM   21  C   UNL     1     -10.886  15.019  69.484  1.00  0.00    -0.272 C  
BRANCH  21  22
HETATM   22  C   UNL     1     -11.400  15.933  70.558  1.00  0.00    -0.390 C  
BRANCH  22  23
HETATM   23  N   UNL     1     -12.669  15.559  71.199  1.00  0.00    -0.435 NA 
HETATM   24  C   UNL     1     -12.853  14.102  71.202  1.00  0.00    -0.360 C  
HETATM   25  C   UNL     1     -12.655  16.033  72.591  1.00  0.00    -0.463 C  
ENDBRANCH  22  23
ENDBRANCH  21  22
ENDBRANCH  17  20
ENDBRANCH   5  16
BRANCH  12  26
HETATM   26  N   UNL     1      -6.751  10.171  66.966  1.00  0.00    -0.077 NA 
HETATM   27  H   UNL     1      -5.912   9.612  67.119  1.00  0.00     0.000 HD 
BRANCH  26  28
HETATM   28  C   UNL     1      -6.868  11.283  67.829  1.00  0.00    -0.074 A  
HETATM   29 CL   UNL     1      -5.160  14.898  68.089  1.00  0.00    -0.109 Cl 
HETATM   30  C   UNL     1      -7.833  11.351  68.840  1.00  0.00    -0.096 A  
HETATM   31  C   UNL     1      -6.215  13.560  68.402  1.00  0.00    -0.093 A  
HETATM   32  C   UNL     1      -8.009  12.518  69.611  1.00  0.00     1.375 A  
HETATM   33  C   UNL     1      -6.035  12.394  67.647  1.00  0.00    -0.128 A  
HETATM   34  C   UNL     1      -7.215  13.643  69.382  1.00  0.00     0.149 A  
BRANCH  34  35
HETATM   35  O   UNL     1      -7.375  14.859  69.991  1.00  0.00    -0.130 OA 
BRANCH  35  36
HETATM   36  C   UNL     1      -6.452  15.907  69.696  1.00  0.00    -0.186 C  
BRANCH  36  37
HETATM   37  C   UNL     1      -7.168  16.992  68.913  1.00  0.00    -0.239 A  
HETATM   38  C   UNL     1      -8.217  16.667  68.052  1.00  0.00    -0.185 A  
HETATM   39  C   UNL     1      -8.850  17.684  67.340  1.00  0.00    -0.235 A  
HETATM   40  C   UNL     1      -8.426  18.997  67.505  1.00  0.00    -0.307 A  
HETATM   41  C   UNL     1      -7.378  19.237  68.375  1.00  0.00    -0.305 A  
HETATM   42  N   UNL     1      -6.735  18.270  69.069  1.00  0.00    -0.257 NA 
ENDBRANCH  36  37
ENDBRANCH  35  36
ENDBRANCH  34  35
ENDBRANCH  26  28
ENDBRANCH  12  26
ENDBRANCH   3   4
ENDBRANCH   2   3
TORSDOF 11
ENDMDL
MODEL      149
REMARK 921   NORMALIZED FREE ENERGY PREDICTED BY IDOCK:    3.81 KCAL/MOL
REMARK 922        TOTAL FREE ENERGY PREDICTED BY IDOCK:    4.51 KCAL/MOL
REMARK 923 INTER-LIGAND FREE ENERGY PREDICTED BY IDOCK:    2.22 KCAL/MOL
REMARK 924 INTRA-LIGAND FREE ENERGY PREDICTED BY IDOCK:    2.29 KCAL/MOL
REMARK 927      BINDING AFFINITY PREDICTED BY RF-SCORE:    0.00 PKD
ROOT
HETATM    1  C   UNL     1      -7.809   8.285  64.612  1.00  0.00    -0.132 C  
HETATM    2  C   UNL     1      -7.504   9.745  64.321  1.00  0.00    -0.132 C  
ENDROOT
BRANCH   2   3
HETATM    3  O   UNL     1      -7.009  10.339  65.512  1.00  0.00    -0.127 OA 
BRANCH   3   4
HETATM    4  C   UNL     1      -7.330   9.818  66.734  1.00  0.00    -0.091 A  
HETATM    5  C   UNL     1      -8.003  10.391  67.814  1.00  0.00    -0.102 A  
HETATM    6  C   UNL     1      -7.305   5.226  71.354  1.00  0.00    -0.086 C  
HETATM    7  C   UNL     1      -8.137   9.667  69.019  1.00  0.00    -0.103 A  
HETATM    8  C   UNL     1      -6.652   5.777  69.132  1.00  0.00    -0.051 A  
HETATM    9  C   UNL     1      -6.851   8.512  66.880  1.00  0.00    -0.069 A  
HETATM   10  C   UNL     1      -7.657   8.330  69.161  1.00  0.00    -0.088 A  
HETATM   11  N   UNL     1      -6.517   6.529  68.018  1.00  0.00    -0.050 NA 
HETATM   12  C   UNL     1      -7.780   7.506  70.347  1.00  0.00    -0.091 A  
HETATM   13  C   UNL     1      -7.003   7.768  68.040  1.00  0.00    -0.080 A  
HETATM   14  N   UNL     1      -7.280   4.377  72.145  1.00  0.00    -0.060 NA 
HETATM   15  C   UNL     1      -7.252   6.200  70.307  1.00  0.00    -0.083 A  
BRANCH   5  16
HETATM   16  N   UNL     1      -8.577  11.674  67.755  1.00  0.00    -0.139 N  
HETATM   17  C   UNL     1      -9.770  11.876  67.089  1.00  0.00    -0.185 C  
HETATM   18  H   UNL     1      -8.109  12.460  68.206  1.00  0.00     0.000 HD 
HETATM   19  O   UNL     1     -10.379  11.013  66.466  1.00  0.00    -0.229 OA 
BRANCH  17  20
HETATM   20  C   UNL     1     -10.271  13.273  67.193  1.00  0.00    -0.246 C  
HETATM   21  C   UNL     1      -9.381  14.277  67.276  1.00  0.00    -0.215 C  
BRANCH  21  22
HETATM   22  C   UNL     1      -9.661  15.751  67.325  1.00  0.00    -0.217 C  
BRANCH  22  23
HETATM   23  N   UNL     1      -8.912  16.602  66.389  1.00  0.00    -0.269 NA 
HETATM   24  C   UNL     1      -9.720  16.931  65.208  1.00  0.00     0.728 C  
HETATM   25  C   UNL     1      -8.548  17.852  67.072  1.00  0.00    -0.237 C  
ENDBRANCH  22  23
ENDBRANCH  21  22
ENDBRANCH  17  20
ENDBRANCH   5  16
BRANCH  12  26
HETATM   26  N   UNL     1      -8.428   8.080  71.493  1.00  0.00    -0.113 NA 
HETATM   27  H   UNL     1      -7.897   7.990  72.359  1.00  0.00     0.000 HD 
BRANCH  26  28
HETATM   28  C   UNL     1      -9.665   8.747  71.643  1.00  0.00    -0.296 A  
HETATM   29 CL   UNL     1     -12.244  10.583  69.186  1.00  0.00    -0.086 Cl 
HETATM   30  C   UNL     1     -10.351   8.793  72.861  1.00  0.00     0.480 A  
HETATM   31  C   UNL     1     -11.556   9.896  70.620  1.00  0.00    -0.335 A  
HETATM   32  C   UNL     1     -11.637   9.361  72.960  1.00  0.00     2.349 A  
HETATM   33  C   UNL     1     -10.272   9.342  70.530  1.00  0.00    -0.332 A  
HETATM   34  C   UNL     1     -12.262   9.897  71.832  1.00  0.00    -0.251 A  
BRANCH  34  35
HETATM   35  O   UNL     1     -13.546  10.368  71.791  1.00  0.00    -0.273 OA 
BRANCH  35  36
HETATM   36  C   UNL     1     -13.859  11.447  70.910  1.00  0.00     1.870 C  
BRANCH  36  37
HETATM   37  C   UNL     1     -13.606  12.761  71.627  1.00  0.00     0.012 A  
HETATM   38  C   UNL     1     -13.330  12.777  72.995  1.00  0.00     1.341 A  
HETATM   39  C   UNL     1     -13.109  13.999  73.628  1.00  0.00     1.186 A  
HETATM   40  C   UNL     1     -13.166  15.171  72.884  1.00  0.00    -0.600 A  
HETATM   41  C   UNL     1     -13.446  15.072  71.533  1.00  0.00    -0.436 A  
HETATM   42  N   UNL     1     -13.679  13.902  70.894  1.00  0.00     0.058 NA 
ENDBRANCH  36  37
ENDBRANCH  35  36
ENDBRANCH  34  35
ENDBRANCH  26  28
ENDBRANCH  12  26
ENDBRANCH   3   4
ENDBRANCH   2   3
TORSDOF 11
ENDMDL
MODEL      150
REMARK 921   NORMALIZED FREE ENERGY PREDICTED BY IDOCK:    4.11 KCAL/MOL
REMARK 922        TOTAL FREE ENERGY PREDICTED BY IDOCK:    4.99 KCAL/MOL
REMARK 923 INTER-LIGAND FREE ENERGY PREDICTED BY IDOCK:    3.83 KCAL/MOL
REMARK 924 INTRA-LIGAND FREE ENERGY PREDICTED BY IDOCK:    1.16 KCAL/MOL
REMARK 927      BINDING AFFINITY PREDICTED BY RF-SCORE:    0.00 PKD
ROOT
HETATM    1  C   UNL     1      -9.573   9.557  71.977  1.00  0.00     1.215 C  
HETATM    2  C   UNL     1      -8.618   8.604  72.677  1.00  0.00    -0.003 C  
ENDROOT
BRANCH   2   3
HETATM    3  O   UNL     1      -7.615   8.221  71.749  1.00  0.00    -0.083 OA 
BRANCH   3   4
HETATM    4  C   UNL     1      -7.800   8.409  70.407  1.00  0.00    -0.090 A  
HETATM    5  C   UNL     1      -7.753   9.574  69.641  1.00  0.00    -0.112 A  
HETATM    6  C   UNL     1      -9.256   6.497  64.353  1.00  0.00     1.335 C  
HETATM    7  C   UNL     1      -8.070   9.522  68.266  1.00  0.00    -0.102 A  
HETATM    8  C   UNL     1      -8.930   5.799  66.605  1.00  0.00    -0.123 A  
HETATM    9  C   UNL     1      -8.119   7.212  69.758  1.00  0.00    -0.129 A  
HETATM   10  C   UNL     1      -8.384   8.296  67.604  1.00  0.00    -0.127 A  
HETATM   11  N   UNL     1      -8.657   5.915  67.924  1.00  0.00    -0.106 NA 
HETATM   12  C   UNL     1      -8.689   8.147  66.195  1.00  0.00    -0.156 A  
HETATM   13  C   UNL     1      -8.398   7.128  68.403  1.00  0.00    -0.125 A  
HETATM   14  N   UNL     1      -9.517   6.110  63.290  1.00  0.00     1.594 NA 
HETATM   15  C   UNL     1      -8.970   6.854  65.709  1.00  0.00    -0.038 A  
BRANCH   5  16
HETATM   16  N   UNL     1      -7.385  10.821  70.180  1.00  0.00    -0.269 N  
HETATM   17  C   UNL     1      -6.085  11.050  70.585  1.00  0.00    -0.033 C  
HETATM   18  H   UNL     1      -8.082  11.559  70.272  1.00  0.00     0.000 HD 
HETATM   19  O   UNL     1      -5.189  10.213  70.572  1.00  0.00    -0.041 OA 
BRANCH  17  20
HETATM   20  C   UNL     1      -5.854  12.443  71.056  1.00  0.00     0.198 C  
HETATM   21  C   UNL     1      -6.882  13.309  71.049  1.00  0.00     2.205 C  
BRANCH  21  22
HETATM   22  C   UNL     1      -6.889  14.730  71.533  1.00  0.00     1.421 C  
BRANCH  22  23
HETATM   23  N   UNL     1      -6.138  15.708  70.734  1.00  0.00     0.154 NA 
HETATM   24  C   UNL     1      -5.159  16.428  71.559  1.00  0.00     0.062 C  
HETATM   25  C   UNL     1      -5.418  14.995  69.668  1.00  0.00    -0.096 C  
ENDBRANCH  22  23
ENDBRANCH  21  22
ENDBRANCH  17  20
ENDBRANCH   5  16
BRANCH  12  26
HETATM   26  N   UNL     1      -8.693   9.334  65.385  1.00  0.00    -0.167 NA 
HETATM   27  H   UNL     1      -8.688   9.151  64.382  1.00  0.00     0.000 HD 
BRANCH  26  28
HETATM   28  C   UNL     1      -8.704  10.706  65.722  1.00  0.00    -0.182 A  
HETATM   29 CL   UNL     1     -11.466  13.607  65.834  1.00  0.00    -0.317 Cl 
HETATM   30  C   UNL     1      -7.587  11.356  66.256  1.00  0.00     0.030 A  
HETATM   31  C   UNL     1      -9.959  12.773  66.023  1.00  0.00    -0.271 A  
HETATM   32  C   UNL     1      -7.654  12.694  66.694  1.00  0.00     0.436 A  
HETATM   33  C   UNL     1      -9.882  11.448  65.576  1.00  0.00    -0.271 A  
HETATM   34  C   UNL     1      -8.850  13.408  66.603  1.00  0.00    -0.060 A  
BRANCH  34  35
HETATM   35  O   UNL     1      -9.058  14.667  67.100  1.00  0.00    -0.202 OA 
BRANCH  35  36
HETATM   36  C   UNL     1      -9.299  15.739  66.188  1.00  0.00    -0.346 C  
BRANCH  36  37
HETATM   37  C   UNL     1      -8.489  16.948  66.619  1.00  0.00    -0.250 A  
HETATM   38  C   UNL     1      -8.951  18.238  66.357  1.00  0.00    -0.257 A  
HETATM   39  C   UNL     1      -8.182  19.328  66.758  1.00  0.00    -0.301 A  
HETATM   40  C   UNL     1      -6.976  19.108  67.411  1.00  0.00    -0.223 A  
HETATM   41  C   UNL     1      -6.586  17.799  67.633  1.00  0.00    -0.182 A  
HETATM   42  N   UNL     1      -7.304  16.721  67.243  1.00  0.00    -0.161 NA 
ENDBRANCH  36  37
ENDBRANCH  35  36
ENDBRANCH  34  35
ENDBRANCH  26  28
ENDBRANCH  12  26
ENDBRANCH   3   4
ENDBRANCH   2   3
TORSDOF 11
ENDMDL
MODEL      151
REMARK 921   NORMALIZED FREE ENERGY PREDICTED BY IDOCK:    4.50 KCAL/MOL
REMARK 922        TOTAL FREE ENERGY PREDICTED BY IDOCK:    5.64 KCAL/MOL
REMARK 923 INTER-LIGAND FREE ENERGY PREDICTED BY IDOCK:    6.09 KCAL/MOL
REMARK 924 INTRA-LIGAND FREE ENERGY PREDICTED BY IDOCK:   -0.44 KCAL/MOL
REMARK 927      BINDING AFFINITY PREDICTED BY RF-SCORE:    0.00 PKD
ROOT
HETATM    1  C   UNL     1      -5.337   3.334  71.454  1.00  0.00    -0.004 C  
HETATM    2  C   UNL     1      -5.156   4.549  70.560  1.00  0.00     0.000 C  
ENDROOT
BRANCH   2   3
HETATM    3  O   UNL     1      -5.745   4.263  69.300  1.00  0.00    -0.016 OA 
BRANCH   3   4
HETATM    4  C   UNL     1      -6.403   5.237  68.603  1.00  0.00    -0.035 A  
HETATM    5  C   UNL     1      -7.468   6.057  68.978  1.00  0.00    -0.086 A  
HETATM    6  C   UNL     1      -7.709   8.820  63.322  1.00  0.00    -0.124 C  
HETATM    7  C   UNL     1      -8.038   6.940  68.037  1.00  0.00    -0.115 A  
HETATM    8  C   UNL     1      -6.312   7.131  64.250  1.00  0.00    -0.040 A  
HETATM    9  C   UNL     1      -5.908   5.364  67.301  1.00  0.00    -0.018 A  
HETATM   10  C   UNL     1      -7.524   7.075  66.712  1.00  0.00    -0.082 A  
HETATM   11  N   UNL     1      -5.832   6.275  65.179  1.00  0.00    -0.025 NA 
HETATM   12  C   UNL     1      -8.026   7.977  65.694  1.00  0.00    -0.114 A  
HETATM   13  C   UNL     1      -6.426   6.250  66.369  1.00  0.00    -0.047 A  
HETATM   14  N   UNL     1      -7.903   9.438  62.359  1.00  0.00    -0.113 NA 
HETATM   15  C   UNL     1      -7.388   7.983  64.437  1.00  0.00    -0.090 A  
BRANCH   5  16
HETATM   16  N   UNL     1      -8.004   6.054  70.280  1.00  0.00    -0.105 N  
HETATM   17  C   UNL     1      -8.787   5.002  70.711  1.00  0.00    -0.131 C  
HETATM   18  H   UNL     1      -7.812   6.834  70.908  1.00  0.00     0.000 HD 
HETATM   19  O   UNL     1      -9.124   4.049  70.016  1.00  0.00    -0.095 OA 
BRANCH  17  20
HETATM   20  C   UNL     1      -9.202   5.124  72.135  1.00  0.00    -0.154 C  
HETATM   21  C   UNL     1      -9.033   6.301  72.761  1.00  0.00    -0.125 C  
BRANCH  21  22
HETATM   22  C   UNL     1      -9.435   6.662  74.162  1.00  0.00    -0.227 C  
BRANCH  22  23
HETATM   23  N   UNL     1     -10.679   7.428  74.320  1.00  0.00     0.433 NA 
HETATM   24  C   UNL     1     -10.446   8.865  74.127  1.00  0.00     6.399 C  
HETATM   25  C   UNL     1     -11.648   6.971  73.313  1.00  0.00     0.369 C  
ENDBRANCH  22  23
ENDBRANCH  21  22
ENDBRANCH  17  20
ENDBRANCH   5  16
BRANCH  12  26
HETATM   26  N   UNL     1      -9.151   8.804  66.033  1.00  0.00    -0.199 NA 
HETATM   27  H   UNL     1      -9.643   9.187  65.225  1.00  0.00     0.000 HD 
BRANCH  26  28
HETATM   28  C   UNL     1      -9.703   9.183  67.277  1.00  0.00    -0.173 A  
HETATM   29 CL   UNL     1      -8.742  11.797  70.157  1.00  0.00     2.797 Cl 
HETATM   30  C   UNL     1     -10.933   8.698  67.732  1.00  0.00     0.080 A  
HETATM   31  C   UNL     1      -9.622  10.614  69.248  1.00  0.00    -0.144 A  
HETATM   32  C   UNL     1     -11.520   9.180  68.920  1.00  0.00     0.523 A  
HETATM   33  C   UNL     1      -9.037  10.122  68.074  1.00  0.00    -0.131 A  
HETATM   34  C   UNL     1     -10.879  10.161  69.677  1.00  0.00    -0.263 A  
BRANCH  34  35
HETATM   35  O   UNL     1     -11.407  10.778  70.779  1.00  0.00    -0.256 OA 
BRANCH  35  36
HETATM   36  C   UNL     1     -12.421  11.767  70.598  1.00  0.00    -0.274 C  
BRANCH  36  37
HETATM   37  C   UNL     1     -11.849  12.923  69.799  1.00  0.00    -0.310 A  
HETATM   38  C   UNL     1     -11.194  13.973  70.445  1.00  0.00     0.136 A  
HETATM   39  C   UNL     1     -10.686  15.025  69.686  1.00  0.00    -0.270 A  
HETATM   40  C   UNL     1     -10.839  15.005  68.305  1.00  0.00    -0.259 A  
HETATM   41  C   UNL     1     -11.502  13.930  67.739  1.00  0.00    -0.323 A  
HETATM   42  N   UNL     1     -12.018  12.902  68.451  1.00  0.00    -0.305 NA 
ENDBRANCH  36  37
ENDBRANCH  35  36
ENDBRANCH  34  35
ENDBRANCH  26  28
ENDBRANCH  12  26
ENDBRANCH   3   4
ENDBRANCH   2   3
TORSDOF 11
ENDMDL
MODEL      152
REMARK 921   NORMALIZED FREE ENERGY PREDICTED BY IDOCK:    5.08 KCAL/MOL
REMARK 922        TOTAL FREE ENERGY PREDICTED BY IDOCK:    6.59 KCAL/MOL
REMARK 923 INTER-LIGAND FREE ENERGY PREDICTED BY IDOCK:    4.07 KCAL/MOL
REMARK 924 INTRA-LIGAND FREE ENERGY PREDICTED BY IDOCK:    2.52 KCAL/MOL
REMARK 927      BINDING AFFINITY PREDICTED BY RF-SCORE:    0.00 PKD
ROOT
HETATM    1  C   UNL     1      -6.641  16.902  66.414  1.00  0.00    -0.121 C  
HETATM    2  C   UNL     1      -6.606  15.467  66.912  1.00  0.00     0.459 C  
ENDROOT
BRANCH   2   3
HETATM    3  O   UNL     1      -7.784  14.814  66.463  1.00  0.00     0.324 OA 
BRANCH   3   4
HETATM    4  C   UNL     1      -8.079  13.547  66.882  1.00  0.00     0.130 A  
HETATM    5  C   UNL     1      -7.803  12.906  68.090  1.00  0.00    -0.147 A  
HETATM    6  C   UNL     1     -10.409   7.508  66.149  1.00  0.00     0.654 C  
HETATM    7  C   UNL     1      -8.140  11.545  68.254  1.00  0.00    -0.148 A  
HETATM    8  C   UNL     1     -10.127   9.640  65.127  1.00  0.00     0.154 A  
HETATM    9  C   UNL     1      -8.732  12.813  65.887  1.00  0.00     0.648 A  
HETATM   10  C   UNL     1      -8.817  10.801  67.240  1.00  0.00    -0.133 A  
HETATM   11  N   UNL     1      -9.746  10.931  65.011  1.00  0.00    -0.246 NA 
HETATM   12  C   UNL     1      -9.228   9.414  67.335  1.00  0.00    -0.126 A  
HETATM   13  C   UNL     1      -9.107  11.487  66.036  1.00  0.00    -0.198 A  
HETATM   14  N   UNL     1     -10.841   6.445  65.974  1.00  0.00     0.715 NA 
HETATM   15  C   UNL     1      -9.895   8.841  66.234  1.00  0.00    -0.342 A  
BRANCH   5  16
HETATM   16  N   UNL     1      -7.204  13.566  69.179  1.00  0.00    -0.284 N  
HETATM   17  C   UNL     1      -7.876  14.576  69.838  1.00  0.00     0.399 C  
HETATM   18  H   UNL     1      -6.268  13.297  69.482  1.00  0.00     0.000 HD 
HETATM   19  O   UNL     1      -8.975  15.013  69.516  1.00  0.00    -0.162 OA 
BRANCH  17  20
HETATM   20  C   UNL     1      -7.130  15.109  71.011  1.00  0.00     1.243 C  
HETATM   21  C   UNL     1      -6.066  14.427  71.467  1.00  0.00     0.087 C  
BRANCH  21  22
HETATM   22  C   UNL     1      -5.141  14.810  72.586  1.00  0.00    -0.160 C  
BRANCH  22  23
HETATM   23  N   UNL     1      -5.393  14.194  73.896  1.00  0.00    -0.362 NA 
HETATM   24  C   UNL     1      -6.723  14.555  74.405  1.00  0.00     2.492 C  
HETATM   25  C   UNL     1      -5.327  12.732  73.754  1.00  0.00     0.511 C  
ENDBRANCH  22  23
ENDBRANCH  21  22
ENDBRANCH  17  20
ENDBRANCH   5  16
BRANCH  12  26
HETATM   26  N   UNL     1      -8.918   8.710  68.549  1.00  0.00    -0.139 NA 
HETATM   27  H   UNL     1      -8.947   9.293  69.386  1.00  0.00     0.000 HD 
BRANCH  26  28
HETATM   28  C   UNL     1      -8.582   7.361  68.798  1.00  0.00    -0.129 A  
HETATM   29 CL   UNL     1      -9.397   4.688  71.670  1.00  0.00    -0.182 Cl 
HETATM   30  C   UNL     1      -7.876   6.581  67.876  1.00  0.00    -0.108 A  
HETATM   31  C   UNL     1      -8.805   5.375  70.194  1.00  0.00    -0.127 A  
HETATM   32  C   UNL     1      -7.654   5.206  68.093  1.00  0.00    -0.080 A  
HETATM   33  C   UNL     1      -9.011   6.745  69.980  1.00  0.00    -0.141 A  
HETATM   34  C   UNL     1      -8.139   4.585  69.245  1.00  0.00    -0.068 A  
BRANCH  34  35
HETATM   35  O   UNL     1      -8.080   3.242  69.502  1.00  0.00    -0.049 OA 
BRANCH  35  36
HETATM   36  C   UNL     1      -7.007   2.479  68.950  1.00  0.00    -0.044 C  
BRANCH  36  37
HETATM   37  C   UNL     1      -6.762   2.929  67.521  1.00  0.00    -0.041 A  
HETATM   38  C   UNL     1      -7.711   2.680  66.529  1.00  0.00    -0.076 A  
HETATM   39  C   UNL     1      -7.455   3.099  65.225  1.00  0.00    -0.076 A  
HETATM   40  C   UNL     1      -6.265   3.756  64.942  1.00  0.00    -0.024 A  
HETATM   41  C   UNL     1      -5.374   3.964  65.979  1.00  0.00    -0.009 A  
HETATM   42  N   UNL     1      -5.588   3.557  67.252  1.00  0.00    -0.021 NA 
ENDBRANCH  36  37
ENDBRANCH  35  36
ENDBRANCH  34  35
ENDBRANCH  26  28
ENDBRANCH  12  26
ENDBRANCH   3   4
ENDBRANCH   2   3
TORSDOF 11
ENDMDL
MODEL      153
REMARK 921   NORMALIZED FREE ENERGY PREDICTED BY IDOCK:    5.21 KCAL/MOL
REMARK 922        TOTAL FREE ENERGY PREDICTED BY IDOCK:    6.81 KCAL/MOL
REMARK 923 INTER-LIGAND FREE ENERGY PREDICTED BY IDOCK:    4.38 KCAL/MOL
REMARK 924 INTRA-LIGAND FREE ENERGY PREDICTED BY IDOCK:    2.42 KCAL/MOL
REMARK 927      BINDING AFFINITY PREDICTED BY RF-SCORE:    0.00 PKD
ROOT
HETATM    1  C   UNL     1      -9.650   7.977  65.174  1.00  0.00     1.095 C  
HETATM    2  C   UNL     1     -10.885   8.784  64.810  1.00  0.00     6.450 C  
ENDROOT
BRANCH   2   3
HETATM    3  O   UNL     1     -11.096   9.753  65.827  1.00  0.00     0.736 OA 
BRANCH   3   4
HETATM    4  C   UNL     1     -10.101  10.058  66.713  1.00  0.00    -0.226 A  
HETATM    5  C   UNL     1      -9.471   9.268  67.675  1.00  0.00    -0.132 A  
HETATM    6  C   UNL     1      -5.896  14.052  69.678  1.00  0.00    -0.109 C  
HETATM    7  C   UNL     1      -8.518   9.845  68.541  1.00  0.00    -0.112 A  
HETATM    8  C   UNL     1      -7.549  13.857  67.977  1.00  0.00    -0.144 A  
HETATM    9  C   UNL     1      -9.719  11.400  66.617  1.00  0.00    -0.224 A  
HETATM   10  C   UNL     1      -8.121  11.212  68.433  1.00  0.00    -0.141 A  
HETATM   11  N   UNL     1      -8.483  13.262  67.202  1.00  0.00    -0.198 NA 
HETATM   12  C   UNL     1      -7.130  11.876  69.257  1.00  0.00    -0.004 A  
HETATM   13  C   UNL     1      -8.759  11.981  67.431  1.00  0.00    -0.170 A  
HETATM   14  N   UNL     1      -5.159  14.799  70.175  1.00  0.00    -0.091 NA 
HETATM   15  C   UNL     1      -6.858  13.236  69.004  1.00  0.00    -0.096 A  
BRANCH   5  16
HETATM   16  N   UNL     1      -9.736   7.893  67.817  1.00  0.00    -0.150 N  
HETATM   17  C   UNL     1      -8.759   6.960  67.531  1.00  0.00    -0.120 C  
HETATM   18  H   UNL     1     -10.655   7.584  68.133  1.00  0.00     0.000 HD 
HETATM   19  O   UNL     1      -7.646   7.224  67.090  1.00  0.00    -0.099 OA 
BRANCH  17  20
HETATM   20  C   UNL     1      -9.183   5.561  67.812  1.00  0.00    -0.110 C  
HETATM   21  C   UNL     1      -8.428   4.550  67.350  1.00  0.00    -0.104 C  
BRANCH  21  22
HETATM   22  C   UNL     1      -8.632   3.078  67.567  1.00  0.00    -0.103 C  
BRANCH  22  23
HETATM   23  N   UNL     1      -7.524   2.338  68.188  1.00  0.00    -0.054 NA 
HETATM   24  C   UNL     1      -6.372   3.214  68.434  1.00  0.00    -0.032 C  
HETATM   25  C   UNL     1      -7.982   1.793  69.475  1.00  0.00    -0.041 C  
ENDBRANCH  22  23
ENDBRANCH  21  22
ENDBRANCH  17  20
ENDBRANCH   5  16
BRANCH  12  26
HETATM   26  N   UNL     1      -6.494  11.103  70.287  1.00  0.00    -0.373 NA 
HETATM   27  H   UNL     1      -6.010  11.664  70.988  1.00  0.00     0.000 HD 
BRANCH  26  28
HETATM   28  C   UNL     1      -6.416   9.710  70.509  1.00  0.00    -0.095 A  
HETATM   29 CL   UNL     1      -7.630   7.194  73.381  1.00  0.00    -0.090 Cl 
HETATM   30  C   UNL     1      -5.905   8.825  69.553  1.00  0.00    -0.033 A  
HETATM   31  C   UNL     1      -6.968   7.780  71.892  1.00  0.00    -0.066 A  
HETATM   32  C   UNL     1      -5.945   7.429  69.747  1.00  0.00    -0.024 A  
HETATM   33  C   UNL     1      -6.914   9.167  71.700  1.00  0.00     0.050 A  
HETATM   34  C   UNL     1      -6.500   6.893  70.911  1.00  0.00    -0.048 A  
BRANCH  34  35
HETATM   35  O   UNL     1      -6.693   5.560  71.151  1.00  0.00    -0.048 OA 
BRANCH  35  36
HETATM   36  C   UNL     1      -8.010   5.020  71.040  1.00  0.00    -0.093 C  
BRANCH  36  37
HETATM   37  C   UNL     1      -8.282   4.127  72.237  1.00  0.00    -0.098 A  
HETATM   38  C   UNL     1      -9.586   3.741  72.549  1.00  0.00    -0.190 A  
HETATM   39  C   UNL     1      -9.805   2.928  73.658  1.00  0.00    -0.151 A  
HETATM   40  C   UNL     1      -8.723   2.518  74.428  1.00  0.00    -0.073 A  
HETATM   41  C   UNL     1      -7.462   2.945  74.055  1.00  0.00    -0.047 A  
HETATM   42  N   UNL     1      -7.219   3.745  72.992  1.00  0.00    -0.057 NA 
ENDBRANCH  36  37
ENDBRANCH  35  36
ENDBRANCH  34  35
ENDBRANCH  26  28
ENDBRANCH  12  26
ENDBRANCH   3   4
ENDBRANCH   2   3
TORSDOF 11
ENDMDL
MODEL      154
REMARK 921   NORMALIZED FREE ENERGY PREDICTED BY IDOCK:    5.36 KCAL/MOL
REMARK 922        TOTAL FREE ENERGY PREDICTED BY IDOCK:    7.05 KCAL/MOL
REMARK 923 INTER-LIGAND FREE ENERGY PREDICTED BY IDOCK:    5.64 KCAL/MOL
REMARK 924 INTRA-LIGAND FREE ENERGY PREDICTED BY IDOCK:    1.41 KCAL/MOL
REMARK 927      BINDING AFFINITY PREDICTED BY RF-SCORE:    0.00 PKD
ROOT
HETATM    1  C   UNL     1      -6.639  16.902  66.416  1.00  0.00    -0.121 C  
HETATM    2  C   UNL     1      -6.635  15.463  66.903  1.00  0.00     0.576 C  
ENDROOT
BRANCH   2   3
HETATM    3  O   UNL     1      -7.824  14.837  66.444  1.00  0.00     0.451 OA 
BRANCH   3   4
HETATM    4  C   UNL     1      -8.147  13.573  66.851  1.00  0.00     0.130 A  
HETATM    5  C   UNL     1      -7.882  12.914  68.052  1.00  0.00    -0.149 A  
HETATM    6  C   UNL     1     -10.617   7.598  66.066  1.00  0.00     1.555 C  
HETATM    7  C   UNL     1      -8.250  11.559  68.203  1.00  0.00    -0.149 A  
HETATM    8  C   UNL     1     -10.289   9.732  65.064  1.00  0.00     0.525 A  
HETATM    9  C   UNL     1      -8.820  12.865  65.851  1.00  0.00     0.539 A  
HETATM   10  C   UNL     1      -8.946  10.842  67.184  1.00  0.00    -0.145 A  
HETATM   11  N   UNL     1      -9.879  11.015  64.959  1.00  0.00    -0.249 NA 
HETATM   12  C   UNL     1      -9.389   9.464  67.267  1.00  0.00    -0.131 A  
HETATM   13  C   UNL     1      -9.225  11.546  65.989  1.00  0.00    -0.217 A  
HETATM   14  N   UNL     1     -11.075   6.546  65.882  1.00  0.00     1.564 NA 
HETATM   15  C   UNL     1     -10.073   8.917  66.163  1.00  0.00    -0.209 A  
BRANCH   5  16
HETATM   16  N   UNL     1      -7.265  13.550  69.145  1.00  0.00    -0.284 N  
HETATM   17  C   UNL     1      -7.913  14.566  69.819  1.00  0.00     0.335 C  
HETATM   18  H   UNL     1      -6.334  13.258  69.441  1.00  0.00     0.000 HD 
HETATM   19  O   UNL     1      -9.004  15.029  69.506  1.00  0.00    -0.162 OA 
BRANCH  17  20
HETATM   20  C   UNL     1      -7.151  15.070  70.994  1.00  0.00     1.157 C  
HETATM   21  C   UNL     1      -6.097  14.363  71.435  1.00  0.00     0.038 C  
BRANCH  21  22
HETATM   22  C   UNL     1      -5.159  14.714  72.554  1.00  0.00    -0.186 C  
BRANCH  22  23
HETATM   23  N   UNL     1      -5.415  14.085  73.858  1.00  0.00    -0.484 NA 
HETATM   24  C   UNL     1      -6.736  14.462  74.379  1.00  0.00     2.267 C  
HETATM   25  C   UNL     1      -5.375  12.624  73.695  1.00  0.00     0.615 C  
ENDBRANCH  22  23
ENDBRANCH  21  22
ENDBRANCH  17  20
ENDBRANCH   5  16
BRANCH  12  26
HETATM   26  N   UNL     1      -9.092   8.741  68.473  1.00  0.00    -0.138 NA 
HETATM   27  H   UNL     1      -9.105   9.316  69.315  1.00  0.00     0.000 HD 
BRANCH  26  28
HETATM   28  C   UNL     1      -8.785   7.382  68.707  1.00  0.00    -0.128 A  
HETATM   29 CL   UNL     1      -5.933   4.840  67.498  1.00  0.00    -0.022 Cl 
HETATM   30  C   UNL     1      -9.487   6.602  69.632  1.00  0.00    -0.144 A  
HETATM   31  C   UNL     1      -7.299   5.484  68.348  1.00  0.00    -0.076 A  
HETATM   32  C   UNL     1      -9.090   5.284  69.935  1.00  0.00    -0.165 A  
HETATM   33  C   UNL     1      -7.706   6.789  68.040  1.00  0.00    -0.112 A  
HETATM   34  C   UNL     1      -7.975   4.721  69.312  1.00  0.00    -0.070 A  
BRANCH  34  35
HETATM   35  O   UNL     1      -7.436   3.499  69.612  1.00  0.00    -0.045 OA 
BRANCH  35  36
HETATM   36  C   UNL     1      -8.132   2.640  70.515  1.00  0.00    -0.041 C  
BRANCH  36  37
HETATM   37  C   UNL     1      -8.516   3.429  71.753  1.00  0.00    -0.069 A  
HETATM   38  C   UNL     1      -7.535   3.886  72.633  1.00  0.00    -0.064 A  
HETATM   39  C   UNL     1      -7.919   4.602  73.765  1.00  0.00    -0.105 A  
HETATM   40  C   UNL     1      -9.267   4.846  73.992  1.00  0.00    -0.114 A  
HETATM   41  C   UNL     1     -10.180   4.358  73.074  1.00  0.00    -0.168 A  
HETATM   42  N   UNL     1      -9.839   3.649  71.974  1.00  0.00    -0.167 NA 
ENDBRANCH  36  37
ENDBRANCH  35  36
ENDBRANCH  34  35
ENDBRANCH  26  28
ENDBRANCH  12  26
ENDBRANCH   3   4
ENDBRANCH   2   3
TORSDOF 11
ENDMDL
MODEL      155
REMARK 921   NORMALIZED FREE ENERGY PREDICTED BY IDOCK:    5.47 KCAL/MOL
REMARK 922        TOTAL FREE ENERGY PREDICTED BY IDOCK:    7.24 KCAL/MOL
REMARK 923 INTER-LIGAND FREE ENERGY PREDICTED BY IDOCK:   -0.79 KCAL/MOL
REMARK 924 INTRA-LIGAND FREE ENERGY PREDICTED BY IDOCK:    8.03 KCAL/MOL
REMARK 927      BINDING AFFINITY PREDICTED BY RF-SCORE:    0.00 PKD
ROOT
HETATM    1  C   UNL     1     -11.824   4.992  65.721  1.00  0.00     2.113 C  
HETATM    2  C   UNL     1     -10.995   6.259  65.596  1.00  0.00     2.230 C  
ENDROOT
BRANCH   2   3
HETATM    3  O   UNL     1     -11.175   7.024  66.779  1.00  0.00    -0.229 OA 
BRANCH   3   4
HETATM    4  C   UNL     1     -10.402   8.125  67.019  1.00  0.00    -0.333 A  
HETATM    5  C   UNL     1      -9.263   8.275  67.812  1.00  0.00    -0.134 A  
HETATM    6  C   UNL     1      -8.851  14.434  66.551  1.00  0.00    -0.089 C  
HETATM    7  C   UNL     1      -8.684   9.552  67.971  1.00  0.00    -0.120 A  
HETATM    8  C   UNL     1     -10.362  12.729  65.861  1.00  0.00    -0.283 A  
HETATM    9  C   UNL     1     -10.899   9.257  66.368  1.00  0.00     0.319 A  
HETATM   10  C   UNL     1      -9.188  10.705  67.296  1.00  0.00    -0.155 A  
HETATM   11  N   UNL     1     -10.898  11.491  65.777  1.00  0.00    -0.279 NA 
HETATM   12  C   UNL     1      -8.637  12.044  67.376  1.00  0.00    -0.171 A  
HETATM   13  C   UNL     1     -10.327  10.516  66.478  1.00  0.00    -0.233 A  
HETATM   14  N   UNL     1      -8.611  15.563  66.435  1.00  0.00    -0.295 NA 
HETATM   15  C   UNL     1      -9.262  13.066  66.633  1.00  0.00    -0.222 A  
BRANCH   5  16
HETATM   16  N   UNL     1      -8.645   7.191  68.463  1.00  0.00    -0.124 N  
HETATM   17  C   UNL     1      -9.262   6.575  69.534  1.00  0.00    -0.142 C  
HETATM   18  H   UNL     1      -7.736   6.859  68.142  1.00  0.00     0.000 HD 
HETATM   19  O   UNL     1     -10.323   6.935  70.032  1.00  0.00    -0.193 OA 
BRANCH  17  20
HETATM   20  C   UNL     1      -8.507   5.401  70.050  1.00  0.00    -0.111 C  
HETATM   21  C   UNL     1      -8.457   5.194  71.377  1.00  0.00    -0.124 C  
BRANCH  21  22
HETATM   22  C   UNL     1      -7.812   4.051  72.105  1.00  0.00    -0.080 C  
BRANCH  22  23
HETATM   23  N   UNL     1      -8.512   3.539  73.292  1.00  0.00    -0.082 NA 
HETATM   24  C   UNL     1      -9.517   4.497  73.770  1.00  0.00    -0.119 C  
HETATM   25  C   UNL     1      -9.192   2.284  72.937  1.00  0.00    -0.077 C  
ENDBRANCH  22  23
ENDBRANCH  21  22
ENDBRANCH  17  20
ENDBRANCH   5  16
BRANCH  12  26
HETATM   26  N   UNL     1      -7.491  12.244  68.219  1.00  0.00    -0.110 NA 
HETATM   27  H   UNL     1      -6.876  11.432  68.282  1.00  0.00     0.000 HD 
BRANCH  26  28
HETATM   28  C   UNL     1      -7.059  13.355  68.977  1.00  0.00    -0.053 A  
HETATM   29 CL   UNL     1      -5.413  13.892  72.591  1.00  0.00    -0.187 Cl 
HETATM   30  C   UNL     1      -7.040  14.654  68.460  1.00  0.00    -0.112 A  
HETATM   31  C   UNL     1      -6.019  14.225  71.002  1.00  0.00    -0.181 A  
HETATM   32  C   UNL     1      -6.495  15.729  69.192  1.00  0.00    -0.143 A  
HETATM   33  C   UNL     1      -6.574  13.163  70.277  1.00  0.00     0.366 A  
HETATM   34  C   UNL     1      -5.957  15.518  70.462  1.00  0.00    -0.004 A  
BRANCH  34  35
HETATM   35  O   UNL     1      -5.304  16.462  71.209  1.00  0.00    -0.085 OA 
BRANCH  35  36
HETATM   36  C   UNL     1      -5.420  17.836  70.841  1.00  0.00    -0.102 C  
BRANCH  36  37
HETATM   37  C   UNL     1      -5.761  17.927  69.365  1.00  0.00    -0.221 A  
HETATM   38  C   UNL     1      -6.699  18.855  68.912  1.00  0.00    -0.312 A  
HETATM   39  C   UNL     1      -6.997  18.910  67.552  1.00  0.00    -0.214 A  
HETATM   40  C   UNL     1      -6.352  18.044  66.678  1.00  0.00    -0.228 A  
HETATM   41  C   UNL     1      -5.436  17.151  67.205  1.00  0.00    -0.154 A  
HETATM   42  N   UNL     1      -5.137  17.065  68.521  1.00  0.00    -0.118 NA 
ENDBRANCH  36  37
ENDBRANCH  35  36
ENDBRANCH  34  35
ENDBRANCH  26  28
ENDBRANCH  12  26
ENDBRANCH   3   4
ENDBRANCH   2   3
TORSDOF 11
ENDMDL
MODEL      156
REMARK 921   NORMALIZED FREE ENERGY PREDICTED BY IDOCK:    8.86 KCAL/MOL
REMARK 922        TOTAL FREE ENERGY PREDICTED BY IDOCK:   12.80 KCAL/MOL
REMARK 923 INTER-LIGAND FREE ENERGY PREDICTED BY IDOCK:    3.13 KCAL/MOL
REMARK 924 INTRA-LIGAND FREE ENERGY PREDICTED BY IDOCK:    9.67 KCAL/MOL
REMARK 927      BINDING AFFINITY PREDICTED BY RF-SCORE:    0.00 PKD
ROOT
HETATM    1  C   UNL     1      -7.360   8.982  65.712  1.00  0.00    -0.089 C  
HETATM    2  C   UNL     1      -6.298  10.062  65.827  1.00  0.00    -0.094 C  
ENDROOT
BRANCH   2   3
HETATM    3  O   UNL     1      -6.179  10.423  67.195  1.00  0.00    -0.059 OA 
BRANCH   3   4
HETATM    4  C   UNL     1      -7.126  10.034  68.101  1.00  0.00    -0.080 A  
HETATM    5  C   UNL     1      -8.011  10.794  68.867  1.00  0.00    -0.143 A  
HETATM    6  C   UNL     1     -10.371   5.694  71.715  1.00  0.00    -0.215 C  
HETATM    7  C   UNL     1      -8.847  10.157  69.810  1.00  0.00    -0.152 A  
HETATM    8  C   UNL     1      -8.699   6.000  70.048  1.00  0.00    -0.135 A  
HETATM    9  C   UNL     1      -7.140   8.647  68.270  1.00  0.00    -0.078 A  
HETATM   10  C   UNL     1      -8.866   8.738  69.973  1.00  0.00    -0.149 A  
HETATM   11  N   UNL     1      -7.894   6.666  69.191  1.00  0.00    -0.109 NA 
HETATM   12  C   UNL     1      -9.712   8.000  70.890  1.00  0.00    -0.164 A  
HETATM   13  C   UNL     1      -7.977   7.993  69.162  1.00  0.00    -0.114 A  
HETATM   14  N   UNL     1     -10.925   4.884  72.335  1.00  0.00    -0.141 NA 
HETATM   15  C   UNL     1      -9.603   6.596  70.912  1.00  0.00    -0.183 A  
BRANCH   5  16
HETATM   16  N   UNL     1      -8.122  12.191  68.734  1.00  0.00    -0.332 N  
HETATM   17  C   UNL     1      -7.001  12.961  68.494  1.00  0.00    -0.098 C  
HETATM   18  H   UNL     1      -9.036  12.636  68.816  1.00  0.00     0.000 HD 
HETATM   19  O   UNL     1      -5.855  12.530  68.438  1.00  0.00    -0.053 OA 
BRANCH  17  20
HETATM   20  C   UNL     1      -7.311  14.404  68.302  1.00  0.00    -0.122 C  
HETATM   21  C   UNL     1      -8.476  14.746  67.726  1.00  0.00    -0.169 C  
BRANCH  21  22
HETATM   22  C   UNL     1      -9.014  16.128  67.494  1.00  0.00    -0.191 C  
BRANCH  22  23
HETATM   23  N   UNL     1     -10.433  16.236  67.126  1.00  0.00    -0.298 NA 
HETATM   24  C   UNL     1     -11.166  17.080  68.078  1.00  0.00    -0.016 C  
HETATM   25  C   UNL     1     -10.531  16.842  65.789  1.00  0.00    -0.292 C  
ENDBRANCH  22  23
ENDBRANCH  21  22
ENDBRANCH  17  20
ENDBRANCH   5  16
BRANCH  12  26
HETATM   26  N   UNL     1     -10.604   8.755  71.727  1.00  0.00    -0.320 NA 
HETATM   27  H   UNL     1     -10.687   8.393  72.677  1.00  0.00     0.000 HD 
BRANCH  26  28
HETATM   28  C   UNL     1     -11.385   9.906  71.478  1.00  0.00    -0.176 A  
HETATM   29 CL   UNL     1     -10.634  13.732  70.554  1.00  0.00     1.355 Cl 
HETATM   30  C   UNL     1     -12.780   9.863  71.401  1.00  0.00    -0.503 A  
HETATM   31  C   UNL     1     -11.497  12.261  70.861  1.00  0.00     1.344 A  
HETATM   32  C   UNL     1     -13.532  10.998  71.035  1.00  0.00     0.303 A  
HETATM   33  C   UNL     1     -10.756  11.134  71.239  1.00  0.00     3.211 A  
HETATM   34  C   UNL     1     -12.893  12.203  70.738  1.00  0.00    -0.024 A  
BRANCH  34  35
HETATM   35  O   UNL     1     -13.512  13.329  70.265  1.00  0.00     0.659 OA 
BRANCH  35  36
HETATM   36  C   UNL     1     -12.726  14.328  69.615  1.00  0.00     0.110 C  
BRANCH  36  37
HETATM   37  C   UNL     1     -12.195  15.296  70.657  1.00  0.00    -0.364 A  
HETATM   38  C   UNL     1     -12.658  15.242  71.972  1.00  0.00    -0.429 A  
HETATM   39  C   UNL     1     -12.158  16.148  72.905  1.00  0.00    -0.643 A  
HETATM   40  C   UNL     1     -11.209  17.081  72.507  1.00  0.00     1.247 A  
HETATM   41  C   UNL     1     -10.802  17.072  71.185  1.00  0.00     1.217 A  
HETATM   42  N   UNL     1     -11.279  16.214  70.254  1.00  0.00    -0.377 NA 
ENDBRANCH  36  37
ENDBRANCH  35  36
ENDBRANCH  34  35
ENDBRANCH  26  28
ENDBRANCH  12  26
ENDBRANCH   3   4
ENDBRANCH   2   3
TORSDOF 11
ENDMDL
MODEL      157
REMARK 921   NORMALIZED FREE ENERGY PREDICTED BY IDOCK:   10.34 KCAL/MOL
REMARK 922        TOTAL FREE ENERGY PREDICTED BY IDOCK:   15.23 KCAL/MOL
REMARK 923 INTER-LIGAND FREE ENERGY PREDICTED BY IDOCK:    5.63 KCAL/MOL
REMARK 924 INTRA-LIGAND FREE ENERGY PREDICTED BY IDOCK:    9.60 KCAL/MOL
REMARK 927      BINDING AFFINITY PREDICTED BY RF-SCORE:    0.00 PKD
ROOT
HETATM    1  C   UNL     1     -12.629  17.821  72.201  1.00  0.00     7.260 C  
HETATM    2  C   UNL     1     -12.805  16.841  73.348  1.00  0.00     0.386 C  
ENDROOT
BRANCH   2   3
HETATM    3  O   UNL     1     -12.891  15.532  72.803  1.00  0.00    -0.359 OA 
BRANCH   3   4
HETATM    4  C   UNL     1     -12.070  15.150  71.780  1.00  0.00    -0.370 A  
HETATM    5  C   UNL     1     -11.812  13.884  71.252  1.00  0.00     0.136 A  
HETATM    6  C   UNL     1      -7.626  16.148  67.124  1.00  0.00    -0.202 C  
HETATM    7  C   UNL     1     -10.843  13.733  70.236  1.00  0.00     0.726 A  
HETATM    8  C   UNL     1      -8.988  17.170  68.787  1.00  0.00    -0.233 A  
HETATM    9  C   UNL     1     -11.380  16.238  71.238  1.00  0.00    -0.272 A  
HETATM   10  C   UNL     1     -10.148  14.848  69.677  1.00  0.00    -0.070 A  
HETATM   11  N   UNL     1      -9.896  17.251  69.785  1.00  0.00     0.316 NA 
HETATM   12  C   UNL     1      -9.165  14.788  68.613  1.00  0.00    -0.194 A  
HETATM   13  C   UNL     1     -10.451  16.121  70.215  1.00  0.00    -0.046 A  
HETATM   14  N   UNL     1      -6.837  16.374  66.303  1.00  0.00     0.023 NA 
HETATM   15  C   UNL     1      -8.581  15.995  68.178  1.00  0.00    -0.171 A  
BRANCH   5  16
HETATM   16  N   UNL     1     -12.493  12.730  71.682  1.00  0.00    -0.093 N  
HETATM   17  C   UNL     1     -12.381  11.549  70.976  1.00  0.00    -0.329 C  
HETATM   18  H   UNL     1     -13.073  12.767  72.520  1.00  0.00     0.000 HD 
HETATM   19  O   UNL     1     -11.759  11.416  69.927  1.00  0.00    -0.294 OA 
BRANCH  17  20
HETATM   20  C   UNL     1     -13.101  10.413  71.613  1.00  0.00    -0.553 C  
HETATM   21  C   UNL     1     -12.388   9.469  72.252  1.00  0.00    -0.235 C  
BRANCH  21  22
HETATM   22  C   UNL     1     -12.908   8.282  73.010  1.00  0.00     0.542 C  
BRANCH  22  23
HETATM   23  N   UNL     1     -13.345   7.126  72.215  1.00  0.00     0.081 NA 
HETATM   24  C   UNL     1     -13.142   7.360  70.780  1.00  0.00     0.134 C  
HETATM   25  C   UNL     1     -12.556   5.951  72.614  1.00  0.00     0.379 C  
ENDBRANCH  22  23
ENDBRANCH  21  22
ENDBRANCH  17  20
ENDBRANCH   5  16
BRANCH  12  26
HETATM   26  N   UNL     1      -8.841  13.495  68.077  1.00  0.00    -0.174 NA 
HETATM   27  H   UNL     1      -8.063  13.501  67.418  1.00  0.00     0.000 HD 
BRANCH  26  28
HETATM   28  C   UNL     1      -9.402  12.216  68.294  1.00  0.00    -0.198 A  
HETATM   29 CL   UNL     1     -10.763   9.253  65.965  1.00  0.00     0.375 Cl 
HETATM   30  C   UNL     1      -9.494  11.643  69.566  1.00  0.00     0.888 A  
HETATM   31  C   UNL     1     -10.275  10.134  67.374  1.00  0.00    -0.218 A  
HETATM   32  C   UNL     1      -9.948  10.320  69.746  1.00  0.00    -0.222 A  
HETATM   33  C   UNL     1      -9.836  11.454  67.202  1.00  0.00    -0.212 A  
HETATM   34  C   UNL     1     -10.320   9.545  68.646  1.00  0.00    -0.205 A  
BRANCH  34  35
HETATM   35  O   UNL     1     -10.664   8.221  68.695  1.00  0.00    -0.150 OA 
BRANCH  35  36
HETATM   36  C   UNL     1     -10.332   7.379  67.591  1.00  0.00    -0.231 C  
BRANCH  36  37
HETATM   37  C   UNL     1      -9.156   6.499  67.975  1.00  0.00    -0.114 A  
HETATM   38  C   UNL     1      -9.291   5.539  68.979  1.00  0.00    -0.152 A  
HETATM   39  C   UNL     1      -8.193   4.751  69.316  1.00  0.00    -0.077 A  
HETATM   40  C   UNL     1      -6.990   4.937  68.645  1.00  0.00    -0.053 A  
HETATM   41  C   UNL     1      -6.936   5.910  67.664  1.00  0.00    -0.069 A  
HETATM   42  N   UNL     1      -7.981   6.699  67.324  1.00  0.00    -0.115 NA 
ENDBRANCH  36  37
ENDBRANCH  35  36
ENDBRANCH  34  35
ENDBRANCH  26  28
ENDBRANCH  12  26
ENDBRANCH   3   4
ENDBRANCH   2   3
TORSDOF 11
ENDMDL
MODEL      158
REMARK 921   NORMALIZED FREE ENERGY PREDICTED BY IDOCK:   10.69 KCAL/MOL
REMARK 922        TOTAL FREE ENERGY PREDICTED BY IDOCK:   15.81 KCAL/MOL
REMARK 923 INTER-LIGAND FREE ENERGY PREDICTED BY IDOCK:   17.48 KCAL/MOL
REMARK 924 INTRA-LIGAND FREE ENERGY PREDICTED BY IDOCK:   -1.67 KCAL/MOL
REMARK 927      BINDING AFFINITY PREDICTED BY RF-SCORE:    0.00 PKD
ROOT
HETATM    1  C   UNL     1      -9.224   4.424  71.090  1.00  0.00    -0.199 C  
HETATM    2  C   UNL     1      -8.779   5.535  72.026  1.00  0.00    -0.131 C  
ENDROOT
BRANCH   2   3
HETATM    3  O   UNL     1      -9.390   6.744  71.599  1.00  0.00    -0.152 OA 
BRANCH   3   4
HETATM    4  C   UNL     1      -8.665   7.900  71.519  1.00  0.00    -0.125 A  
HETATM    5  C   UNL     1      -8.057   8.513  70.423  1.00  0.00    -0.108 A  
HETATM    6  C   UNL     1      -5.704  13.160  73.967  1.00  0.00     0.645 C  
HETATM    7  C   UNL     1      -7.279   9.675  70.613  1.00  0.00    -0.114 A  
HETATM    8  C   UNL     1      -7.053  11.262  74.459  1.00  0.00     5.377 A  
HETATM    9  C   UNL     1      -8.512   8.501  72.772  1.00  0.00    -0.157 A  
HETATM   10  C   UNL     1      -7.134  10.293  71.892  1.00  0.00     2.481 A  
HETATM   11  N   UNL     1      -7.752  10.129  74.225  1.00  0.00     3.305 NA 
HETATM   12  C   UNL     1      -6.383  11.501  72.172  1.00  0.00     3.487 A  
HETATM   13  C   UNL     1      -7.784   9.662  72.980  1.00  0.00     2.723 A  
HETATM   14  N   UNL     1      -5.195  14.087  74.447  1.00  0.00    -0.065 NA 
HETATM   15  C   UNL     1      -6.354  11.974  73.499  1.00  0.00     4.432 A  
BRANCH   5  16
HETATM   16  N   UNL     1      -8.196   8.027  69.110  1.00  0.00    -0.128 N  
HETATM   17  C   UNL     1      -9.363   8.243  68.404  1.00  0.00    -0.135 C  
HETATM   18  H   UNL     1      -7.430   7.511  68.677  1.00  0.00     0.000 HD 
HETATM   19  O   UNL     1     -10.360   8.797  68.854  1.00  0.00    -0.207 OA 
BRANCH  17  20
HETATM   20  C   UNL     1      -9.308   7.732  67.008  1.00  0.00    -0.196 C  
HETATM   21  C   UNL     1      -8.425   6.764  66.706  1.00  0.00    -0.117 C  
BRANCH  21  22
HETATM   22  C   UNL     1      -8.244   6.065  65.390  1.00  0.00    -0.141 C  
BRANCH  22  23
HETATM   23  N   UNL     1      -7.266   6.646  64.458  1.00  0.00    -0.064 NA 
HETATM   24  C   UNL     1      -6.075   5.795  64.340  1.00  0.00    -0.025 C  
HETATM   25  C   UNL     1      -7.889   6.767  63.132  1.00  0.00    -0.105 C  
ENDBRANCH  22  23
ENDBRANCH  21  22
ENDBRANCH  17  20
ENDBRANCH   5  16
BRANCH  12  26
HETATM   26  N   UNL     1      -5.706  12.133  71.073  1.00  0.00    -0.436 NA 
HETATM   27  H   UNL     1      -4.792  11.734  70.863  1.00  0.00     0.000 HD 
BRANCH  26  28
HETATM   28  C   UNL     1      -6.074  13.206  70.230  1.00  0.00    -0.079 A  
HETATM   29 CL   UNL     1      -8.956  13.865  67.525  1.00  0.00    -0.186 Cl 
HETATM   30  C   UNL     1      -5.447  14.455  70.287  1.00  0.00    -0.112 A  
HETATM   31  C   UNL     1      -7.611  14.136  68.582  1.00  0.00    -0.126 A  
HETATM   32  C   UNL     1      -5.907  15.545  69.521  1.00  0.00    -0.121 A  
HETATM   33  C   UNL     1      -7.141  13.052  69.336  1.00  0.00     0.179 A  
HETATM   34  C   UNL     1      -7.011  15.400  68.678  1.00  0.00    -0.111 A  
BRANCH  34  35
HETATM   35  O   UNL     1      -7.608  16.415  67.980  1.00  0.00    -0.146 OA 
BRANCH  35  36
HETATM   36  C   UNL     1      -6.851  17.587  67.679  1.00  0.00    -0.163 C  
BRANCH  36  37
HETATM   37  C   UNL     1      -7.802  18.751  67.468  1.00  0.00    -0.233 A  
HETATM   38  C   UNL     1      -9.181  18.539  67.432  1.00  0.00    -0.286 A  
HETATM   39  C   UNL     1     -10.029  19.625  67.229  1.00  0.00    -0.518 A  
HETATM   40  C   UNL     1      -9.485  20.894  67.069  1.00  0.00    -0.279 A  
HETATM   41  C   UNL     1      -8.108  21.021  67.115  1.00  0.00     0.056 A  
HETATM   42  N   UNL     1      -7.259  19.984  67.296  1.00  0.00    -0.239 NA 
ENDBRANCH  36  37
ENDBRANCH  35  36
ENDBRANCH  34  35
ENDBRANCH  26  28
ENDBRANCH  12  26
ENDBRANCH   3   4
ENDBRANCH   2   3
TORSDOF 11
ENDMDL
MODEL      159
REMARK 921   NORMALIZED FREE ENERGY PREDICTED BY IDOCK:   11.98 KCAL/MOL
REMARK 922        TOTAL FREE ENERGY PREDICTED BY IDOCK:   17.93 KCAL/MOL
REMARK 923 INTER-LIGAND FREE ENERGY PREDICTED BY IDOCK:   16.16 KCAL/MOL
REMARK 924 INTRA-LIGAND FREE ENERGY PREDICTED BY IDOCK:    1.77 KCAL/MOL
REMARK 927      BINDING AFFINITY PREDICTED BY RF-SCORE:    0.00 PKD
ROOT
HETATM    1  C   UNL     1     -14.402  16.288  70.147  1.00  0.00     4.567 C  
HETATM    2  C   UNL     1     -13.557  15.663  71.244  1.00  0.00    -0.301 C  
ENDROOT
BRANCH   2   3
HETATM    3  O   UNL     1     -12.482  16.546  71.531  1.00  0.00     0.109 OA 
BRANCH   3   4
HETATM    4  C   UNL     1     -11.430  16.664  70.667  1.00  0.00     0.195 A  
HETATM    5  C   UNL     1     -10.563  15.697  70.158  1.00  0.00    -0.334 A  
HETATM    6  C   UNL     1      -7.223  19.967  66.950  1.00  0.00    -0.238 C  
HETATM    7  C   UNL     1      -9.483  16.086  69.336  1.00  0.00    -0.226 A  
HETATM    8  C   UNL     1      -9.134  20.121  68.360  1.00  0.00    -0.004 A  
HETATM    9  C   UNL     1     -11.216  17.995  70.295  1.00  0.00     2.866 A  
HETATM   10  C   UNL     1      -9.273  17.444  68.949  1.00  0.00    -0.168 A  
HETATM   11  N   UNL     1     -10.126  19.697  69.174  1.00  0.00    -0.402 NA 
HETATM   12  C   UNL     1      -8.214  17.927  68.086  1.00  0.00    -0.269 A  
HETATM   13  C   UNL     1     -10.185  18.399  69.460  1.00  0.00     0.358 A  
HETATM   14  N   UNL     1      -6.499  20.597  66.296  1.00  0.00    -0.232 NA 
HETATM   15  C   UNL     1      -8.162  19.307  67.803  1.00  0.00    -0.322 A  
BRANCH   5  16
HETATM   16  N   UNL     1     -10.723  14.323  70.420  1.00  0.00    -0.201 N  
HETATM   17  C   UNL     1     -11.041  13.887  71.691  1.00  0.00     2.600 C  
HETATM   18  H   UNL     1     -10.603  13.647  69.667  1.00  0.00     0.000 HD 
HETATM   19  O   UNL     1     -11.148  14.611  72.674  1.00  0.00     0.531 OA 
BRANCH  17  20
HETATM   20  C   UNL     1     -11.250  12.415  71.771  1.00  0.00     5.046 C  
HETATM   21  C   UNL     1     -11.885  11.795  70.762  1.00  0.00    -0.059 C  
BRANCH  21  22
HETATM   22  C   UNL     1     -12.146  10.324  70.607  1.00  0.00    -0.338 C  
BRANCH  22  23
HETATM   23  N   UNL     1     -11.458   9.640  69.504  1.00  0.00    -0.037 NA 
HETATM   24  C   UNL     1     -12.182   8.429  69.096  1.00  0.00     2.680 C  
HETATM   25  C   UNL     1     -11.383  10.552  68.353  1.00  0.00    -0.262 C  
ENDBRANCH  22  23
ENDBRANCH  21  22
ENDBRANCH  17  20
ENDBRANCH   5  16
BRANCH  12  26
HETATM   26  N   UNL     1      -7.275  16.963  67.581  1.00  0.00    -0.139 NA 
HETATM   27  H   UNL     1      -6.563  17.359  66.968  1.00  0.00     0.000 HD 
BRANCH  26  28
HETATM   28  C   UNL     1      -7.157  15.569  67.776  1.00  0.00    -0.159 A  
HETATM   29 CL   UNL     1      -6.431  13.166  70.900  1.00  0.00     0.692 Cl 
HETATM   30  C   UNL     1      -7.419  14.644  66.761  1.00  0.00     0.655 A  
HETATM   31  C   UNL     1      -6.826  13.693  69.297  1.00  0.00    -0.063 A  
HETATM   32  C   UNL     1      -7.410  13.256  67.009  1.00  0.00     0.254 A  
HETATM   33  C   UNL     1      -6.823  15.071  69.042  1.00  0.00    -0.118 A  
HETATM   34  C   UNL     1      -7.136  12.769  68.289  1.00  0.00    -0.104 A  
BRANCH  34  35
HETATM   35  O   UNL     1      -7.213  11.456  68.666  1.00  0.00    -0.086 OA 
BRANCH  35  36
HETATM   36  C   UNL     1      -6.010  10.760  68.997  1.00  0.00    -0.040 C  
BRANCH  36  37
HETATM   37  C   UNL     1      -6.220   9.274  68.772  1.00  0.00    -0.044 A  
HETATM   38  C   UNL     1      -6.623   8.450  69.824  1.00  0.00    -0.039 A  
HETATM   39  C   UNL     1      -6.800   7.088  69.590  1.00  0.00    -0.050 A  
HETATM   40  C   UNL     1      -6.574   6.581  68.316  1.00  0.00    -0.059 A  
HETATM   41  C   UNL     1      -6.175   7.462  67.327  1.00  0.00    -0.051 A  
HETATM   42  N   UNL     1      -5.982   8.786  67.527  1.00  0.00    -0.047 NA 
ENDBRANCH  36  37
ENDBRANCH  35  36
ENDBRANCH  34  35
ENDBRANCH  26  28
ENDBRANCH  12  26
ENDBRANCH   3   4
ENDBRANCH   2   3
TORSDOF 11
ENDMDL
MODEL      160
REMARK 921   NORMALIZED FREE ENERGY PREDICTED BY IDOCK:   12.20 KCAL/MOL
REMARK 922        TOTAL FREE ENERGY PREDICTED BY IDOCK:   18.28 KCAL/MOL
REMARK 923 INTER-LIGAND FREE ENERGY PREDICTED BY IDOCK:   19.92 KCAL/MOL
REMARK 924 INTRA-LIGAND FREE ENERGY PREDICTED BY IDOCK:   -1.64 KCAL/MOL
REMARK 927      BINDING AFFINITY PREDICTED BY RF-SCORE:    0.00 PKD
ROOT
HETATM    1  C   UNL     1      -9.224   4.424  71.090  1.00  0.00    -0.199 C  
HETATM    2  C   UNL     1      -8.785   5.544  72.018  1.00  0.00    -0.131 C  
ENDROOT
BRANCH   2   3
HETATM    3  O   UNL     1      -9.384   6.751  71.569  1.00  0.00    -0.153 OA 
BRANCH   3   4
HETATM    4  C   UNL     1      -8.652   7.902  71.485  1.00  0.00    -0.121 A  
HETATM    5  C   UNL     1      -8.027   8.499  70.389  1.00  0.00    -0.099 A  
HETATM    6  C   UNL     1      -5.693  13.176  73.905  1.00  0.00     0.718 C  
HETATM    7  C   UNL     1      -7.245   9.659  70.575  1.00  0.00    -0.143 A  
HETATM    8  C   UNL     1      -7.059  11.290  74.403  1.00  0.00     5.903 A  
HETATM    9  C   UNL     1      -8.512   8.517  72.732  1.00  0.00    -0.157 A  
HETATM   10  C   UNL     1      -7.113  10.291  71.848  1.00  0.00     2.481 A  
HETATM   11  N   UNL     1      -7.761  10.159  74.174  1.00  0.00     3.549 NA 
HETATM   12  C   UNL     1      -6.359  11.499  72.122  1.00  0.00     3.487 A  
HETATM   13  C   UNL     1      -7.780   9.677  72.935  1.00  0.00     2.621 A  
HETATM   14  N   UNL     1      -5.186  14.106  74.381  1.00  0.00     0.045 NA 
HETATM   15  C   UNL     1      -6.344  11.988  73.444  1.00  0.00     4.567 A  
BRANCH   5  16
HETATM   16  N   UNL     1      -8.152   7.997  69.080  1.00  0.00    -0.121 N  
HETATM   17  C   UNL     1      -7.395   6.918  68.670  1.00  0.00    -0.094 C  
HETATM   18  H   UNL     1      -8.806   8.434  68.430  1.00  0.00     0.000 HD 
HETATM   19  O   UNL     1      -6.541   6.362  69.352  1.00  0.00    -0.041 OA 
BRANCH  17  20
HETATM   20  C   UNL     1      -7.710   6.471  67.286  1.00  0.00    -0.101 C  
HETATM   21  C   UNL     1      -8.797   5.707  67.083  1.00  0.00    -0.106 C  
BRANCH  21  22
HETATM   22  C   UNL     1      -9.332   5.201  65.775  1.00  0.00    -0.154 C  
BRANCH  22  23
HETATM   23  N   UNL     1      -9.253   3.752  65.541  1.00  0.00    -0.146 NA 
HETATM   24  C   UNL     1      -9.628   3.415  64.161  1.00  0.00    -0.146 C  
HETATM   25  C   UNL     1      -7.870   3.309  65.772  1.00  0.00    -0.085 C  
ENDBRANCH  22  23
ENDBRANCH  21  22
ENDBRANCH  17  20
ENDBRANCH   5  16
BRANCH  12  26
HETATM   26  N   UNL     1      -5.666  12.114  71.024  1.00  0.00    -0.436 NA 
HETATM   27  H   UNL     1      -4.752  11.705  70.828  1.00  0.00     0.000 HD 
BRANCH  26  28
HETATM   28  C   UNL     1      -6.015  13.182  70.167  1.00  0.00    -0.138 A  
HETATM   29 CL   UNL     1      -6.216  17.170  70.493  1.00  0.00     0.389 Cl 
HETATM   30  C   UNL     1      -6.297  12.993  68.810  1.00  0.00    -0.084 A  
HETATM   31  C   UNL     1      -6.246  15.581  69.805  1.00  0.00    -0.159 A  
HETATM   32  C   UNL     1      -6.527  14.084  67.948  1.00  0.00    -0.170 A  
HETATM   33  C   UNL     1      -6.031  14.492  70.660  1.00  0.00    -0.184 A  
HETATM   34  C   UNL     1      -6.480  15.392  68.434  1.00  0.00    -0.111 A  
BRANCH  34  35
HETATM   35  O   UNL     1      -6.575  16.522  67.669  1.00  0.00    -0.126 OA 
BRANCH  35  36
HETATM   36  C   UNL     1      -6.545  16.399  66.247  1.00  0.00     0.746 C  
BRANCH  36  37
HETATM   37  C   UNL     1      -6.512  17.785  65.630  1.00  0.00    -0.112 A  
HETATM   38  C   UNL     1      -5.526  18.123  64.703  1.00  0.00     0.087 A  
HETATM   39  C   UNL     1      -5.516  19.405  64.159  1.00  0.00    -0.292 A  
HETATM   40  C   UNL     1      -6.488  20.318  64.549  1.00  0.00    -0.276 A  
HETATM   41  C   UNL     1      -7.431  19.908  65.475  1.00  0.00    -0.192 A  
HETATM   42  N   UNL     1      -7.458  18.675  66.030  1.00  0.00    -0.393 NA 
ENDBRANCH  36  37
ENDBRANCH  35  36
ENDBRANCH  34  35
ENDBRANCH  26  28
ENDBRANCH  12  26
ENDBRANCH   3   4
ENDBRANCH   2   3
TORSDOF 11
ENDMDL
MODEL      161
REMARK 921   NORMALIZED FREE ENERGY PREDICTED BY IDOCK:   13.11 KCAL/MOL
REMARK 922        TOTAL FREE ENERGY PREDICTED BY IDOCK:   19.78 KCAL/MOL
REMARK 923 INTER-LIGAND FREE ENERGY PREDICTED BY IDOCK:   20.02 KCAL/MOL
REMARK 924 INTRA-LIGAND FREE ENERGY PREDICTED BY IDOCK:   -0.24 KCAL/MOL
REMARK 927      BINDING AFFINITY PREDICTED BY RF-SCORE:    0.00 PKD
ROOT
HETATM    1  C   UNL     1     -14.410  16.314  70.188  1.00  0.00     4.567 C  
HETATM    2  C   UNL     1     -13.853  15.688  71.455  1.00  0.00    -0.243 C  
ENDROOT
BRANCH   2   3
HETATM    3  O   UNL     1     -12.817  16.526  71.945  1.00  0.00     0.248 OA 
BRANCH   3   4
HETATM    4  C   UNL     1     -11.561  16.464  71.410  1.00  0.00    -0.242 A  
HETATM    5  C   UNL     1     -10.683  15.386  71.284  1.00  0.00     0.122 A  
HETATM    6  C   UNL     1      -6.196  18.975  68.701  1.00  0.00    -0.226 C  
HETATM    7  C   UNL     1      -9.387  15.595  70.767  1.00  0.00     1.757 A  
HETATM    8  C   UNL     1      -8.399  19.432  69.478  1.00  0.00     0.269 A  
HETATM    9  C   UNL     1     -11.126  17.716  70.966  1.00  0.00     2.076 A  
HETATM   10  C   UNL     1      -8.950  16.874  70.304  1.00  0.00     2.483 A  
HETATM   11  N   UNL     1      -9.612  19.182  70.018  1.00  0.00     0.623 NA 
HETATM   12  C   UNL     1      -7.652  17.171  69.730  1.00  0.00     0.807 A  
HETATM   13  C   UNL     1      -9.872  17.941  70.420  1.00  0.00     2.149 A  
HETATM   14  N   UNL     1      -5.263  19.466  68.214  1.00  0.00    -0.182 NA 
HETATM   15  C   UNL     1      -7.393  18.493  69.319  1.00  0.00    -0.090 A  
BRANCH   5  16
HETATM   16  N   UNL     1     -11.039  14.073  71.643  1.00  0.00     1.197 N  
HETATM   17  C   UNL     1     -11.679  13.826  72.842  1.00  0.00     2.151 C  
HETATM   18  H   UNL     1     -10.824  13.300  71.015  1.00  0.00     0.000 HD 
HETATM   19  O   UNL     1     -11.928  14.675  73.691  1.00  0.00    -0.208 OA 
BRANCH  17  20
HETATM   20  C   UNL     1     -12.051  12.396  73.025  1.00  0.00     5.329 C  
HETATM   21  C   UNL     1     -12.537  11.714  71.974  1.00  0.00     0.092 C  
BRANCH  21  22
HETATM   22  C   UNL     1     -12.915  10.262  71.918  1.00  0.00    -0.449 C  
BRANCH  22  23
HETATM   23  N   UNL     1     -12.116   9.401  71.034  1.00  0.00    -0.301 NA 
HETATM   24  C   UNL     1     -11.252  10.200  70.155  1.00  0.00    -0.310 C  
HETATM   25  C   UNL     1     -11.266   8.531  71.862  1.00  0.00    -0.327 C  
ENDBRANCH  22  23
ENDBRANCH  21  22
ENDBRANCH  17  20
ENDBRANCH   5  16
BRANCH  12  26
HETATM   26  N   UNL     1      -6.707  16.093  69.628  1.00  0.00    -0.195 NA 
HETATM   27  H   UNL     1      -5.836  16.256  70.133  1.00  0.00     0.000 HD 
BRANCH  26  28
HETATM   28  C   UNL     1      -6.761  14.851  68.957  1.00  0.00    -0.117 A  
HETATM   29 CL   UNL     1      -6.780  10.999  70.061  1.00  0.00    -0.140 Cl 
HETATM   30  C   UNL     1      -6.951  14.751  67.575  1.00  0.00    -0.198 A  
HETATM   31  C   UNL     1      -6.863  12.418  69.072  1.00  0.00    -0.093 A  
HETATM   32  C   UNL     1      -7.121  13.502  66.944  1.00  0.00     0.783 A  
HETATM   33  C   UNL     1      -6.681  13.661  69.692  1.00  0.00     0.011 A  
HETATM   34  C   UNL     1      -7.102  12.323  67.692  1.00  0.00    -0.126 A  
BRANCH  34  35
HETATM   35  O   UNL     1      -7.368  11.074  67.203  1.00  0.00    -0.103 OA 
BRANCH  35  36
HETATM   36  C   UNL     1      -8.728  10.666  67.048  1.00  0.00    -0.128 C  
BRANCH  36  37
HETATM   37  C   UNL     1      -8.836   9.181  67.341  1.00  0.00    -0.118 A  
HETATM   38  C   UNL     1      -9.411   8.317  66.409  1.00  0.00    -0.274 A  
HETATM   39  C   UNL     1      -9.504   6.959  66.709  1.00  0.00    -0.204 A  
HETATM   40  C   UNL     1      -9.021   6.497  67.927  1.00  0.00    -0.115 A  
HETATM   41  C   UNL     1      -8.467   7.417  68.799  1.00  0.00    -0.129 A  
HETATM   42  N   UNL     1      -8.376   8.741  68.541  1.00  0.00    -0.128 NA 
ENDBRANCH  36  37
ENDBRANCH  35  36
ENDBRANCH  34  35
ENDBRANCH  26  28
ENDBRANCH  12  26
ENDBRANCH   3   4
ENDBRANCH   2   3
TORSDOF 11
ENDMDL
MODEL      162
REMARK 921   NORMALIZED FREE ENERGY PREDICTED BY IDOCK:   14.22 KCAL/MOL
REMARK 922        TOTAL FREE ENERGY PREDICTED BY IDOCK:   21.61 KCAL/MOL
REMARK 923 INTER-LIGAND FREE ENERGY PREDICTED BY IDOCK:   15.62 KCAL/MOL
REMARK 924 INTRA-LIGAND FREE ENERGY PREDICTED BY IDOCK:    5.99 KCAL/MOL
REMARK 927      BINDING AFFINITY PREDICTED BY RF-SCORE:    0.00 PKD
ROOT
HETATM    1  C   UNL     1     -12.112  20.164  70.347  1.00  0.00    10.032 C  
HETATM    2  C   UNL     1     -10.968  20.143  71.347  1.00  0.00     5.440 C  
ENDROOT
BRANCH   2   3
HETATM    3  O   UNL     1      -9.988  19.228  70.879  1.00  0.00     1.409 OA 
BRANCH   3   4
HETATM    4  C   UNL     1     -10.330  17.943  70.564  1.00  0.00     1.822 A  
HETATM    5  C   UNL     1     -10.198  17.239  69.366  1.00  0.00    -0.139 A  
HETATM    6  C   UNL     1     -12.939  12.096  71.757  1.00  0.00    -0.332 C  
HETATM    7  C   UNL     1     -10.713  15.929  69.263  1.00  0.00    -0.259 A  
HETATM    8  C   UNL     1     -12.415  14.232  72.666  1.00  0.00    -0.136 A  
HETATM    9  C   UNL     1     -10.934  17.291  71.642  1.00  0.00     1.693 A  
HETATM   10  C   UNL     1     -11.320  15.261  70.370  1.00  0.00    -0.325 A  
HETATM   11  N   UNL     1     -11.941  15.497  72.695  1.00  0.00    -0.419 NA 
HETATM   12  C   UNL     1     -11.845  13.910  70.362  1.00  0.00    -0.265 A  
HETATM   13  C   UNL     1     -11.415  15.992  71.578  1.00  0.00    -0.385 A  
HETATM   14  N   UNL     1     -13.411  11.067  72.016  1.00  0.00    -0.304 NA 
HETATM   15  C   UNL     1     -12.406  13.407  71.553  1.00  0.00    -0.137 A  
BRANCH   5  16
HETATM   16  N   UNL     1      -9.553  17.779  68.238  1.00  0.00    -0.299 N  
HETATM   17  C   UNL     1      -8.505  18.665  68.389  1.00  0.00    -0.338 C  
HETATM   18  H   UNL     1      -9.861  17.513  67.303  1.00  0.00     0.000 HD 
HETATM   19  O   UNL     1      -8.099  19.092  69.465  1.00  0.00     0.067 OA 
BRANCH  17  20
HETATM   20  C   UNL     1      -7.889  19.073  67.097  1.00  0.00    -0.262 C  
HETATM   21  C   UNL     1      -7.465  20.340  66.952  1.00  0.00    -0.337 C  
BRANCH  21  22
HETATM   22  C   UNL     1      -6.766  20.944  65.769  1.00  0.00    -0.070 C  
BRANCH  22  23
HETATM   23  N   UNL     1      -6.714  20.135  64.543  1.00  0.00    -0.283 NA 
HETATM   24  C   UNL     1      -7.651  20.643  63.532  1.00  0.00     2.088 C  
HETATM   25  C   UNL     1      -5.352  20.196  63.992  1.00  0.00    -0.194 C  
ENDBRANCH  22  23
ENDBRANCH  21  22
ENDBRANCH  17  20
ENDBRANCH   5  16
BRANCH  12  26
HETATM   26  N   UNL     1     -11.767  13.172  69.131  1.00  0.00    -0.307 NA 
HETATM   27  H   UNL     1     -12.611  13.224  68.562  1.00  0.00     0.000 HD 
BRANCH  26  28
HETATM   28  C   UNL     1     -10.736  12.389  68.564  1.00  0.00    -0.238 A  
HETATM   29 CL   UNL     1      -7.224  13.132  66.783  1.00  0.00     0.530 Cl 
HETATM   30  C   UNL     1     -10.729  10.993  68.637  1.00  0.00    -0.234 A  
HETATM   31  C   UNL     1      -8.547  12.272  67.499  1.00  0.00    -0.174 A  
HETATM   32  C   UNL     1      -9.634  10.238  68.169  1.00  0.00    -0.151 A  
HETATM   33  C   UNL     1      -9.644  13.017  67.953  1.00  0.00    -0.215 A  
HETATM   34  C   UNL     1      -8.521  10.874  67.617  1.00  0.00    -0.123 A  
BRANCH  34  35
HETATM   35  O   UNL     1      -7.363  10.251  67.238  1.00  0.00    -0.089 OA 
BRANCH  35  36
HETATM   36  C   UNL     1      -6.963  10.307  65.869  1.00  0.00    -0.126 C  
BRANCH  36  37
HETATM   37  C   UNL     1      -8.197  10.467  64.999  1.00  0.00    -0.152 A  
HETATM   38  C   UNL     1      -9.369  11.007  65.528  1.00  0.00    -0.242 A  
HETATM   39  C   UNL     1     -10.488  11.135  64.708  1.00  0.00    -0.388 A  
HETATM   40  C   UNL     1     -10.411  10.724  63.382  1.00  0.00    -0.089 A  
HETATM   41  C   UNL     1      -9.214  10.197  62.933  1.00  0.00    -0.296 A  
HETATM   42  N   UNL     1      -8.116  10.048  63.709  1.00  0.00    -0.152 NA 
ENDBRANCH  36  37
ENDBRANCH  35  36
ENDBRANCH  34  35
ENDBRANCH  26  28
ENDBRANCH  12  26
ENDBRANCH   3   4
ENDBRANCH   2   3
TORSDOF 11
ENDMDL
MODEL      163
REMARK 921   NORMALIZED FREE ENERGY PREDICTED BY IDOCK:   14.36 KCAL/MOL
REMARK 922        TOTAL FREE ENERGY PREDICTED BY IDOCK:   21.83 KCAL/MOL
REMARK 923 INTER-LIGAND FREE ENERGY PREDICTED BY IDOCK:   21.29 KCAL/MOL
REMARK 924 INTRA-LIGAND FREE ENERGY PREDICTED BY IDOCK:    0.54 KCAL/MOL
REMARK 927      BINDING AFFINITY PREDICTED BY RF-SCORE:    0.00 PKD
ROOT
HETATM    1  C   UNL     1      -8.100  10.234  63.001  1.00  0.00    -0.157 C  
HETATM    2  C   UNL     1      -9.227   9.796  63.921  1.00  0.00    -0.198 C  
ENDROOT
BRANCH   2   3
HETATM    3  O   UNL     1      -9.711  10.942  64.606  1.00  0.00    -0.235 OA 
BRANCH   3   4
HETATM    4  C   UNL     1      -9.652  11.014  65.969  1.00  0.00    -0.215 A  
HETATM    5  C   UNL     1      -9.537  10.004  66.925  1.00  0.00    -0.175 A  
HETATM    6  C   UNL     1      -9.815  14.099  71.704  1.00  0.00     5.928 C  
HETATM    7  C   UNL     1      -9.586  10.329  68.298  1.00  0.00    -0.151 A  
HETATM    8  C   UNL     1      -9.874  14.353  69.338  1.00  0.00     0.154 A  
HETATM    9  C   UNL     1      -9.764  12.332  66.422  1.00  0.00    -0.243 A  
HETATM   10  C   UNL     1      -9.689  11.677  68.757  1.00  0.00    -0.107 A  
HETATM   11  N   UNL     1      -9.862  13.980  68.039  1.00  0.00    -0.222 NA 
HETATM   12  C   UNL     1      -9.713  12.102  70.142  1.00  0.00     3.299 A  
HETATM   13  C   UNL     1      -9.777  12.681  67.764  1.00  0.00    -0.206 A  
HETATM   14  N   UNL     1      -9.845  14.692  72.702  1.00  0.00     4.812 NA 
HETATM   15  C   UNL     1      -9.813  13.482  70.413  1.00  0.00     3.470 A  
BRANCH   5  16
HETATM   16  N   UNL     1      -9.359   8.651  66.579  1.00  0.00    -0.183 N  
HETATM   17  C   UNL     1     -10.285   7.703  66.969  1.00  0.00    -0.300 C  
HETATM   18  H   UNL     1      -8.542   8.370  66.039  1.00  0.00     0.000 HD 
HETATM   19  O   UNL     1     -11.266   7.928  67.669  1.00  0.00     0.155 OA 
BRANCH  17  20
HETATM   20  C   UNL     1      -9.982   6.341  66.452  1.00  0.00    -0.112 C  
HETATM   21  C   UNL     1      -9.634   6.199  65.162  1.00  0.00     0.823 C  
BRANCH  21  22
HETATM   22  C   UNL     1      -9.230   4.938  64.453  1.00  0.00     0.023 C  
BRANCH  22  23
HETATM   23  N   UNL     1     -10.247   3.882  64.345  1.00  0.00    -0.226 NA 
HETATM   24  C   UNL     1      -9.683   2.660  63.757  1.00  0.00    -0.135 C  
HETATM   25  C   UNL     1     -10.748   3.567  65.691  1.00  0.00     1.268 C  
ENDBRANCH  22  23
ENDBRANCH  21  22
ENDBRANCH  17  20
ENDBRANCH   5  16
BRANCH  12  26
HETATM   26  N   UNL     1      -9.642  11.083  71.153  1.00  0.00     3.599 NA 
HETATM   27  H   UNL     1     -10.203  11.282  71.982  1.00  0.00     0.000 HD 
BRANCH  26  28
HETATM   28  C   UNL     1      -8.941   9.859  71.211  1.00  0.00     1.443 A  
HETATM   29 CL   UNL     1      -5.328   8.571  70.052  1.00  0.00    -0.025 Cl 
HETATM   30  C   UNL     1      -9.439   8.739  71.885  1.00  0.00    -0.362 A  
HETATM   31  C   UNL     1      -6.899   8.599  70.780  1.00  0.00    -0.049 A  
HETATM   32  C   UNL     1      -8.670   7.566  72.030  1.00  0.00    -0.132 A  
HETATM   33  C   UNL     1      -7.672   9.757  70.627  1.00  0.00    -0.002 A  
HETATM   34  C   UNL     1      -7.382   7.495  71.499  1.00  0.00    -0.075 A  
BRANCH  34  35
HETATM   35  O   UNL     1      -6.511   6.454  71.678  1.00  0.00    -0.048 OA 
BRANCH  35  36
HETATM   36  C   UNL     1      -6.766   5.217  71.013  1.00  0.00    -0.040 C  
BRANCH  36  37
HETATM   37  C   UNL     1      -6.291   4.074  71.892  1.00  0.00    -0.018 A  
HETATM   38  C   UNL     1      -5.680   2.954  71.327  1.00  0.00    -0.013 A  
HETATM   39  C   UNL     1      -5.261   1.918  72.159  1.00  0.00     0.000 A  
HETATM   40  C   UNL     1      -5.458   2.023  73.530  1.00  0.00     0.000 A  
HETATM   41  C   UNL     1      -6.072   3.165  74.013  1.00  0.00    -0.015 A  
HETATM   42  N   UNL     1      -6.502   4.180  73.230  1.00  0.00    -0.039 NA 
ENDBRANCH  36  37
ENDBRANCH  35  36
ENDBRANCH  34  35
ENDBRANCH  26  28
ENDBRANCH  12  26
ENDBRANCH   3   4
ENDBRANCH   2   3
TORSDOF 11
ENDMDL
MODEL      164
REMARK 921   NORMALIZED FREE ENERGY PREDICTED BY IDOCK:   15.57 KCAL/MOL
REMARK 922        TOTAL FREE ENERGY PREDICTED BY IDOCK:   23.82 KCAL/MOL
REMARK 923 INTER-LIGAND FREE ENERGY PREDICTED BY IDOCK:    7.79 KCAL/MOL
REMARK 924 INTRA-LIGAND FREE ENERGY PREDICTED BY IDOCK:   16.02 KCAL/MOL
REMARK 927      BINDING AFFINITY PREDICTED BY RF-SCORE:    0.00 PKD
ROOT
HETATM    1  C   UNL     1      -5.874  16.357  67.866  1.00  0.00    -0.140 C  
HETATM    2  C   UNL     1      -5.871  15.868  69.304  1.00  0.00    -0.120 C  
ENDROOT
BRANCH   2   3
HETATM    3  O   UNL     1      -5.570  14.480  69.298  1.00  0.00    -0.091 OA 
BRANCH   3   4
HETATM    4  C   UNL     1      -6.311  13.611  68.548  1.00  0.00    -0.092 A  
HETATM    5  C   UNL     1      -7.601  13.734  68.029  1.00  0.00    -0.145 A  
HETATM    6  C   UNL     1      -7.467   7.942  65.554  1.00  0.00    -0.079 C  
HETATM    7  C   UNL     1      -8.189  12.647  67.348  1.00  0.00    -0.184 A  
HETATM    8  C   UNL     1      -5.887   9.219  66.795  1.00  0.00    -0.055 A  
HETATM    9  C   UNL     1      -5.629  12.411  68.324  1.00  0.00    -0.057 A  
HETATM   10  C   UNL     1      -7.486  11.427  67.113  1.00  0.00    -0.138 A  
HETATM   11  N   UNL     1      -5.389  10.276  67.473  1.00  0.00    -0.041 NA 
HETATM   12  C   UNL     1      -8.000  10.275  66.397  1.00  0.00    -0.121 A  
HETATM   13  C   UNL     1      -6.170  11.342  67.627  1.00  0.00    -0.055 A  
HETATM   14  N   UNL     1      -7.627   6.918  65.031  1.00  0.00    -0.096 NA 
HETATM   15  C   UNL     1      -7.160   9.153  66.252  1.00  0.00    -0.087 A  
BRANCH   5  16
HETATM   16  N   UNL     1      -8.353  14.918  68.144  1.00  0.00    -0.139 N  
HETATM   17  C   UNL     1      -8.610  15.465  69.385  1.00  0.00    -0.249 C  
HETATM   18  H   UNL     1      -8.711  15.374  67.305  1.00  0.00     0.000 HD 
HETATM   19  O   UNL     1      -8.277  14.964  70.454  1.00  0.00     0.582 OA 
BRANCH  17  20
HETATM   20  C   UNL     1      -9.349  16.755  69.317  1.00  0.00    -0.074 C  
HETATM   21  C   UNL     1      -8.923  17.702  68.463  1.00  0.00    -0.289 C  
BRANCH  21  22
HETATM   22  C   UNL     1      -9.548  19.039  68.189  1.00  0.00    -0.341 C  
BRANCH  22  23
HETATM   23  N   UNL     1      -9.934  19.319  66.798  1.00  0.00    -0.334 NA 
HETATM   24  C   UNL     1     -10.870  20.448  66.724  1.00  0.00     0.499 C  
HETATM   25  C   UNL     1      -8.726  19.660  66.032  1.00  0.00    -0.240 C  
ENDBRANCH  22  23
ENDBRANCH  21  22
ENDBRANCH  17  20
ENDBRANCH   5  16
BRANCH  12  26
HETATM   26  N   UNL     1      -9.342  10.351  65.889  1.00  0.00    -0.173 NA 
HETATM   27  H   UNL     1      -9.597   9.578  65.275  1.00  0.00     0.000 HD 
BRANCH  26  28
HETATM   28  C   UNL     1     -10.372  11.298  66.084  1.00  0.00    -0.251 A  
HETATM   29 CL   UNL     1     -11.282  14.004  68.896  1.00  0.00    -0.283 Cl 
HETATM   30  C   UNL     1     -11.347  11.556  65.115  1.00  0.00    -0.156 A  
HETATM   31  C   UNL     1     -11.334  13.093  67.423  1.00  0.00    -0.306 A  
HETATM   32  C   UNL     1     -12.294  12.587  65.281  1.00  0.00    -0.469 A  
HETATM   33  C   UNL     1     -10.404  12.058  67.260  1.00  0.00    -0.232 A  
HETATM   34  C   UNL     1     -12.280  13.382  66.429  1.00  0.00    -0.376 A  
BRANCH  34  35
HETATM   35  O   UNL     1     -13.075  14.475  66.640  1.00  0.00     0.616 OA 
BRANCH  35  36
HETATM   36  C   UNL     1     -14.006  14.455  67.723  1.00  0.00     9.442 C  
BRANCH  36  37
HETATM   37  C   UNL     1     -13.258  14.686  69.023  1.00  0.00     2.073 A  
HETATM   38  C   UNL     1     -13.566  13.935  70.159  1.00  0.00     1.278 A  
HETATM   39  C   UNL     1     -12.867  14.175  71.340  1.00  0.00    -0.428 A  
HETATM   40  C   UNL     1     -11.881  15.153  71.362  1.00  0.00    -0.418 A  
HETATM   41  C   UNL     1     -11.636  15.856  70.196  1.00  0.00    -0.351 A  
HETATM   42  N   UNL     1     -12.306  15.655  69.038  1.00  0.00    -0.086 NA 
ENDBRANCH  36  37
ENDBRANCH  35  36
ENDBRANCH  34  35
ENDBRANCH  26  28
ENDBRANCH  12  26
ENDBRANCH   3   4
ENDBRANCH   2   3
TORSDOF 11
ENDMDL
MODEL      165
REMARK 921   NORMALIZED FREE ENERGY PREDICTED BY IDOCK:   20.88 KCAL/MOL
REMARK 922        TOTAL FREE ENERGY PREDICTED BY IDOCK:   32.55 KCAL/MOL
REMARK 923 INTER-LIGAND FREE ENERGY PREDICTED BY IDOCK:    9.82 KCAL/MOL
REMARK 924 INTRA-LIGAND FREE ENERGY PREDICTED BY IDOCK:   22.73 KCAL/MOL
REMARK 927      BINDING AFFINITY PREDICTED BY RF-SCORE:    0.00 PKD
ROOT
HETATM    1  C   UNL     1     -12.630  18.083  72.160  1.00  0.00     9.059 C  
HETATM    2  C   UNL     1     -12.271  16.907  73.053  1.00  0.00     0.224 C  
ENDROOT
BRANCH   2   3
HETATM    3  O   UNL     1     -11.845  15.836  72.224  1.00  0.00    -0.410 OA 
BRANCH   3   4
HETATM    4  C   UNL     1     -11.053  16.072  71.135  1.00  0.00    -0.134 A  
HETATM    5  C   UNL     1     -10.524  15.190  70.192  1.00  0.00    -0.167 A  
HETATM    6  C   UNL     1      -7.490  19.803  67.158  1.00  0.00    -0.248 C  
HETATM    7  C   UNL     1      -9.651  15.673  69.194  1.00  0.00    -0.251 A  
HETATM    8  C   UNL     1      -8.909  19.770  69.070  1.00  0.00    -0.037 A  
HETATM    9  C   UNL     1     -10.727  17.427  71.018  1.00  0.00     1.725 A  
HETATM   10  C   UNL     1      -9.328  17.058  69.070  1.00  0.00    -0.167 A  
HETATM   11  N   UNL     1      -9.706  19.247  70.027  1.00  0.00     0.468 NA 
HETATM   12  C   UNL     1      -8.470  17.643  68.059  1.00  0.00    -0.244 A  
HETATM   13  C   UNL     1      -9.902  17.932  70.024  1.00  0.00     1.129 A  
HETATM   14  N   UNL     1      -6.870  20.507  66.475  1.00  0.00    -0.252 NA 
HETATM   15  C   UNL     1      -8.267  19.038  68.084  1.00  0.00    -0.349 A  
BRANCH   5  16
HETATM   16  N   UNL     1     -10.835  13.817  70.181  1.00  0.00    -0.164 N  
HETATM   17  C   UNL     1     -10.424  13.017  69.133  1.00  0.00     0.111 C  
HETATM   18  H   UNL     1     -11.367  13.412  70.950  1.00  0.00     0.000 HD 
HETATM   19  O   UNL     1      -9.833  13.417  68.136  1.00  0.00    -0.222 OA 
BRANCH  17  20
HETATM   20  C   UNL     1     -10.768  11.581  69.321  1.00  0.00    -0.171 C  
HETATM   21  C   UNL     1      -9.781  10.705  69.574  1.00  0.00    -0.085 C  
BRANCH  21  22
HETATM   22  C   UNL     1      -9.908   9.236  69.856  1.00  0.00    -0.199 C  
BRANCH  22  23
HETATM   23  N   UNL     1      -9.976   8.340  68.693  1.00  0.00    -0.185 NA 
HETATM   24  C   UNL     1      -8.635   7.925  68.262  1.00  0.00    -0.124 C  
HETATM   25  C   UNL     1     -10.741   7.140  69.063  1.00  0.00    -0.184 C  
ENDBRANCH  22  23
ENDBRANCH  21  22
ENDBRANCH  17  20
ENDBRANCH   5  16
BRANCH  12  26
HETATM   26  N   UNL     1      -7.871  16.757  67.100  1.00  0.00    -0.165 NA 
HETATM   27  H   UNL     1      -7.547  17.221  66.252  1.00  0.00     0.000 HD 
BRANCH  26  28
HETATM   28  C   UNL     1      -7.649  15.361  67.114  1.00  0.00    -0.203 A  
HETATM   29 CL   UNL     1      -9.953  12.098  67.426  1.00  0.00    -0.201 Cl 
HETATM   30  C   UNL     1      -6.390  14.799  66.881  1.00  0.00     1.276 A  
HETATM   31  C   UNL     1      -8.560  13.102  67.200  1.00  0.00    -0.192 A  
HETATM   32  C   UNL     1      -6.214  13.404  66.782  1.00  0.00     1.647 A  
HETATM   33  C   UNL     1      -8.727  14.489  67.311  1.00  0.00    -0.225 A  
HETATM   34  C   UNL     1      -7.305  12.543  66.918  1.00  0.00     0.132 A  
BRANCH  34  35
HETATM   35  O   UNL     1      -7.268  11.188  66.729  1.00  0.00    -0.131 OA 
BRANCH  35  36
HETATM   36  C   UNL     1      -8.495  10.483  66.540  1.00  0.00    -0.139 C  
BRANCH  36  37
HETATM   37  C   UNL     1      -8.611  10.071  65.083  1.00  0.00    -0.158 A  
HETATM   38  C   UNL     1      -7.695   9.178  64.526  1.00  0.00    -0.114 A  
HETATM   39  C   UNL     1      -7.822   8.825  63.185  1.00  0.00    -0.149 A  
HETATM   40  C   UNL     1      -8.856   9.367  62.432  1.00  0.00    -0.257 A  
HETATM   41  C   UNL     1      -9.722  10.247  63.056  1.00  0.00    -0.162 A  
HETATM   42  N   UNL     1      -9.616  10.620  64.352  1.00  0.00    -0.267 NA 
ENDBRANCH  36  37
ENDBRANCH  35  36
ENDBRANCH  34  35
ENDBRANCH  26  28
ENDBRANCH  12  26
ENDBRANCH   3   4
ENDBRANCH   2   3
TORSDOF 11
ENDMDL
MODEL      166
REMARK 921   NORMALIZED FREE ENERGY PREDICTED BY IDOCK:   23.91 KCAL/MOL
REMARK 922        TOTAL FREE ENERGY PREDICTED BY IDOCK:   37.53 KCAL/MOL
REMARK 923 INTER-LIGAND FREE ENERGY PREDICTED BY IDOCK:   30.30 KCAL/MOL
REMARK 924 INTRA-LIGAND FREE ENERGY PREDICTED BY IDOCK:    7.23 KCAL/MOL
REMARK 927      BINDING AFFINITY PREDICTED BY RF-SCORE:    0.00 PKD
ROOT
HETATM    1  C   UNL     1      -7.987   4.804  64.957  1.00  0.00    -0.097 C  
HETATM    2  C   UNL     1      -6.925   5.843  64.643  1.00  0.00    -0.052 C  
ENDROOT
BRANCH   2   3
HETATM    3  O   UNL     1      -7.579   7.038  64.243  1.00  0.00    -0.097 OA 
BRANCH   3   4
HETATM    4  C   UNL     1      -7.386   8.202  64.934  1.00  0.00    -0.087 A  
HETATM    5  C   UNL     1      -7.718   8.541  66.247  1.00  0.00    -0.094 A  
HETATM    6  C   UNL     1      -5.532  14.412  65.584  1.00  0.00     9.916 C  
HETATM    7  C   UNL     1      -7.489   9.855  66.710  1.00  0.00    -0.095 A  
HETATM    8  C   UNL     1      -5.641  12.541  64.117  1.00  0.00     7.971 A  
HETATM    9  C   UNL     1      -6.787   9.182  64.137  1.00  0.00    -0.088 A  
HETATM   10  C   UNL     1      -6.867  10.850  65.897  1.00  0.00    -0.032 A  
HETATM   11  N   UNL     1      -5.920  11.281  63.714  1.00  0.00     0.703 NA 
HETATM   12  C   UNL     1      -6.566  12.210  66.301  1.00  0.00     1.040 A  
HETATM   13  C   UNL     1      -6.518  10.468  64.580  1.00  0.00     0.035 A  
HETATM   14  N   UNL     1      -5.183  15.517  65.654  1.00  0.00     5.026 NA 
HETATM   15  C   UNL     1      -5.940  13.058  65.366  1.00  0.00     8.053 A  
BRANCH   5  16
HETATM   16  N   UNL     1      -8.269   7.615  67.152  1.00  0.00    -0.117 N  
HETATM   17  C   UNL     1      -8.288   7.889  68.506  1.00  0.00    -0.128 C  
HETATM   18  H   UNL     1      -8.655   6.737  66.807  1.00  0.00     0.000 HD 
HETATM   19  O   UNL     1      -7.798   8.885  69.026  1.00  0.00    -0.089 OA 
BRANCH  17  20
HETATM   20  C   UNL     1      -8.976   6.840  69.306  1.00  0.00    -0.137 C  
HETATM   21  C   UNL     1      -9.448   7.159  70.524  1.00  0.00    -0.162 C  
BRANCH  21  22
HETATM   22  C   UNL     1     -10.222   6.284  71.467  1.00  0.00    -0.200 C  
BRANCH  22  23
HETATM   23  N   UNL     1     -11.351   6.904  72.174  1.00  0.00    -0.256 NA 
HETATM   24  C   UNL     1     -10.957   8.176  72.792  1.00  0.00    -0.330 C  
HETATM   25  C   UNL     1     -12.428   7.166  71.207  1.00  0.00    -0.386 C  
ENDBRANCH  22  23
ENDBRANCH  21  22
ENDBRANCH  17  20
ENDBRANCH   5  16
BRANCH  12  26
HETATM   26  N   UNL     1      -6.936  12.606  67.632  1.00  0.00    -0.125 NA 
HETATM   27  H   UNL     1      -6.143  12.748  68.258  1.00  0.00     0.000 HD 
BRANCH  26  28
HETATM   28  C   UNL     1      -8.194  12.836  68.233  1.00  0.00    -0.159 A  
HETATM   29 CL   UNL     1      -9.926  15.881  70.178  1.00  0.00    -0.056 Cl 
HETATM   30  C   UNL     1      -9.248  11.921  68.141  1.00  0.00    -0.187 A  
HETATM   31  C   UNL     1      -9.709  14.352  69.393  1.00  0.00     0.190 A  
HETATM   32  C   UNL     1     -10.529  12.222  68.647  1.00  0.00    -0.228 A  
HETATM   33  C   UNL     1      -8.434  14.042  68.901  1.00  0.00     0.046 A  
HETATM   34  C   UNL     1     -10.777  13.452  69.257  1.00  0.00     0.024 A  
BRANCH  34  35
HETATM   35  O   UNL     1     -12.003  13.891  69.678  1.00  0.00    -0.302 OA 
BRANCH  35  36
HETATM   36  C   UNL     1     -12.955  14.323  68.704  1.00  0.00     1.672 C  
BRANCH  36  37
HETATM   37  C   UNL     1     -12.304  14.304  67.333  1.00  0.00    -0.075 A  
HETATM   38  C   UNL     1     -10.933  14.079  67.205  1.00  0.00    -0.303 A  
HETATM   39  C   UNL     1     -10.363  14.075  65.934  1.00  0.00    -0.327 A  
HETATM   40  C   UNL     1     -11.170  14.292  64.824  1.00  0.00    -0.387 A  
HETATM   41  C   UNL     1     -12.520  14.509  65.034  1.00  0.00    -0.301 A  
HETATM   42  N   UNL     1     -13.100  14.533  66.256  1.00  0.00     0.520 NA 
ENDBRANCH  36  37
ENDBRANCH  35  36
ENDBRANCH  34  35
ENDBRANCH  26  28
ENDBRANCH  12  26
ENDBRANCH   3   4
ENDBRANCH   2   3
TORSDOF 11
ENDMDL
MODEL      167
REMARK 921   NORMALIZED FREE ENERGY PREDICTED BY IDOCK:   31.11 KCAL/MOL
REMARK 922        TOTAL FREE ENERGY PREDICTED BY IDOCK:   49.35 KCAL/MOL
REMARK 923 INTER-LIGAND FREE ENERGY PREDICTED BY IDOCK:   46.73 KCAL/MOL
REMARK 924 INTRA-LIGAND FREE ENERGY PREDICTED BY IDOCK:    2.62 KCAL/MOL
REMARK 927      BINDING AFFINITY PREDICTED BY RF-SCORE:    0.00 PKD
ROOT
HETATM    1  C   UNL     1      -5.645  16.065  65.551  1.00  0.00     5.321 C  
HETATM    2  C   UNL     1      -5.935  14.660  66.050  1.00  0.00     6.659 C  
ENDROOT
BRANCH   2   3
HETATM    3  O   UNL     1      -7.218  14.278  65.576  1.00  0.00     5.810 OA 
BRANCH   3   4
HETATM    4  C   UNL     1      -7.854  13.186  66.095  1.00  0.00     1.838 A  
HETATM    5  C   UNL     1      -7.867  12.679  67.396  1.00  0.00    -0.175 A  
HETATM    6  C   UNL     1     -11.498   7.797  65.761  1.00  0.00     6.088 C  
HETATM    7  C   UNL     1      -8.541  11.469  67.669  1.00  0.00    -0.135 A  
HETATM    8  C   UNL     1     -10.602   9.637  64.546  1.00  0.00     2.384 A  
HETATM    9  C   UNL     1      -8.561  12.485  65.114  1.00  0.00     1.689 A  
HETATM   10  C   UNL     1      -9.271  10.762  66.667  1.00  0.00    -0.184 A  
HETATM   11  N   UNL     1      -9.908  10.777  64.334  1.00  0.00    -0.287 NA 
HETATM   12  C   UNL     1     -10.016   9.534  66.866  1.00  0.00    -0.216 A  
HETATM   13  C   UNL     1      -9.262  11.315  65.364  1.00  0.00    -0.183 A  
HETATM   14  N   UNL     1     -12.156   6.847  65.655  1.00  0.00     6.404 NA 
HETATM   15  C   UNL     1     -10.686   8.975  65.760  1.00  0.00     1.583 A  
BRANCH   5  16
HETATM   16  N   UNL     1      -7.240  13.336  68.471  1.00  0.00    -0.105 N  
HETATM   17  C   UNL     1      -7.515  14.663  68.735  1.00  0.00    -0.135 C  
HETATM   18  H   UNL     1      -6.579  12.828  69.058  1.00  0.00     0.000 HD 
HETATM   19  O   UNL     1      -8.247  15.375  68.056  1.00  0.00    -0.139 OA 
BRANCH  17  20
HETATM   20  C   UNL     1      -6.827  15.174  69.952  1.00  0.00    -0.154 C  
HETATM   21  C   UNL     1      -6.408  14.294  70.878  1.00  0.00     0.020 C  
BRANCH  21  22
HETATM   22  C   UNL     1      -5.645  14.581  72.138  1.00  0.00     0.003 C  
BRANCH  22  23
HETATM   23  N   UNL     1      -6.072  15.749  72.922  1.00  0.00     1.943 NA 
HETATM   24  C   UNL     1      -5.447  15.754  74.251  1.00  0.00     4.476 C  
HETATM   25  C   UNL     1      -5.669  16.971  72.210  1.00  0.00     1.784 C  
ENDBRANCH  22  23
ENDBRANCH  21  22
ENDBRANCH  17  20
ENDBRANCH   5  16
BRANCH  12  26
HETATM   26  N   UNL     1     -10.013   8.960  68.184  1.00  0.00    -0.169 NA 
HETATM   27  H   UNL     1     -10.935   8.911  68.617  1.00  0.00     0.000 HD 
BRANCH  26  28
HETATM   28  C   UNL     1      -8.969   8.452  68.989  1.00  0.00    -0.147 A  
HETATM   29 CL   UNL     1      -8.606   5.511  71.687  1.00  0.00    -0.130 Cl 
HETATM   30  C   UNL     1      -7.650   8.904  68.882  1.00  0.00    -0.087 A  
HETATM   31  C   UNL     1      -8.195   6.806  70.612  1.00  0.00    -0.120 A  
HETATM   32  C   UNL     1      -6.604   8.301  69.611  1.00  0.00    -0.037 A  
HETATM   33  C   UNL     1      -9.233   7.417  69.895  1.00  0.00    -0.144 A  
HETATM   34  C   UNL     1      -6.865   7.228  70.466  1.00  0.00    -0.053 A  
BRANCH  34  35
HETATM   35  O   UNL     1      -5.916   6.500  71.130  1.00  0.00    -0.027 OA 
BRANCH  35  36
HETATM   36  C   UNL     1      -6.035   6.335  72.543  1.00  0.00    -0.038 C  
BRANCH  36  37
HETATM   37  C   UNL     1      -6.373   7.674  73.172  1.00  0.00    -0.063 A  
HETATM   38  C   UNL     1      -5.359   8.521  73.620  1.00  0.00    -0.073 A  
HETATM   39  C   UNL     1      -5.700   9.741  74.200  1.00  0.00     0.213 A  
HETATM   40  C   UNL     1      -7.040  10.088  74.317  1.00  0.00     2.291 A  
HETATM   41  C   UNL     1      -7.987   9.194  73.851  1.00  0.00     1.170 A  
HETATM   42  N   UNL     1      -7.687   7.997  73.296  1.00  0.00    -0.145 NA 
ENDBRANCH  36  37
ENDBRANCH  35  36
ENDBRANCH  34  35
ENDBRANCH  26  28
ENDBRANCH  12  26
ENDBRANCH   3   4
ENDBRANCH   2   3
TORSDOF 11
ENDMDL
MODEL      168
REMARK 921   NORMALIZED FREE ENERGY PREDICTED BY IDOCK:   31.93 KCAL/MOL
REMARK 922        TOTAL FREE ENERGY PREDICTED BY IDOCK:   50.71 KCAL/MOL
REMARK 923 INTER-LIGAND FREE ENERGY PREDICTED BY IDOCK:   46.56 KCAL/MOL
REMARK 924 INTRA-LIGAND FREE ENERGY PREDICTED BY IDOCK:    4.15 KCAL/MOL
REMARK 927      BINDING AFFINITY PREDICTED BY RF-SCORE:    0.00 PKD
ROOT
HETATM    1  C   UNL     1     -14.211   7.801  64.512  1.00  0.00    17.468 C  
HETATM    2  C   UNL     1     -13.476   6.911  65.500  1.00  0.00    14.300 C  
ENDROOT
BRANCH   2   3
HETATM    3  O   UNL     1     -12.085   7.008  65.233  1.00  0.00     7.819 OA 
BRANCH   3   4
HETATM    4  C   UNL     1     -11.301   7.878  65.938  1.00  0.00     4.846 A  
HETATM    5  C   UNL     1     -10.531   7.676  67.085  1.00  0.00    -0.342 A  
HETATM    6  C   UNL     1      -8.757  13.717  67.301  1.00  0.00    -0.219 C  
HETATM    7  C   UNL     1      -9.867   8.768  67.684  1.00  0.00    -0.228 A  
HETATM    8  C   UNL     1     -10.140  12.479  65.811  1.00  0.00    -0.262 A  
HETATM    9  C   UNL     1     -11.343   9.166  65.398  1.00  0.00     5.372 A  
HETATM   10  C   UNL     1      -9.904  10.081  67.123  1.00  0.00    -0.231 A  
HETATM   11  N   UNL     1     -10.786  11.407  65.303  1.00  0.00    -0.283 NA 
HETATM   12  C   UNL     1      -9.228  11.249  67.653  1.00  0.00    -0.156 A  
HETATM   13  C   UNL     1     -10.671  10.248  65.946  1.00  0.00     0.089 A  
HETATM   14  N   UNL     1      -8.324  14.775  67.503  1.00  0.00    -0.170 NA 
HETATM   15  C   UNL     1      -9.370  12.470  66.962  1.00  0.00    -0.210 A  
BRANCH   5  16
HETATM   16  N   UNL     1     -10.370   6.409  67.676  1.00  0.00    -0.170 N  
HETATM   17  C   UNL     1     -10.655   5.263  66.961  1.00  0.00    -0.184 C  
HETATM   18  H   UNL     1     -10.041   6.337  68.639  1.00  0.00     0.000 HD 
HETATM   19  O   UNL     1     -11.111   5.243  65.822  1.00  0.00     0.010 OA 
BRANCH  17  20
HETATM   20  C   UNL     1     -10.355   4.013  67.710  1.00  0.00     0.644 C  
HETATM   21  C   UNL     1      -9.330   3.244  67.305  1.00  0.00    -0.229 C  
BRANCH  21  22
HETATM   22  C   UNL     1      -8.816   1.986  67.944  1.00  0.00    -0.122 C  
BRANCH  22  23
HETATM   23  N   UNL     1      -7.542   2.083  68.671  1.00  0.00    -0.046 NA 
HETATM   24  C   UNL     1      -6.581   2.924  67.946  1.00  0.00    -0.037 C  
HETATM   25  C   UNL     1      -7.792   2.685  69.989  1.00  0.00    -0.042 C  
ENDBRANCH  22  23
ENDBRANCH  21  22
ENDBRANCH  17  20
ENDBRANCH   5  16
BRANCH  12  26
HETATM   26  N   UNL     1      -8.463  11.087  68.858  1.00  0.00    -0.258 NA 
HETATM   27  H   UNL     1      -8.064  11.954  69.216  1.00  0.00     0.000 HD 
BRANCH  26  28
HETATM   28  C   UNL     1      -8.163   9.948  69.639  1.00  0.00    -0.171 A  
HETATM   29 CL   UNL     1      -5.445   7.008  69.487  1.00  0.00    -0.015 Cl 
HETATM   30  C   UNL     1      -8.809   9.676  70.848  1.00  0.00     0.166 A  
HETATM   31  C   UNL     1      -6.736   8.016  70.051  1.00  0.00    -0.040 A  
HETATM   32  C   UNL     1      -8.412   8.600  71.669  1.00  0.00    -0.230 A  
HETATM   33  C   UNL     1      -7.143   9.078  69.234  1.00  0.00    -0.058 A  
HETATM   34  C   UNL     1      -7.354   7.774  71.287  1.00  0.00    -0.066 A  
BRANCH  34  35
HETATM   35  O   UNL     1      -6.815   6.777  72.055  1.00  0.00    -0.061 OA 
BRANCH  35  36
HETATM   36  C   UNL     1      -7.569   6.267  73.155  1.00  0.00    -0.096 C  
BRANCH  36  37
HETATM   37  C   UNL     1      -8.899   5.745  72.643  1.00  0.00    -0.125 A  
HETATM   38  C   UNL     1      -9.989   6.604  72.504  1.00  0.00    -0.184 A  
HETATM   39  C   UNL     1     -11.200   6.095  72.039  1.00  0.00    -0.335 A  
HETATM   40  C   UNL     1     -11.294   4.745  71.723  1.00  0.00     0.612 A  
HETATM   41  C   UNL     1     -10.169   3.958  71.890  1.00  0.00    -0.073 A  
HETATM   42  N   UNL     1      -8.985   4.421  72.352  1.00  0.00    -0.118 NA 
ENDBRANCH  36  37
ENDBRANCH  35  36
ENDBRANCH  34  35
ENDBRANCH  26  28
ENDBRANCH  12  26
ENDBRANCH   3   4
ENDBRANCH   2   3
TORSDOF 11
ENDMDL
MODEL      169
REMARK 921   NORMALIZED FREE ENERGY PREDICTED BY IDOCK:   37.71 KCAL/MOL
REMARK 922        TOTAL FREE ENERGY PREDICTED BY IDOCK:   60.21 KCAL/MOL
REMARK 923 INTER-LIGAND FREE ENERGY PREDICTED BY IDOCK:   56.17 KCAL/MOL
REMARK 924 INTRA-LIGAND FREE ENERGY PREDICTED BY IDOCK:    4.04 KCAL/MOL
REMARK 927      BINDING AFFINITY PREDICTED BY RF-SCORE:    0.00 PKD
ROOT
HETATM    1  C   UNL     1     -14.254   7.871  64.532  1.00  0.00    17.994 C  
HETATM    2  C   UNL     1     -13.680   7.240  65.789  1.00  0.00    17.866 C  
ENDROOT
BRANCH   2   3
HETATM    3  O   UNL     1     -12.263   7.303  65.709  1.00  0.00     6.497 OA 
BRANCH   3   4
HETATM    4  C   UNL     1     -11.592   8.418  66.125  1.00  0.00     5.267 A  
HETATM    5  C   UNL     1     -10.507   8.550  66.993  1.00  0.00    -0.292 A  
HETATM    6  C   UNL     1     -10.524  14.831  66.514  1.00  0.00    -0.291 C  
HETATM    7  C   UNL     1     -10.039   9.836  67.338  1.00  0.00    -0.259 A  
HETATM    8  C   UNL     1     -11.861  13.121  65.538  1.00  0.00    -0.380 A  
HETATM    9  C   UNL     1     -12.146   9.584  65.589  1.00  0.00     8.404 A  
HETATM   10  C   UNL     1     -10.600  11.025  66.781  1.00  0.00    -0.317 A  
HETATM   11  N   UNL     1     -12.293  11.869  65.274  1.00  0.00    -0.245 NA 
HETATM   12  C   UNL     1     -10.161  12.379  67.054  1.00  0.00    -0.220 A  
HETATM   13  C   UNL     1     -11.680  10.857  65.883  1.00  0.00     1.244 A  
HETATM   14  N   UNL     1     -10.369  15.981  66.550  1.00  0.00    -0.292 NA 
HETATM   15  C   UNL     1     -10.829  13.438  66.406  1.00  0.00    -0.294 A  
BRANCH   5  16
HETATM   16  N   UNL     1      -9.836   7.441  67.542  1.00  0.00    -0.149 N  
HETATM   17  C   UNL     1     -10.007   6.183  66.999  1.00  0.00    -0.162 C  
HETATM   18  H   UNL     1      -9.221   7.567  68.345  1.00  0.00     0.000 HD 
HETATM   19  O   UNL     1     -10.768   5.916  66.075  1.00  0.00     0.070 OA 
BRANCH  17  20
HETATM   20  C   UNL     1      -9.165   5.143  67.651  1.00  0.00    -0.127 C  
HETATM   21  C   UNL     1      -8.141   4.612  66.962  1.00  0.00    -0.102 C  
BRANCH  21  22
HETATM   22  C   UNL     1      -7.135   3.606  67.441  1.00  0.00    -0.059 C  
BRANCH  22  23
HETATM   23  N   UNL     1      -7.226   2.254  66.872  1.00  0.00    -0.052 NA 
HETATM   24  C   UNL     1      -8.448   1.571  67.317  1.00  0.00    -0.084 C  
HETATM   25  C   UNL     1      -7.254   2.357  65.405  1.00  0.00    -0.058 C  
ENDBRANCH  22  23
ENDBRANCH  21  22
ENDBRANCH  17  20
ENDBRANCH   5  16
BRANCH  12  26
HETATM   26  N   UNL     1      -9.076  12.554  67.979  1.00  0.00    -0.194 NA 
HETATM   27  H   UNL     1      -8.820  13.528  68.139  1.00  0.00     0.000 HD 
BRANCH  26  28
HETATM   28  C   UNL     1      -8.299  11.627  68.708  1.00  0.00    -0.039 A  
HETATM   29 CL   UNL     1      -5.166   9.260  67.908  1.00  0.00    -0.034 Cl 
HETATM   30  C   UNL     1      -8.462  11.427  70.083  1.00  0.00     2.406 A  
HETATM   31  C   UNL     1      -6.414  10.083  68.783  1.00  0.00    -0.045 A  
HETATM   32  C   UNL     1      -7.597  10.585  70.811  1.00  0.00     1.419 A  
HETATM   33  C   UNL     1      -7.284  10.911  68.061  1.00  0.00    -0.086 A  
HETATM   34  C   UNL     1      -6.549   9.923  70.170  1.00  0.00    -0.102 A  
BRANCH  34  35
HETATM   35  O   UNL     1      -5.588   9.176  70.796  1.00  0.00    -0.031 OA 
BRANCH  35  36
HETATM   36  C   UNL     1      -5.801   8.765  72.146  1.00  0.00    -0.067 C  
BRANCH  36  37
HETATM   37  C   UNL     1      -7.076   7.944  72.218  1.00  0.00    -0.081 A  
HETATM   38  C   UNL     1      -7.046   6.569  71.979  1.00  0.00    -0.081 A  
HETATM   39  C   UNL     1      -8.233   5.843  72.044  1.00  0.00    -0.112 A  
HETATM   40  C   UNL     1      -9.419   6.502  72.347  1.00  0.00    -0.147 A  
HETATM   41  C   UNL     1      -9.367   7.866  72.569  1.00  0.00    -0.197 A  
HETATM   42  N   UNL     1      -8.232   8.600  72.499  1.00  0.00    -0.392 NA 
ENDBRANCH  36  37
ENDBRANCH  35  36
ENDBRANCH  34  35
ENDBRANCH  26  28
ENDBRANCH  12  26
ENDBRANCH   3   4
ENDBRANCH   2   3
TORSDOF 11
ENDMDL
MODEL      170
REMARK 921   NORMALIZED FREE ENERGY PREDICTED BY IDOCK:   40.68 KCAL/MOL
REMARK 922        TOTAL FREE ENERGY PREDICTED BY IDOCK:   65.09 KCAL/MOL
REMARK 923 INTER-LIGAND FREE ENERGY PREDICTED BY IDOCK:   33.34 KCAL/MOL
REMARK 924 INTRA-LIGAND FREE ENERGY PREDICTED BY IDOCK:   31.75 KCAL/MOL
REMARK 927      BINDING AFFINITY PREDICTED BY RF-SCORE:    0.00 PKD
ROOT
HETATM    1  C   UNL     1      -5.731   6.914  73.708  1.00  0.00    -0.054 C  
HETATM    2  C   UNL     1      -5.361   6.741  72.245  1.00  0.00    -0.036 C  
ENDROOT
BRANCH   2   3
HETATM    3  O   UNL     1      -5.192   8.031  71.676  1.00  0.00    -0.034 OA 
BRANCH   3   4
HETATM    4  C   UNL     1      -6.249   8.684  71.106  1.00  0.00    -0.046 A  
HETATM    5  C   UNL     1      -7.177   8.251  70.158  1.00  0.00    -0.055 A  
HETATM    6  C   UNL     1     -10.066  13.847  70.010  1.00  0.00     1.312 C  
HETATM    7  C   UNL     1      -8.139   9.153  69.656  1.00  0.00    -0.106 A  
HETATM    8  C   UNL     1      -8.210  13.006  71.240  1.00  0.00    10.434 A  
HETATM    9  C   UNL     1      -6.345  10.003  71.560  1.00  0.00     0.356 A  
HETATM   10  C   UNL     1      -8.242  10.497  70.129  1.00  0.00     0.523 A  
HETATM   11  N   UNL     1      -7.286  12.112  71.655  1.00  0.00     6.718 NA 
HETATM   12  C   UNL     1      -9.216  11.478  69.694  1.00  0.00     1.171 A  
HETATM   13  C   UNL     1      -7.304  10.898  71.110  1.00  0.00     3.105 A  
HETATM   14  N   UNL     1     -10.722  14.792  69.850  1.00  0.00    -0.167 NA 
HETATM   15  C   UNL     1      -9.175  12.760  70.277  1.00  0.00     4.853 A  
BRANCH   5  16
HETATM   16  N   UNL     1      -7.209   6.928  69.679  1.00  0.00    -0.078 N  
HETATM   17  C   UNL     1      -8.325   6.450  69.021  1.00  0.00    -0.118 C  
HETATM   18  H   UNL     1      -6.403   6.319  69.818  1.00  0.00     0.000 HD 
HETATM   19  O   UNL     1      -9.363   7.081  68.855  1.00  0.00    -0.140 OA 
BRANCH  17  20
HETATM   20  C   UNL     1      -8.157   5.061  68.513  1.00  0.00    -0.085 C  
HETATM   21  C   UNL     1      -8.813   4.694  67.399  1.00  0.00    -0.110 C  
BRANCH  21  22
HETATM   22  C   UNL     1      -8.742   3.376  66.684  1.00  0.00    -0.126 C  
BRANCH  22  23
HETATM   23  N   UNL     1      -7.885   3.313  65.491  1.00  0.00    -0.085 NA 
HETATM   24  C   UNL     1      -8.674   3.028  64.286  1.00  0.00    -0.094 C  
HETATM   25  C   UNL     1      -7.218   4.612  65.318  1.00  0.00    -0.068 C  
ENDBRANCH  22  23
ENDBRANCH  21  22
ENDBRANCH  17  20
ENDBRANCH   5  16
BRANCH  12  26
HETATM   26  N   UNL     1     -10.158  11.079  68.685  1.00  0.00    -0.191 NA 
HETATM   27  H   UNL     1     -10.815  10.361  68.992  1.00  0.00     0.000 HD 
BRANCH  26  28
HETATM   28  C   UNL     1     -10.343  11.497  67.348  1.00  0.00    -0.207 A  
HETATM   29 CL   UNL     1      -9.203  10.160  63.747  1.00  0.00    -0.296 Cl 
HETATM   30  C   UNL     1     -11.177  12.565  67.004  1.00  0.00    -0.353 A  
HETATM   31  C   UNL     1      -9.990  11.102  64.969  1.00  0.00    -0.273 A  
HETATM   32  C   UNL     1     -11.439  12.889  65.657  1.00  0.00    -0.368 A  
HETATM   33  C   UNL     1      -9.722  10.793  66.309  1.00  0.00    -0.248 A  
HETATM   34  C   UNL     1     -10.865  12.144  64.626  1.00  0.00    -0.306 A  
BRANCH  34  35
HETATM   35  O   UNL     1     -11.139  12.298  63.294  1.00  0.00    -0.427 OA 
BRANCH  35  36
HETATM   36  C   UNL     1     -10.933  11.194  62.413  1.00  0.00     1.578 C  
BRANCH  36  37
HETATM   37  C   UNL     1      -9.999  10.199  63.077  1.00  0.00     0.324 A  
HETATM   38  C   UNL     1      -8.616  10.324  62.935  1.00  0.00    -0.194 A  
HETATM   39  C   UNL     1      -7.784   9.391  63.549  1.00  0.00    -0.122 A  
HETATM   40  C   UNL     1      -8.347   8.359  64.290  1.00  0.00    -0.091 A  
HETATM   41  C   UNL     1      -9.726   8.301  64.381  1.00  0.00     2.579 A  
HETATM   42  N   UNL     1     -10.560   9.184  63.785  1.00  0.00     4.868 NA 
ENDBRANCH  36  37
ENDBRANCH  35  36
ENDBRANCH  34  35
ENDBRANCH  26  28
ENDBRANCH  12  26
ENDBRANCH   3   4
ENDBRANCH   2   3
TORSDOF 11
ENDMDL
MODEL      171
REMARK 921   NORMALIZED FREE ENERGY PREDICTED BY IDOCK:   45.18 KCAL/MOL
REMARK 922        TOTAL FREE ENERGY PREDICTED BY IDOCK:   72.48 KCAL/MOL
REMARK 923 INTER-LIGAND FREE ENERGY PREDICTED BY IDOCK:   65.31 KCAL/MOL
REMARK 924 INTRA-LIGAND FREE ENERGY PREDICTED BY IDOCK:    7.17 KCAL/MOL
REMARK 927      BINDING AFFINITY PREDICTED BY RF-SCORE:    0.00 PKD
ROOT
HETATM    1  C   UNL     1      -7.983   4.814  64.974  1.00  0.00    -0.097 C  
HETATM    2  C   UNL     1      -6.968   5.900  64.663  1.00  0.00    -0.052 C  
ENDROOT
BRANCH   2   3
HETATM    3  O   UNL     1      -7.663   7.131  64.530  1.00  0.00    -0.101 OA 
BRANCH   3   4
HETATM    4  C   UNL     1      -7.309   8.215  65.283  1.00  0.00    -0.073 A  
HETATM    5  C   UNL     1      -7.212   8.363  66.667  1.00  0.00    -0.077 A  
HETATM    6  C   UNL     1      -5.626  14.441  66.194  1.00  0.00     5.852 C  
HETATM    7  C   UNL     1      -6.905   9.626  67.217  1.00  0.00    -0.083 A  
HETATM    8  C   UNL     1      -6.121  12.758  64.585  1.00  0.00    10.230 A  
HETATM    9  C   UNL     1      -7.046   9.333  64.487  1.00  0.00    -0.093 A  
HETATM   10  C   UNL     1      -6.626  10.764  66.401  1.00  0.00    -0.128 A  
HETATM   11  N   UNL     1      -6.458  11.537  64.115  1.00  0.00     1.784 NA 
HETATM   12  C   UNL     1      -6.271  12.085  66.879  1.00  0.00    -0.073 A  
HETATM   13  C   UNL     1      -6.705  10.575  65.000  1.00  0.00     0.000 A  
HETATM   14  N   UNL     1      -5.323  15.556  66.308  1.00  0.00     1.970 NA 
HETATM   15  C   UNL     1      -6.022  13.093  65.926  1.00  0.00     5.545 A  
BRANCH   5  16
HETATM   16  N   UNL     1      -7.397   7.289  67.559  1.00  0.00    -0.090 N  
HETATM   17  C   UNL     1      -6.990   7.395  68.874  1.00  0.00    -0.078 C  
HETATM   18  H   UNL     1      -7.835   6.429  67.231  1.00  0.00     0.000 HD 
HETATM   19  O   UNL     1      -6.402   8.361  69.349  1.00  0.00    -0.037 OA 
BRANCH  17  20
HETATM   20  C   UNL     1      -7.333   6.201  69.693  1.00  0.00    -0.079 C  
HETATM   21  C   UNL     1      -7.398   6.327  71.029  1.00  0.00    -0.084 C  
BRANCH  21  22
HETATM   22  C   UNL     1      -7.783   5.280  72.033  1.00  0.00    -0.100 C  
BRANCH  22  23
HETATM   23  N   UNL     1      -8.649   5.708  73.141  1.00  0.00    -0.117 NA 
HETATM   24  C   UNL     1      -8.133   6.926  73.778  1.00  0.00    -0.112 C  
HETATM   25  C   UNL     1      -9.992   5.989  72.611  1.00  0.00    -0.176 C  
ENDBRANCH  22  23
ENDBRANCH  21  22
ENDBRANCH  17  20
ENDBRANCH   5  16
BRANCH  12  26
HETATM   26  N   UNL     1      -6.207  12.284  68.301  1.00  0.00    -0.051 NA 
HETATM   27  H   UNL     1      -5.266  12.454  68.654  1.00  0.00     0.000 HD 
BRANCH  26  28
HETATM   28  C   UNL     1      -7.207  12.288  69.299  1.00  0.00     0.123 A  
HETATM   29 CL   UNL     1      -8.409  14.848  72.138  1.00  0.00     5.135 Cl 
HETATM   30  C   UNL     1      -8.162  11.273  69.409  1.00  0.00     0.264 A  
HETATM   31  C   UNL     1      -8.356  13.462  71.100  1.00  0.00     8.498 A  
HETATM   32  C   UNL     1      -9.221  11.356  70.336  1.00  0.00     3.533 A  
HETATM   33  C   UNL     1      -7.298  13.368  70.186  1.00  0.00     1.298 A  
HETATM   34  C   UNL     1      -9.340  12.466  71.175  1.00  0.00    12.027 A  
BRANCH  34  35
HETATM   35  O   UNL     1     -10.385  12.702  72.027  1.00  0.00     9.467 OA 
BRANCH  35  36
HETATM   36  C   UNL     1     -11.637  13.125  71.485  1.00  0.00     2.010 C  
BRANCH  36  37
HETATM   37  C   UNL     1     -11.483  13.339  69.991  1.00  0.00    -0.035 A  
HETATM   38  C   UNL     1     -12.361  14.178  69.303  1.00  0.00    -0.206 A  
HETATM   39  C   UNL     1     -12.199  14.349  67.930  1.00  0.00    -0.178 A  
HETATM   40  C   UNL     1     -11.168  13.685  67.277  1.00  0.00    -0.329 A  
HETATM   41  C   UNL     1     -10.341  12.869  68.028  1.00  0.00    -0.227 A  
HETATM   42  N   UNL     1     -10.482  12.672  69.359  1.00  0.00     0.249 NA 
ENDBRANCH  36  37
ENDBRANCH  35  36
ENDBRANCH  34  35
ENDBRANCH  26  28
ENDBRANCH  12  26
ENDBRANCH   3   4
ENDBRANCH   2   3
TORSDOF 11
ENDMDL
MODEL      172
REMARK 921   NORMALIZED FREE ENERGY PREDICTED BY IDOCK:   49.24 KCAL/MOL
REMARK 922        TOTAL FREE ENERGY PREDICTED BY IDOCK:   79.14 KCAL/MOL
REMARK 923 INTER-LIGAND FREE ENERGY PREDICTED BY IDOCK:   74.19 KCAL/MOL
REMARK 924 INTRA-LIGAND FREE ENERGY PREDICTED BY IDOCK:    4.96 KCAL/MOL
REMARK 927      BINDING AFFINITY PREDICTED BY RF-SCORE:    0.00 PKD
ROOT
HETATM    1  C   UNL     1     -14.315   7.887  64.507  1.00  0.00    17.115 C  
HETATM    2  C   UNL     1     -13.890   7.283  65.835  1.00  0.00    18.649 C  
ENDROOT
BRANCH   2   3
HETATM    3  O   UNL     1     -12.509   7.553  66.022  1.00  0.00     7.381 OA 
BRANCH   3   4
HETATM    4  C   UNL     1     -12.099   8.737  66.567  1.00  0.00     7.687 A  
HETATM    5  C   UNL     1     -11.275   8.992  67.664  1.00  0.00     0.548 A  
HETATM    6  C   UNL     1     -11.965  15.228  67.097  1.00  0.00     0.211 C  
HETATM    7  C   UNL     1     -11.066  10.321  68.090  1.00  0.00    -0.324 A  
HETATM    8  C   UNL     1     -12.809  13.378  65.860  1.00  0.00    -0.089 A  
HETATM    9  C   UNL     1     -12.652   9.832  65.898  1.00  0.00    11.209 A  
HETATM   10  C   UNL     1     -11.624  11.438  67.398  1.00  0.00    -0.266 A  
HETATM   11  N   UNL     1     -13.006  12.085  65.521  1.00  0.00     0.984 NA 
HETATM   12  C   UNL     1     -11.435  12.833  67.745  1.00  0.00    -0.326 A  
HETATM   13  C   UNL     1     -12.433  11.149  66.273  1.00  0.00     3.560 A  
HETATM   14  N   UNL     1     -11.968  16.387  67.151  1.00  0.00     1.049 NA 
HETATM   15  C   UNL     1     -12.058  13.809  66.942  1.00  0.00    -0.454 A  
BRANCH   5  16
HETATM   16  N   UNL     1     -10.619   7.967  68.373  1.00  0.00    -0.374 N  
HETATM   17  C   UNL     1     -10.506   6.704  67.829  1.00  0.00    -0.225 C  
HETATM   18  H   UNL     1     -10.226   8.160  69.294  1.00  0.00     0.000 HD 
HETATM   19  O   UNL     1     -10.994   6.355  66.759  1.00  0.00    -0.353 OA 
BRANCH  17  20
HETATM   20  C   UNL     1      -9.717   5.768  68.676  1.00  0.00    -0.165 C  
HETATM   21  C   UNL     1      -8.504   5.374  68.250  1.00  0.00    -0.097 C  
BRANCH  21  22
HETATM   22  C   UNL     1      -7.522   4.493  68.966  1.00  0.00    -0.056 C  
BRANCH  22  23
HETATM   23  N   UNL     1      -7.315   3.145  68.418  1.00  0.00    -0.050 NA 
HETATM   24  C   UNL     1      -7.030   3.195  66.978  1.00  0.00    -0.053 C  
HETATM   25  C   UNL     1      -6.170   2.525  69.101  1.00  0.00    -0.028 C  
ENDBRANCH  22  23
ENDBRANCH  21  22
ENDBRANCH  17  20
ENDBRANCH   5  16
BRANCH  12  26
HETATM   26  N   UNL     1     -10.629  13.129  68.897  1.00  0.00    -0.392 NA 
HETATM   27  H   UNL     1     -11.063  13.782  69.550  1.00  0.00     0.000 HD 
BRANCH  26  28
HETATM   28  C   UNL     1      -9.348  12.683  69.292  1.00  0.00     0.921 A  
HETATM   29 CL   UNL     1      -5.570  13.692  68.421  1.00  0.00    -0.088 Cl 
HETATM   30  C   UNL     1      -9.163  11.726  70.295  1.00  0.00     3.858 A  
HETATM   31  C   UNL     1      -6.925  12.921  69.175  1.00  0.00    -0.015 A  
HETATM   32  C   UNL     1      -7.875  11.383  70.756  1.00  0.00     4.251 A  
HETATM   33  C   UNL     1      -8.207  13.249  68.711  1.00  0.00     0.084 A  
HETATM   34  C   UNL     1      -6.744  11.997  70.214  1.00  0.00     0.653 A  
BRANCH  34  35
HETATM   35  O   UNL     1      -5.463  11.824  70.662  1.00  0.00    -0.130 OA 
BRANCH  35  36
HETATM   36  C   UNL     1      -5.158  10.681  71.462  1.00  0.00    -0.071 C  
BRANCH  36  37
HETATM   37  C   UNL     1      -5.891   9.476  70.903  1.00  0.00    -0.065 A  
HETATM   38  C   UNL     1      -5.766   9.134  69.556  1.00  0.00    -0.034 A  
HETATM   39  C   UNL     1      -6.458   8.027  69.070  1.00  0.00    -0.040 A  
HETATM   40  C   UNL     1      -7.253   7.287  69.936  1.00  0.00    -0.081 A  
HETATM   41  C   UNL     1      -7.327   7.690  71.257  1.00  0.00    -0.074 A  
HETATM   42  N   UNL     1      -6.679   8.768  71.755  1.00  0.00    -0.123 NA 
ENDBRANCH  36  37
ENDBRANCH  35  36
ENDBRANCH  34  35
ENDBRANCH  26  28
ENDBRANCH  12  26
ENDBRANCH   3   4
ENDBRANCH   2   3
TORSDOF 11
ENDMDL
MODEL      173
REMARK 921   NORMALIZED FREE ENERGY PREDICTED BY IDOCK:   71.63 KCAL/MOL
REMARK 922        TOTAL FREE ENERGY PREDICTED BY IDOCK:  115.94 KCAL/MOL
REMARK 923 INTER-LIGAND FREE ENERGY PREDICTED BY IDOCK:   82.15 KCAL/MOL
REMARK 924 INTRA-LIGAND FREE ENERGY PREDICTED BY IDOCK:   33.80 KCAL/MOL
REMARK 927      BINDING AFFINITY PREDICTED BY RF-SCORE:    0.00 PKD
ROOT
HETATM    1  C   UNL     1      -5.743   6.915  73.727  1.00  0.00    -0.054 C  
HETATM    2  C   UNL     1      -5.488   7.049  72.235  1.00  0.00    -0.037 C  
ENDROOT
BRANCH   2   3
HETATM    3  O   UNL     1      -5.366   8.430  71.929  1.00  0.00    -0.034 OA 
BRANCH   3   4
HETATM    4  C   UNL     1      -6.476   9.186  71.675  1.00  0.00    -0.015 A  
HETATM    5  C   UNL     1      -7.491   9.016  70.732  1.00  0.00    -0.115 A  
HETATM    6  C   UNL     1     -10.400  14.322  72.485  1.00  0.00     5.181 C  
HETATM    7  C   UNL     1      -8.501   9.994  70.605  1.00  0.00     0.571 A  
HETATM    8  C   UNL     1      -8.429  13.221  73.239  1.00  0.00    15.399 A  
HETATM    9  C   UNL     1      -6.532  10.314  72.499  1.00  0.00     1.949 A  
HETATM   10  C   UNL     1      -8.561  11.140  71.456  1.00  0.00     9.244 A  
HETATM   11  N   UNL     1      -7.466  12.274  73.289  1.00  0.00    12.225 NA 
HETATM   12  C   UNL     1      -9.577  12.173  71.417  1.00  0.00    12.772 A  
HETATM   13  C   UNL     1      -7.533  11.270  72.419  1.00  0.00    10.305 A  
HETATM   14  N   UNL     1     -11.071  15.251  72.667  1.00  0.00     0.016 NA 
HETATM   15  C   UNL     1      -9.483  13.233  72.340  1.00  0.00    16.270 A  
BRANCH   5  16
HETATM   16  N   UNL     1      -7.565   7.888  69.894  1.00  0.00    -0.087 N  
HETATM   17  C   UNL     1      -8.738   7.586  69.230  1.00  0.00    -0.136 C  
HETATM   18  H   UNL     1      -6.748   7.289  69.777  1.00  0.00     0.000 HD 
HETATM   19  O   UNL     1      -9.789   8.205  69.351  1.00  0.00    -0.176 OA 
BRANCH  17  20
HETATM   20  C   UNL     1      -8.616   6.409  68.328  1.00  0.00    -0.114 C  
HETATM   21  C   UNL     1      -9.377   6.358  67.222  1.00  0.00    -0.125 C  
BRANCH  21  22
HETATM   22  C   UNL     1      -9.371   5.305  66.151  1.00  0.00    -0.156 C  
BRANCH  22  23
HETATM   23  N   UNL     1      -8.370   4.237  66.276  1.00  0.00    -0.108 NA 
HETATM   24  C   UNL     1      -7.425   4.260  65.151  1.00  0.00    -0.073 C  
HETATM   25  C   UNL     1      -7.618   4.434  67.524  1.00  0.00    -0.077 C  
ENDBRANCH  22  23
ENDBRANCH  21  22
ENDBRANCH  17  20
ENDBRANCH   5  16
BRANCH  12  26
HETATM   26  N   UNL     1     -10.612  12.053  70.427  1.00  0.00     1.239 NA 
HETATM   27  H   UNL     1     -11.228  11.252  70.567  1.00  0.00     0.000 HD 
BRANCH  26  28
HETATM   28  C   UNL     1     -10.934  12.838  69.297  1.00  0.00    -0.070 A  
HETATM   29 CL   UNL     1     -10.118  12.685  65.377  1.00  0.00    -0.289 Cl 
HETATM   30  C   UNL     1     -11.820  13.918  69.362  1.00  0.00    -0.384 A  
HETATM   31  C   UNL     1     -10.803  13.184  66.888  1.00  0.00    -0.265 A  
HETATM   32  C   UNL     1     -12.218  14.613  68.202  1.00  0.00    -0.094 A  
HETATM   33  C   UNL     1     -10.401  12.505  68.046  1.00  0.00    -0.226 A  
HETATM   34  C   UNL     1     -11.730  14.235  66.949  1.00  0.00    -0.408 A  
BRANCH  34  35
HETATM   35  O   UNL     1     -12.134  14.764  65.753  1.00  0.00    -0.247 OA 
BRANCH  35  36
HETATM   36  C   UNL     1     -11.959  13.995  64.563  1.00  0.00    -0.448 C  
BRANCH  36  37
HETATM   37  C   UNL     1     -10.909  12.927  64.813  1.00  0.00    -0.327 A  
HETATM   38  C   UNL     1      -9.557  13.203  64.605  1.00  0.00     0.343 A  
HETATM   39  C   UNL     1      -8.617  12.200  64.836  1.00  0.00     1.372 A  
HETATM   40  C   UNL     1      -9.046  10.952  65.270  1.00  0.00    -0.217 A  
HETATM   41  C   UNL     1     -10.403  10.756  65.451  1.00  0.00    -0.247 A  
HETATM   42  N   UNL     1     -11.340  11.705  65.222  1.00  0.00    -0.212 NA 
ENDBRANCH  36  37
ENDBRANCH  35  36
ENDBRANCH  34  35
ENDBRANCH  26  28
ENDBRANCH  12  26
ENDBRANCH   3   4
ENDBRANCH   2   3
TORSDOF 11
ENDMDL
