MODEL        1
REMARK 921   NORMALIZED FREE ENERGY PREDICTED BY IDOCK:   -8.79 KCAL/MOL
REMARK 922        TOTAL FREE ENERGY PREDICTED BY IDOCK:  -13.59 KCAL/MOL
REMARK 923 INTER-LIGAND FREE ENERGY PREDICTED BY IDOCK:  -11.37 KCAL/MOL
REMARK 924 INTRA-LIGAND FREE ENERGY PREDICTED BY IDOCK:   -2.23 KCAL/MOL
REMARK 927      BINDING AFFINITY PREDICTED BY RF-SCORE:    0.00 PKD
ROOT
HETATM    1  C   UNL     1     -13.604   9.337  72.366  1.00  0.00    -0.527 C  
HETATM    2  C   UNL     1     -12.421   8.638  71.760  1.00  0.00    -0.397 A  
HETATM    3  C   UNL     1     -11.288   9.363  71.378  1.00  0.00    -0.451 A  
HETATM    4  C   UNL     1     -10.191   8.738  70.759  1.00  0.00    -0.262 A  
HETATM    5  C   UNL     1      -9.014   9.590  70.365  1.00  0.00    -0.291 C  
HETATM    6  C   UNL     1     -10.237   7.348  70.519  1.00  0.00    -0.196 A  
HETATM    7  C   UNL     1     -11.366   6.616  70.920  1.00  0.00    -0.377 A  
HETATM    8  C   UNL     1     -12.450   7.258  71.535  1.00  0.00    -0.408 A  
ENDROOT
BRANCH   6   9
HETATM    9  C   UNL     1      -9.119   6.669  69.790  1.00  0.00    -0.143 C  
HETATM   10  O   UNL     1      -8.075   6.325  70.321  1.00  0.00    -0.112 OA 
BRANCH   9  11
HETATM   11  O   UNL     1      -9.434   6.474  68.483  1.00  0.00    -0.124 OA 
BRANCH  11  12
HETATM   12  C   UNL     1      -8.479   7.023  67.556  1.00  0.00    -0.122 C  
BRANCH  12  13
HETATM   13  C   UNL     1      -9.096   8.165  66.785  1.00  0.00    -0.191 A  
HETATM   14  C   UNL     1      -8.375   8.825  65.782  1.00  0.00    -0.139 A  
HETATM   15  C   UNL     1      -8.887   9.975  65.178  1.00  0.00    -0.207 A  
HETATM   16  C   UNL     1     -10.132  10.488  65.569  1.00  0.00    -0.349 A  
HETATM   17  C   UNL     1     -10.897   9.762  66.495  1.00  0.00     0.053 A  
HETATM   18  C   UNL     1     -10.603  11.831  65.017  1.00  0.00    -0.338 C  
HETATM   19  C   UNL     1     -10.376   8.623  67.112  1.00  0.00    -0.369 A  
HETATM   20  C   UNL     1     -11.449  12.619  66.038  1.00  0.00    -0.368 C  
HETATM   21  C   UNL     1     -11.374  11.638  63.691  1.00  0.00    -0.394 C  
HETATM   22  O   UNL     1     -12.618  12.920  65.791  1.00  0.00    -0.538 OA 
HETATM   23  N   UNL     1     -11.756  12.906  63.049  1.00  0.00    -0.798 NA 
HETATM   24  N   UNL     1     -10.789  12.910  67.227  1.00  0.00    -0.252 N  
HETATM   25  H1  UNL     1     -12.264  12.778  62.174  1.00  0.00     0.000 HD 
HETATM   26  H2  UNL     1     -10.939  13.501  62.910  1.00  0.00     0.000 HD 
HETATM   27  H   UNL     1      -9.833  12.568  67.327  1.00  0.00     0.000 HD 
BRANCH  24  28
HETATM   28  C   UNL     1     -11.334  13.642  68.308  1.00  0.00    -0.289 A  
HETATM   29  C   UNL     1     -11.321  15.038  68.354  1.00  0.00    -0.323 A  
HETATM   30  C   UNL     1     -11.902  15.730  69.416  1.00  0.00    -0.361 A  
HETATM   31  C   UNL     1     -12.500  15.034  70.472  1.00  0.00    -0.425 A  
HETATM   32  C   UNL     1     -13.103  15.687  71.549  1.00  0.00    -0.485 A  
HETATM   33  N   UNL     1     -13.676  15.060  72.600  1.00  0.00    -0.456 NA 
HETATM   34  C   UNL     1     -13.650  13.712  72.579  1.00  0.00    -0.570 A  
HETATM   35  C   UNL     1     -13.088  12.961  71.555  1.00  0.00    -0.390 A  
HETATM   36  C   UNL     1     -12.497  13.625  70.470  1.00  0.00    -0.394 A  
HETATM   37  C   UNL     1     -11.907  12.940  69.382  1.00  0.00    -0.371 A  
ENDBRANCH  24  28
ENDBRANCH  12  13
ENDBRANCH  11  12
ENDBRANCH   9  11
ENDBRANCH   6   9
TORSDOF 5
ENDMDL
MODEL        2
REMARK 921   NORMALIZED FREE ENERGY PREDICTED BY IDOCK:   -8.24 KCAL/MOL
REMARK 922        TOTAL FREE ENERGY PREDICTED BY IDOCK:  -12.88 KCAL/MOL
REMARK 923 INTER-LIGAND FREE ENERGY PREDICTED BY IDOCK:  -11.11 KCAL/MOL
REMARK 924 INTRA-LIGAND FREE ENERGY PREDICTED BY IDOCK:   -1.77 KCAL/MOL
REMARK 927      BINDING AFFINITY PREDICTED BY RF-SCORE:    0.00 PKD
ROOT
HETATM    1  C   UNL     1     -12.797  13.712  65.357  1.00  0.00    -0.440 C  
HETATM    2  C   UNL     1     -11.665  12.727  65.289  1.00  0.00    -0.403 A  
HETATM    3  C   UNL     1     -11.101  12.379  64.057  1.00  0.00    -0.452 A  
HETATM    4  C   UNL     1     -10.077  11.419  63.964  1.00  0.00    -0.369 A  
HETATM    5  C   UNL     1      -9.532  11.089  62.601  1.00  0.00    -0.322 C  
HETATM    6  C   UNL     1      -9.611  10.795  65.141  1.00  0.00    -0.295 A  
HETATM    7  C   UNL     1     -10.163  11.159  66.380  1.00  0.00    -0.279 A  
HETATM    8  C   UNL     1     -11.184  12.117  66.451  1.00  0.00    -0.380 A  
ENDROOT
BRANCH   6   9
HETATM    9  C   UNL     1      -8.580   9.713  65.065  1.00  0.00    -0.162 C  
HETATM   10  O   UNL     1      -7.377   9.920  65.101  1.00  0.00    -0.120 OA 
BRANCH   9  11
HETATM   11  O   UNL     1      -9.161   8.488  64.974  1.00  0.00    -0.041 OA 
BRANCH  11  12
HETATM   12  C   UNL     1      -8.499   7.461  65.736  1.00  0.00    -0.143 C  
BRANCH  12  13
HETATM   13  C   UNL     1      -9.216   7.236  67.044  1.00  0.00    -0.170 A  
HETATM   14  C   UNL     1     -10.255   6.302  67.141  1.00  0.00    -0.247 A  
HETATM   15  C   UNL     1     -11.017   6.205  68.308  1.00  0.00    -0.397 A  
HETATM   16  C   UNL     1     -10.754   7.044  69.400  1.00  0.00    -0.259 A  
HETATM   17  C   UNL     1      -9.644   7.901  69.336  1.00  0.00    -0.160 A  
HETATM   18  C   UNL     1     -11.696   7.038  70.601  1.00  0.00    -0.384 C  
HETATM   19  C   UNL     1      -8.896   8.010  68.164  1.00  0.00    -0.132 A  
HETATM   20  C   UNL     1     -11.812   8.427  71.261  1.00  0.00    -0.289 C  
HETATM   21  C   UNL     1     -11.262   5.970  71.631  1.00  0.00    -0.268 C  
HETATM   22  O   UNL     1     -11.475   8.599  72.433  1.00  0.00    -0.363 OA 
HETATM   23  N   UNL     1     -12.196   5.835  72.760  1.00  0.00    -0.517 NA 
HETATM   24  N   UNL     1     -12.284   9.426  70.417  1.00  0.00    -0.468 N  
HETATM   25  H1  UNL     1     -11.910   5.130  73.439  1.00  0.00     0.000 HD 
HETATM   26  H2  UNL     1     -13.143   5.653  72.426  1.00  0.00     0.000 HD 
HETATM   27  H   UNL     1     -12.489   9.165  69.452  1.00  0.00     0.000 HD 
BRANCH  24  28
HETATM   28  C   UNL     1     -12.504  10.774  70.786  1.00  0.00    -0.387 A  
HETATM   29  C   UNL     1     -13.285  11.134  71.887  1.00  0.00    -0.488 A  
HETATM   30  C   UNL     1     -13.450  12.471  72.248  1.00  0.00    -0.490 A  
HETATM   31  C   UNL     1     -12.846  13.486  71.499  1.00  0.00    -0.440 A  
HETATM   32  C   UNL     1     -12.975  14.836  71.831  1.00  0.00    -0.327 A  
HETATM   33  N   UNL     1     -12.427  15.853  71.129  1.00  0.00    -0.430 NA 
HETATM   34  C   UNL     1     -11.710  15.509  70.041  1.00  0.00    -0.346 A  
HETATM   35  C   UNL     1     -11.506  14.200  69.625  1.00  0.00    -0.329 A  
HETATM   36  C   UNL     1     -12.081  13.154  70.363  1.00  0.00    -0.392 A  
HETATM   37  C   UNL     1     -11.921  11.793  70.015  1.00  0.00    -0.421 A  
ENDBRANCH  24  28
ENDBRANCH  12  13
ENDBRANCH  11  12
ENDBRANCH   9  11
ENDBRANCH   6   9
TORSDOF 5
ENDMDL
MODEL        3
REMARK 921   NORMALIZED FREE ENERGY PREDICTED BY IDOCK:   -7.99 KCAL/MOL
REMARK 922        TOTAL FREE ENERGY PREDICTED BY IDOCK:  -12.55 KCAL/MOL
REMARK 923 INTER-LIGAND FREE ENERGY PREDICTED BY IDOCK:  -10.33 KCAL/MOL
REMARK 924 INTRA-LIGAND FREE ENERGY PREDICTED BY IDOCK:   -2.22 KCAL/MOL
REMARK 927      BINDING AFFINITY PREDICTED BY RF-SCORE:    0.00 PKD
ROOT
HETATM    1  C   UNL     1     -12.387   8.223  71.878  1.00  0.00    -0.379 C  
HETATM    2  C   UNL     1     -11.289   7.577  71.084  1.00  0.00    -0.288 A  
HETATM    3  C   UNL     1     -10.082   8.251  70.862  1.00  0.00    -0.224 A  
HETATM    4  C   UNL     1      -9.061   7.687  70.076  1.00  0.00    -0.151 A  
HETATM    5  C   UNL     1      -7.798   8.481  69.873  1.00  0.00    -0.096 C  
HETATM    6  C   UNL     1      -9.260   6.415  69.499  1.00  0.00    -0.144 A  
HETATM    7  C   UNL     1     -10.463   5.730  69.737  1.00  0.00    -0.363 A  
HETATM    8  C   UNL     1     -11.469   6.309  70.523  1.00  0.00    -0.407 A  
ENDROOT
BRANCH   6   9
HETATM    9  C   UNL     1      -8.225   5.826  68.593  1.00  0.00    -0.105 C  
HETATM   10  O   UNL     1      -7.205   5.285  68.991  1.00  0.00    -0.059 OA 
BRANCH   9  11
HETATM   11  O   UNL     1      -8.584   5.956  67.289  1.00  0.00    -0.108 OA 
BRANCH  11  12
HETATM   12  C   UNL     1      -7.700   6.786  66.512  1.00  0.00    -0.102 C  
BRANCH  12  13
HETATM   13  C   UNL     1      -8.417   8.037  66.066  1.00  0.00    -0.144 A  
HETATM   14  C   UNL     1      -7.729   9.058  65.398  1.00  0.00    -0.095 A  
HETATM   15  C   UNL     1      -8.356  10.276  65.123  1.00  0.00    -0.162 A  
HETATM   16  C   UNL     1      -9.684  10.495  65.514  1.00  0.00    -0.298 A  
HETATM   17  C   UNL     1     -10.400   9.431  66.084  1.00  0.00    -0.162 A  
HETATM   18  C   UNL     1     -10.301  11.882  65.352  1.00  0.00    -0.306 C  
HETATM   19  C   UNL     1      -9.768   8.222  66.376  1.00  0.00    -0.300 A  
HETATM   20  C   UNL     1     -11.316  12.205  66.467  1.00  0.00    -0.350 C  
HETATM   21  C   UNL     1     -10.944  12.036  63.955  1.00  0.00    -0.381 C  
HETATM   22  O   UNL     1     -12.496  12.435  66.198  1.00  0.00    -0.507 OA 
HETATM   23  N   UNL     1     -11.455  13.390  63.694  1.00  0.00    -0.625 NA 
HETATM   24  N   UNL     1     -10.786  12.175  67.752  1.00  0.00    -0.216 N  
HETATM   25  H1  UNL     1     -11.879  13.491  62.772  1.00  0.00     0.000 HD 
HETATM   26  H2  UNL     1     -10.723  14.086  63.834  1.00  0.00     0.000 HD 
HETATM   27  H   UNL     1      -9.801  11.928  67.847  1.00  0.00     0.000 HD 
BRANCH  24  28
HETATM   28  C   UNL     1     -11.502  12.459  68.940  1.00  0.00    -0.307 A  
HETATM   29  C   UNL     1     -11.953  11.459  69.802  1.00  0.00    -0.422 A  
HETATM   30  C   UNL     1     -12.622  11.775  70.985  1.00  0.00    -0.409 A  
HETATM   31  C   UNL     1     -12.868  13.109  71.325  1.00  0.00    -0.384 A  
HETATM   32  C   UNL     1     -13.523  13.470  72.504  1.00  0.00    -0.556 A  
HETATM   33  N   UNL     1     -13.800  14.742  72.866  1.00  0.00    -0.502 NA 
HETATM   34  C   UNL     1     -13.404  15.707  72.012  1.00  0.00    -0.455 A  
HETATM   35  C   UNL     1     -12.736  15.463  70.820  1.00  0.00    -0.516 A  
HETATM   36  C   UNL     1     -12.454  14.138  70.456  1.00  0.00    -0.431 A  
HETATM   37  C   UNL     1     -11.774  13.799  69.263  1.00  0.00    -0.376 A  
ENDBRANCH  24  28
ENDBRANCH  12  13
ENDBRANCH  11  12
ENDBRANCH   9  11
ENDBRANCH   6   9
TORSDOF 5
ENDMDL
MODEL        4
REMARK 921   NORMALIZED FREE ENERGY PREDICTED BY IDOCK:   -7.81 KCAL/MOL
REMARK 922        TOTAL FREE ENERGY PREDICTED BY IDOCK:  -12.31 KCAL/MOL
REMARK 923 INTER-LIGAND FREE ENERGY PREDICTED BY IDOCK:  -11.17 KCAL/MOL
REMARK 924 INTRA-LIGAND FREE ENERGY PREDICTED BY IDOCK:   -1.15 KCAL/MOL
REMARK 927      BINDING AFFINITY PREDICTED BY RF-SCORE:    0.00 PKD
ROOT
HETATM    1  C   UNL     1     -14.408   8.422  72.119  1.00  0.00    -0.520 C  
HETATM    2  C   UNL     1     -13.007   8.365  71.583  1.00  0.00    -0.355 A  
HETATM    3  C   UNL     1     -12.497   7.174  71.056  1.00  0.00    -0.359 A  
HETATM    4  C   UNL     1     -11.170   7.082  70.598  1.00  0.00    -0.327 A  
HETATM    5  C   UNL     1     -10.692   5.761  70.058  1.00  0.00    -0.400 C  
HETATM    6  C   UNL     1     -10.337   8.219  70.674  1.00  0.00    -0.220 A  
HETATM    7  C   UNL     1     -10.855   9.421  71.184  1.00  0.00    -0.427 A  
HETATM    8  C   UNL     1     -12.179   9.491  71.636  1.00  0.00    -0.477 A  
ENDROOT
BRANCH   6   9
HETATM    9  C   UNL     1      -8.899   8.129  70.269  1.00  0.00    -0.141 C  
HETATM   10  O   UNL     1      -8.065   7.475  70.875  1.00  0.00    -0.101 OA 
BRANCH   9  11
HETATM   11  O   UNL     1      -8.662   8.846  69.140  1.00  0.00    -0.129 OA 
BRANCH  11  12
HETATM   12  C   UNL     1      -9.228   8.275  67.946  1.00  0.00    -0.132 C  
BRANCH  12  13
HETATM   13  C   UNL     1      -9.778   9.362  67.056  1.00  0.00    -0.233 A  
HETATM   14  C   UNL     1      -9.536   9.350  65.676  1.00  0.00    -0.345 A  
HETATM   15  C   UNL     1      -9.912  10.434  64.879  1.00  0.00    -0.409 A  
HETATM   16  C   UNL     1     -10.538  11.552  65.449  1.00  0.00    -0.336 A  
HETATM   17  C   UNL     1     -10.875  11.510  66.811  1.00  0.00    -0.330 A  
HETATM   18  C   UNL     1     -10.795  12.791  64.596  1.00  0.00    -0.361 C  
HETATM   19  C   UNL     1     -10.481  10.436  67.610  1.00  0.00    -0.277 A  
HETATM   20  C   UNL     1     -10.688  14.096  65.411  1.00  0.00    -0.342 C  
HETATM   21  C   UNL     1     -12.166  12.692  63.888  1.00  0.00    -0.481 C  
HETATM   22  O   UNL     1     -11.653  14.852  65.523  1.00  0.00    -0.336 OA 
HETATM   23  N   UNL     1     -12.423  13.804  62.959  1.00  0.00    -1.000 NA 
HETATM   24  N   UNL     1      -9.448  14.299  66.007  1.00  0.00    -0.499 N  
HETATM   25  H1  UNL     1     -13.327  13.738  62.491  1.00  0.00     0.000 HD 
HETATM   26  H2  UNL     1     -11.668  13.888  62.278  1.00  0.00     0.000 HD 
HETATM   27  H   UNL     1      -8.740  13.576  65.874  1.00  0.00     0.000 HD 
BRANCH  24  28
HETATM   28  C   UNL     1      -9.087  15.427  66.782  1.00  0.00    -0.259 A  
HETATM   29  C   UNL     1      -9.030  15.393  68.177  1.00  0.00    -0.176 A  
HETATM   30  C   UNL     1      -8.632  16.512  68.909  1.00  0.00    -0.241 A  
HETATM   31  C   UNL     1      -8.296  17.702  68.257  1.00  0.00    -0.274 A  
HETATM   32  C   UNL     1      -7.882  18.842  68.950  1.00  0.00    -0.258 A  
HETATM   33  N   UNL     1      -7.564  20.019  68.367  1.00  0.00    -0.253 NA 
HETATM   34  C   UNL     1      -7.661  20.066  67.023  1.00  0.00    -0.294 A  
HETATM   35  C   UNL     1      -8.051  18.991  66.234  1.00  0.00    -0.298 A  
HETATM   36  C   UNL     1      -8.377  17.775  66.852  1.00  0.00    -0.257 A  
HETATM   37  C   UNL     1      -8.778  16.630  66.126  1.00  0.00    -0.322 A  
ENDBRANCH  24  28
ENDBRANCH  12  13
ENDBRANCH  11  12
ENDBRANCH   9  11
ENDBRANCH   6   9
TORSDOF 5
ENDMDL
MODEL        5
REMARK 921   NORMALIZED FREE ENERGY PREDICTED BY IDOCK:   -7.63 KCAL/MOL
REMARK 922        TOTAL FREE ENERGY PREDICTED BY IDOCK:  -12.09 KCAL/MOL
REMARK 923 INTER-LIGAND FREE ENERGY PREDICTED BY IDOCK:  -10.71 KCAL/MOL
REMARK 924 INTRA-LIGAND FREE ENERGY PREDICTED BY IDOCK:   -1.38 KCAL/MOL
REMARK 927      BINDING AFFINITY PREDICTED BY RF-SCORE:    0.00 PKD
ROOT
HETATM    1  C   UNL     1      -8.830   7.669  67.754  1.00  0.00    -0.125 C  
HETATM    2  C   UNL     1      -9.197   8.576  66.616  1.00  0.00    -0.223 A  
HETATM    3  C   UNL     1      -8.603   8.414  65.359  1.00  0.00    -0.193 A  
HETATM    4  C   UNL     1      -8.891   9.285  64.294  1.00  0.00    -0.185 A  
HETATM    5  C   UNL     1      -8.200   9.053  62.977  1.00  0.00    -0.184 C  
HETATM    6  C   UNL     1      -9.799  10.347  64.499  1.00  0.00    -0.405 A  
HETATM    7  C   UNL     1     -10.411  10.498  65.754  1.00  0.00    -0.270 A  
HETATM    8  C   UNL     1     -10.110   9.620  66.804  1.00  0.00    -0.301 A  
ENDROOT
BRANCH   6   9
HETATM    9  C   UNL     1     -10.063  11.337  63.408  1.00  0.00    -0.400 C  
HETATM   10  O   UNL     1      -9.191  11.803  62.692  1.00  0.00    -0.303 OA 
BRANCH   9  11
HETATM   11  O   UNL     1     -11.388  11.620  63.314  1.00  0.00    -0.347 OA 
BRANCH  11  12
HETATM   12  C   UNL     1     -11.695  13.027  63.330  1.00  0.00    -0.415 C  
BRANCH  12  13
HETATM   13  C   UNL     1     -11.642  13.557  64.742  1.00  0.00    -0.372 A  
HETATM   14  C   UNL     1     -10.561  14.335  65.176  1.00  0.00    -0.423 A  
HETATM   15  C   UNL     1     -10.438  14.695  66.520  1.00  0.00    -0.290 A  
HETATM   16  C   UNL     1     -11.395  14.280  67.457  1.00  0.00    -0.346 A  
HETATM   17  C   UNL     1     -12.531  13.594  66.998  1.00  0.00    -0.131 A  
HETATM   18  C   UNL     1     -11.162  14.542  68.943  1.00  0.00    -0.283 C  
HETATM   19  C   UNL     1     -12.643  13.219  65.658  1.00  0.00    -0.469 A  
HETATM   20  C   UNL     1     -11.746  13.426  69.833  1.00  0.00    -0.267 C  
HETATM   21  C   UNL     1     -11.723  15.924  69.349  1.00  0.00    -0.343 C  
HETATM   22  O   UNL     1     -12.624  13.673  70.660  1.00  0.00    -0.327 OA 
HETATM   23  N   UNL     1     -11.427  16.286  70.744  1.00  0.00    -0.537 NA 
HETATM   24  N   UNL     1     -11.222  12.162  69.586  1.00  0.00    -0.472 N  
HETATM   25  H1  UNL     1     -11.797  17.198  71.012  1.00  0.00     0.000 HD 
HETATM   26  H2  UNL     1     -10.425  16.233  70.926  1.00  0.00     0.000 HD 
HETATM   27  H   UNL     1     -10.529  12.080  68.842  1.00  0.00     0.000 HD 
BRANCH  24  28
HETATM   28  C   UNL     1     -11.571  10.980  70.282  1.00  0.00    -0.322 A  
HETATM   29  C   UNL     1     -12.832  10.788  70.850  1.00  0.00    -0.443 A  
HETATM   30  C   UNL     1     -13.157   9.595  71.496  1.00  0.00    -0.488 A  
HETATM   31  C   UNL     1     -12.214   8.568  71.602  1.00  0.00    -0.371 A  
HETATM   32  C   UNL     1     -12.501   7.354  72.230  1.00  0.00    -0.092 A  
HETATM   33  N   UNL     1     -11.619   6.340  72.374  1.00  0.00    -0.296 NA 
HETATM   34  C   UNL     1     -10.387   6.542  71.865  1.00  0.00    -0.200 A  
HETATM   35  C   UNL     1      -9.997   7.703  71.212  1.00  0.00    -0.195 A  
HETATM   36  C   UNL     1     -10.923   8.748  71.069  1.00  0.00    -0.328 A  
HETATM   37  C   UNL     1     -10.613   9.962  70.414  1.00  0.00    -0.364 A  
ENDBRANCH  24  28
ENDBRANCH  12  13
ENDBRANCH  11  12
ENDBRANCH   9  11
ENDBRANCH   6   9
TORSDOF 5
ENDMDL
MODEL        6
REMARK 921   NORMALIZED FREE ENERGY PREDICTED BY IDOCK:   -7.45 KCAL/MOL
REMARK 922        TOTAL FREE ENERGY PREDICTED BY IDOCK:  -11.86 KCAL/MOL
REMARK 923 INTER-LIGAND FREE ENERGY PREDICTED BY IDOCK:  -10.80 KCAL/MOL
REMARK 924 INTRA-LIGAND FREE ENERGY PREDICTED BY IDOCK:   -1.06 KCAL/MOL
REMARK 927      BINDING AFFINITY PREDICTED BY RF-SCORE:    0.00 PKD
ROOT
HETATM    1  C   UNL     1     -12.195  13.353  64.582  1.00  0.00    -0.456 C  
HETATM    2  C   UNL     1     -11.063  12.371  64.666  1.00  0.00    -0.348 A  
HETATM    3  C   UNL     1     -10.664  11.649  63.535  1.00  0.00    -0.495 A  
HETATM    4  C   UNL     1      -9.643  10.685  63.603  1.00  0.00    -0.360 A  
HETATM    5  C   UNL     1      -9.282   9.941  62.345  1.00  0.00    -0.308 C  
HETATM    6  C   UNL     1      -9.007  10.441  64.839  1.00  0.00    -0.225 A  
HETATM    7  C   UNL     1      -9.393  11.180  65.970  1.00  0.00    -0.228 A  
HETATM    8  C   UNL     1     -10.414  12.135  65.883  1.00  0.00    -0.288 A  
ENDROOT
BRANCH   6   9
HETATM    9  C   UNL     1      -7.974   9.366  64.958  1.00  0.00    -0.118 C  
HETATM   10  O   UNL     1      -6.811   9.575  65.267  1.00  0.00    -0.081 OA 
BRANCH   9  11
HETATM   11  O   UNL     1      -8.507   8.143  64.702  1.00  0.00    -0.129 OA 
BRANCH  11  12
HETATM   12  C   UNL     1      -8.030   7.096  65.567  1.00  0.00    -0.122 C  
BRANCH  12  13
HETATM   13  C   UNL     1      -8.832   7.068  66.845  1.00  0.00    -0.127 A  
HETATM   14  C   UNL     1      -9.949   6.233  66.974  1.00  0.00    -0.201 A  
HETATM   15  C   UNL     1     -10.777   6.321  68.095  1.00  0.00    -0.364 A  
HETATM   16  C   UNL     1     -10.503   7.248  69.110  1.00  0.00    -0.222 A  
HETATM   17  C   UNL     1      -9.323   8.005  69.027  1.00  0.00    -0.147 A  
HETATM   18  C   UNL     1     -11.504   7.444  70.246  1.00  0.00    -0.206 C  
HETATM   19  C   UNL     1      -8.507   7.930  67.898  1.00  0.00    -0.126 A  
HETATM   20  C   UNL     1     -11.538   8.899  70.753  1.00  0.00    -0.259 C  
HETATM   21  C   UNL     1     -11.215   6.461  71.404  1.00  0.00    -0.288 C  
HETATM   22  O   UNL     1     -11.250   9.169  71.919  1.00  0.00    -0.364 OA 
HETATM   23  N   UNL     1     -12.216   6.520  72.481  1.00  0.00    -0.520 NA 
HETATM   24  N   UNL     1     -11.880   9.836  69.783  1.00  0.00    -0.456 N  
HETATM   25  H1  UNL     1     -12.025   5.871  73.245  1.00  0.00     0.000 HD 
HETATM   26  H2  UNL     1     -13.155   6.378  72.110  1.00  0.00     0.000 HD 
HETATM   27  H   UNL     1     -12.054   9.491  68.839  1.00  0.00     0.000 HD 
BRANCH  24  28
HETATM   28  C   UNL     1     -12.006  11.229  69.999  1.00  0.00    -0.368 A  
HETATM   29  C   UNL     1     -11.405  12.176  69.167  1.00  0.00    -0.333 A  
HETATM   30  C   UNL     1     -11.581  13.542  69.384  1.00  0.00    -0.369 A  
HETATM   31  C   UNL     1     -12.355  13.994  70.458  1.00  0.00    -0.437 A  
HETATM   32  C   UNL     1     -12.567  15.352  70.706  1.00  0.00    -0.442 A  
HETATM   33  N   UNL     1     -13.291  15.838  71.738  1.00  0.00    -0.446 NA 
HETATM   34  C   UNL     1     -13.835  14.925  72.569  1.00  0.00    -0.462 A  
HETATM   35  C   UNL     1     -13.698  13.552  72.411  1.00  0.00    -0.704 A  
HETATM   36  C   UNL     1     -12.945  13.062  71.334  1.00  0.00    -0.373 A  
HETATM   37  C   UNL     1     -12.759  11.681  71.095  1.00  0.00    -0.426 A  
ENDBRANCH  24  28
ENDBRANCH  12  13
ENDBRANCH  11  12
ENDBRANCH   9  11
ENDBRANCH   6   9
TORSDOF 5
ENDMDL
MODEL        7
REMARK 921   NORMALIZED FREE ENERGY PREDICTED BY IDOCK:   -7.44 KCAL/MOL
REMARK 922        TOTAL FREE ENERGY PREDICTED BY IDOCK:  -11.83 KCAL/MOL
REMARK 923 INTER-LIGAND FREE ENERGY PREDICTED BY IDOCK:  -11.06 KCAL/MOL
REMARK 924 INTRA-LIGAND FREE ENERGY PREDICTED BY IDOCK:   -0.77 KCAL/MOL
REMARK 927      BINDING AFFINITY PREDICTED BY RF-SCORE:    0.00 PKD
ROOT
HETATM    1  C   UNL     1      -9.405   3.206  70.118  1.00  0.00    -0.238 C  
HETATM    2  C   UNL     1      -9.991   4.559  70.400  1.00  0.00    -0.284 A  
HETATM    3  C   UNL     1     -10.041   5.051  71.709  1.00  0.00    -0.262 A  
HETATM    4  C   UNL     1     -10.634   6.292  72.005  1.00  0.00    -0.253 A  
HETATM    5  C   UNL     1     -10.661   6.745  73.440  1.00  0.00    -0.351 C  
HETATM    6  C   UNL     1     -11.190   7.056  70.956  1.00  0.00    -0.309 A  
HETATM    7  C   UNL     1     -11.122   6.572  69.639  1.00  0.00    -0.435 A  
HETATM    8  C   UNL     1     -10.528   5.332  69.366  1.00  0.00    -0.284 A  
ENDROOT
BRANCH   6   9
HETATM    9  C   UNL     1     -11.898   8.341  71.250  1.00  0.00    -0.288 C  
HETATM   10  O   UNL     1     -13.056   8.404  71.631  1.00  0.00    -0.328 OA 
BRANCH   9  11
HETATM   11  O   UNL     1     -11.077   9.407  71.060  1.00  0.00    -0.284 OA 
BRANCH  11  12
HETATM   12  C   UNL     1     -11.765  10.650  70.826  1.00  0.00    -0.335 C  
BRANCH  12  13
HETATM   13  C   UNL     1     -11.624  11.061  69.381  1.00  0.00    -0.383 A  
HETATM   14  C   UNL     1     -10.986  10.225  68.456  1.00  0.00    -0.294 A  
HETATM   15  C   UNL     1     -10.720  10.671  67.160  1.00  0.00    -0.327 A  
HETATM   16  C   UNL     1     -11.089  11.964  66.764  1.00  0.00    -0.359 A  
HETATM   17  C   UNL     1     -11.824  12.756  67.660  1.00  0.00    -0.396 A  
HETATM   18  C   UNL     1     -10.649  12.492  65.401  1.00  0.00    -0.310 C  
HETATM   19  C   UNL     1     -12.072  12.317  68.961  1.00  0.00    -0.197 A  
HETATM   20  C   UNL     1     -10.377  14.009  65.420  1.00  0.00    -0.359 C  
HETATM   21  C   UNL     1     -11.686  12.129  64.313  1.00  0.00    -0.373 C  
HETATM   22  O   UNL     1     -11.026  14.776  64.708  1.00  0.00    -0.390 OA 
HETATM   23  N   UNL     1     -11.264  12.509  62.956  1.00  0.00    -0.682 NA 
HETATM   24  N   UNL     1      -9.388  14.404  66.315  1.00  0.00    -0.449 N  
HETATM   25  H1  UNL     1     -11.948  12.269  62.238  1.00  0.00     0.000 HD 
HETATM   26  H2  UNL     1     -10.352  12.110  62.735  1.00  0.00     0.000 HD 
HETATM   27  H   UNL     1      -8.952  13.676  66.881  1.00  0.00     0.000 HD 
BRANCH  24  28
HETATM   28  C   UNL     1      -8.936  15.732  66.502  1.00  0.00    -0.306 A  
HETATM   29  C   UNL     1      -7.597  16.098  66.352  1.00  0.00    -0.050 A  
HETATM   30  C   UNL     1      -7.190  17.423  66.506  1.00  0.00    -0.305 A  
HETATM   31  C   UNL     1      -8.120  18.415  66.832  1.00  0.00    -0.257 A  
HETATM   32  C   UNL     1      -7.758  19.756  66.984  1.00  0.00    -0.272 A  
HETATM   33  N   UNL     1      -8.615  20.747  67.316  1.00  0.00    -0.228 NA 
HETATM   34  C   UNL     1      -9.901  20.387  67.505  1.00  0.00    -0.424 A  
HETATM   35  C   UNL     1     -10.373  19.088  67.369  1.00  0.00    -0.504 A  
HETATM   36  C   UNL     1      -9.472  18.069  67.024  1.00  0.00    -0.273 A  
HETATM   37  C   UNL     1      -9.867  16.721  66.859  1.00  0.00    -0.269 A  
ENDBRANCH  24  28
ENDBRANCH  12  13
ENDBRANCH  11  12
ENDBRANCH   9  11
ENDBRANCH   6   9
TORSDOF 5
ENDMDL
MODEL        8
REMARK 921   NORMALIZED FREE ENERGY PREDICTED BY IDOCK:   -7.37 KCAL/MOL
REMARK 922        TOTAL FREE ENERGY PREDICTED BY IDOCK:  -11.75 KCAL/MOL
REMARK 923 INTER-LIGAND FREE ENERGY PREDICTED BY IDOCK:   -9.58 KCAL/MOL
REMARK 924 INTRA-LIGAND FREE ENERGY PREDICTED BY IDOCK:   -2.17 KCAL/MOL
REMARK 927      BINDING AFFINITY PREDICTED BY RF-SCORE:    0.00 PKD
ROOT
HETATM    1  C   UNL     1     -13.365  11.500  71.856  1.00  0.00    -0.408 C  
HETATM    2  C   UNL     1     -12.754  10.153  71.599  1.00  0.00    -0.549 A  
HETATM    3  C   UNL     1     -11.413  10.044  71.214  1.00  0.00    -0.390 A  
HETATM    4  C   UNL     1     -10.835   8.797  70.915  1.00  0.00    -0.293 A  
HETATM    5  C   UNL     1      -9.390   8.765  70.495  1.00  0.00    -0.219 C  
HETATM    6  C   UNL     1     -11.626   7.632  71.006  1.00  0.00    -0.301 A  
HETATM    7  C   UNL     1     -12.967   7.739  71.412  1.00  0.00    -0.322 A  
HETATM    8  C   UNL     1     -13.525   8.991  71.704  1.00  0.00    -0.442 A  
ENDROOT
BRANCH   6   9
HETATM    9  C   UNL     1     -11.060   6.302  70.618  1.00  0.00    -0.327 C  
HETATM   10  O   UNL     1     -10.466   5.567  71.391  1.00  0.00    -0.226 OA 
BRANCH   9  11
HETATM   11  O   UNL     1     -11.316   6.024  69.313  1.00  0.00    -0.384 OA 
BRANCH  11  12
HETATM   12  C   UNL     1     -10.146   5.710  68.534  1.00  0.00    -0.182 C  
BRANCH  12  13
HETATM   13  C   UNL     1      -9.884   6.799  67.524  1.00  0.00    -0.164 A  
HETATM   14  C   UNL     1      -8.686   6.832  66.799  1.00  0.00    -0.122 A  
HETATM   15  C   UNL     1      -8.380   7.921  65.979  1.00  0.00    -0.128 A  
HETATM   16  C   UNL     1      -9.269   9.000  65.871  1.00  0.00    -0.290 A  
HETATM   17  C   UNL     1     -10.514   8.912  66.513  1.00  0.00    -0.175 A  
HETATM   18  C   UNL     1      -8.849  10.251  65.103  1.00  0.00    -0.205 C  
HETATM   19  C   UNL     1     -10.810   7.832  67.347  1.00  0.00    -0.207 A  
HETATM   20  C   UNL     1      -9.449  11.537  65.706  1.00  0.00    -0.234 C  
HETATM   21  C   UNL     1      -9.211  10.120  63.606  1.00  0.00    -0.282 C  
HETATM   22  O   UNL     1     -10.200  12.254  65.044  1.00  0.00    -0.279 OA 
HETATM   23  N   UNL     1      -8.729  11.245  62.789  1.00  0.00    -0.494 NA 
HETATM   24  N   UNL     1      -9.092  11.770  67.030  1.00  0.00    -0.181 N  
HETATM   25  H1  UNL     1      -8.968  11.159  61.801  1.00  0.00     0.000 HD 
HETATM   26  H2  UNL     1      -7.725  11.375  62.910  1.00  0.00     0.000 HD 
HETATM   27  H   UNL     1      -8.496  11.077  67.483  1.00  0.00     0.000 HD 
BRANCH  24  28
HETATM   28  C   UNL     1      -9.488  12.890  67.800  1.00  0.00    -0.202 A  
HETATM   29  C   UNL     1      -8.703  14.040  67.911  1.00  0.00    -0.184 A  
HETATM   30  C   UNL     1      -9.140  15.142  68.646  1.00  0.00    -0.195 A  
HETATM   31  C   UNL     1     -10.374  15.111  69.303  1.00  0.00    -0.258 A  
HETATM   32  C   UNL     1     -10.855  16.196  70.040  1.00  0.00    -0.349 A  
HETATM   33  N   UNL     1     -12.031  16.207  70.706  1.00  0.00    -0.281 NA 
HETATM   34  C   UNL     1     -12.769  15.081  70.635  1.00  0.00    -0.376 A  
HETATM   35  C   UNL     1     -12.394  13.949  69.923  1.00  0.00    -0.358 A  
HETATM   36  C   UNL     1     -11.171  13.951  69.236  1.00  0.00    -0.296 A  
HETATM   37  C   UNL     1     -10.714  12.845  68.483  1.00  0.00    -0.275 A  
ENDBRANCH  24  28
ENDBRANCH  12  13
ENDBRANCH  11  12
ENDBRANCH   9  11
ENDBRANCH   6   9
TORSDOF 5
ENDMDL
MODEL        9
REMARK 921   NORMALIZED FREE ENERGY PREDICTED BY IDOCK:   -7.31 KCAL/MOL
REMARK 922        TOTAL FREE ENERGY PREDICTED BY IDOCK:  -11.67 KCAL/MOL
REMARK 923 INTER-LIGAND FREE ENERGY PREDICTED BY IDOCK:  -10.84 KCAL/MOL
REMARK 924 INTRA-LIGAND FREE ENERGY PREDICTED BY IDOCK:   -0.83 KCAL/MOL
REMARK 927      BINDING AFFINITY PREDICTED BY RF-SCORE:    0.00 PKD
ROOT
HETATM    1  C   UNL     1     -10.724   3.841  73.967  1.00  0.00    -0.289 C  
HETATM    2  C   UNL     1     -10.704   4.655  72.706  1.00  0.00    -0.273 A  
HETATM    3  C   UNL     1     -11.679   5.632  72.476  1.00  0.00    -0.255 A  
HETATM    4  C   UNL     1     -11.712   6.368  71.279  1.00  0.00    -0.359 A  
HETATM    5  C   UNL     1     -12.802   7.392  71.102  1.00  0.00    -0.305 C  
HETATM    6  C   UNL     1     -10.740   6.114  70.288  1.00  0.00    -0.355 A  
HETATM    7  C   UNL     1      -9.749   5.148  70.526  1.00  0.00    -0.260 A  
HETATM    8  C   UNL     1      -9.733   4.424  71.725  1.00  0.00    -0.236 A  
ENDROOT
BRANCH   6   9
HETATM    9  C   UNL     1     -10.798   6.825  68.972  1.00  0.00    -0.249 C  
HETATM   10  O   UNL     1     -11.302   6.348  67.967  1.00  0.00    -0.267 OA 
BRANCH   9  11
HETATM   11  O   UNL     1     -10.243   8.061  69.058  1.00  0.00    -0.201 OA 
BRANCH  11  12
HETATM   12  C   UNL     1      -9.292   8.357  68.019  1.00  0.00    -0.136 C  
BRANCH  12  13
HETATM   13  C   UNL     1      -9.822   9.446  67.119  1.00  0.00    -0.242 A  
HETATM   14  C   UNL     1      -9.581   9.418  65.739  1.00  0.00    -0.340 A  
HETATM   15  C   UNL     1      -9.938  10.500  64.933  1.00  0.00    -0.401 A  
HETATM   16  C   UNL     1     -10.545  11.633  65.492  1.00  0.00    -0.329 A  
HETATM   17  C   UNL     1     -10.883  11.610  66.854  1.00  0.00    -0.322 A  
HETATM   18  C   UNL     1     -10.781  12.869  64.628  1.00  0.00    -0.373 C  
HETATM   19  C   UNL     1     -10.508  10.536  67.663  1.00  0.00    -0.276 A  
HETATM   20  C   UNL     1     -10.652  14.179  65.431  1.00  0.00    -0.346 C  
HETATM   21  C   UNL     1     -12.153  12.787  63.920  1.00  0.00    -0.486 C  
HETATM   22  O   UNL     1     -11.604  14.952  65.536  1.00  0.00    -0.336 OA 
HETATM   23  N   UNL     1     -12.391  13.895  62.981  1.00  0.00    -1.023 NA 
HETATM   24  N   UNL     1      -9.408  14.367  66.026  1.00  0.00    -0.514 N  
HETATM   25  H1  UNL     1     -13.296  13.840  62.513  1.00  0.00     0.000 HD 
HETATM   26  H2  UNL     1     -11.634  13.960  62.300  1.00  0.00     0.000 HD 
HETATM   27  H   UNL     1      -8.713  13.631  65.900  1.00  0.00     0.000 HD 
BRANCH  24  28
HETATM   28  C   UNL     1      -9.029  15.495  66.791  1.00  0.00    -0.266 A  
HETATM   29  C   UNL     1      -9.055  15.500  68.187  1.00  0.00    -0.184 A  
HETATM   30  C   UNL     1      -8.637  16.615  68.912  1.00  0.00    -0.235 A  
HETATM   31  C   UNL     1      -8.195  17.765  68.250  1.00  0.00    -0.285 A  
HETATM   32  C   UNL     1      -7.758  18.900  68.937  1.00  0.00    -0.286 A  
HETATM   33  N   UNL     1      -7.340  20.040  68.343  1.00  0.00    -0.285 NA 
HETATM   34  C   UNL     1      -7.356  20.052  66.995  1.00  0.00    -0.254 A  
HETATM   35  C   UNL     1      -7.760  18.979  66.212  1.00  0.00    -0.295 A  
HETATM   36  C   UNL     1      -8.191  17.801  66.842  1.00  0.00    -0.254 A  
HETATM   37  C   UNL     1      -8.614  16.659  66.123  1.00  0.00    -0.324 A  
ENDBRANCH  24  28
ENDBRANCH  12  13
ENDBRANCH  11  12
ENDBRANCH   9  11
ENDBRANCH   6   9
TORSDOF 5
ENDMDL
MODEL       10
REMARK 921   NORMALIZED FREE ENERGY PREDICTED BY IDOCK:   -7.30 KCAL/MOL
REMARK 922        TOTAL FREE ENERGY PREDICTED BY IDOCK:  -11.66 KCAL/MOL
REMARK 923 INTER-LIGAND FREE ENERGY PREDICTED BY IDOCK:  -10.51 KCAL/MOL
REMARK 924 INTRA-LIGAND FREE ENERGY PREDICTED BY IDOCK:   -1.15 KCAL/MOL
REMARK 927      BINDING AFFINITY PREDICTED BY RF-SCORE:    0.00 PKD
ROOT
HETATM    1  C   UNL     1     -12.874  15.345  70.874  1.00  0.00    -0.536 C  
HETATM    2  C   UNL     1     -12.894  13.876  71.182  1.00  0.00    -0.423 A  
HETATM    3  C   UNL     1     -12.112  12.985  70.439  1.00  0.00    -0.391 A  
HETATM    4  C   UNL     1     -12.156  11.599  70.673  1.00  0.00    -0.432 A  
HETATM    5  C   UNL     1     -11.295  10.704  69.822  1.00  0.00    -0.371 C  
HETATM    6  C   UNL     1     -13.008  11.098  71.681  1.00  0.00    -0.548 A  
HETATM    7  C   UNL     1     -13.778  11.994  72.441  1.00  0.00     0.081 A  
HETATM    8  C   UNL     1     -13.721  13.372  72.191  1.00  0.00    -0.646 A  
ENDROOT
BRANCH   6   9
HETATM    9  C   UNL     1     -13.136   9.623  71.899  1.00  0.00    -0.436 C  
HETATM   10  O   UNL     1     -14.034   8.944  71.427  1.00  0.00    -0.363 OA 
BRANCH   9  11
HETATM   11  O   UNL     1     -12.116   9.151  72.662  1.00  0.00    -0.141 OA 
BRANCH  11  12
HETATM   12  C   UNL     1     -11.889   7.735  72.536  1.00  0.00    -0.302 C  
BRANCH  12  13
HETATM   13  C   UNL     1     -10.954   7.456  71.384  1.00  0.00    -0.258 A  
HETATM   14  C   UNL     1      -9.567   7.431  71.577  1.00  0.00    -0.163 A  
HETATM   15  C   UNL     1      -8.700   7.326  70.486  1.00  0.00    -0.148 A  
HETATM   16  C   UNL     1      -9.206   7.247  69.181  1.00  0.00    -0.139 A  
HETATM   17  C   UNL     1     -10.596   7.163  69.005  1.00  0.00    -0.225 A  
HETATM   18  C   UNL     1      -8.247   7.297  67.994  1.00  0.00    -0.120 C  
HETATM   19  C   UNL     1     -11.461   7.287  70.092  1.00  0.00    -0.197 A  
HETATM   20  C   UNL     1      -8.867   8.000  66.770  1.00  0.00    -0.140 C  
HETATM   21  C   UNL     1      -7.756   5.877  67.628  1.00  0.00    -0.097 C  
HETATM   22  O   UNL     1      -9.017   7.399  65.706  1.00  0.00    -0.127 OA 
HETATM   23  N   UNL     1      -6.739   5.869  66.565  1.00  0.00    -0.056 NA 
HETATM   24  N   UNL     1      -9.253   9.317  66.999  1.00  0.00    -0.136 N  
HETATM   25  H1  UNL     1      -6.415   4.933  66.323  1.00  0.00     0.000 HD 
HETATM   26  H2  UNL     1      -5.954   6.472  66.810  1.00  0.00     0.000 HD 
HETATM   27  H   UNL     1      -9.115   9.688  67.940  1.00  0.00     0.000 HD 
BRANCH  24  28
HETATM   28  C   UNL     1      -9.820  10.183  66.035  1.00  0.00    -0.246 A  
HETATM   29  C   UNL     1      -9.612  10.021  64.664  1.00  0.00    -0.363 A  
HETATM   30  C   UNL     1     -10.218  10.870  63.738  1.00  0.00    -0.407 A  
HETATM   31  C   UNL     1     -11.039  11.916  64.168  1.00  0.00    -0.441 A  
HETATM   32  C   UNL     1     -11.675  12.782  63.275  1.00  0.00    -0.375 A  
HETATM   33  N   UNL     1     -12.462  13.817  63.642  1.00  0.00    -0.781 NA 
HETATM   34  C   UNL     1     -12.628  14.002  64.967  1.00  0.00    -0.390 A  
HETATM   35  C   UNL     1     -12.054  13.196  65.942  1.00  0.00    -0.501 A  
HETATM   36  C   UNL     1     -11.240  12.125  65.547  1.00  0.00    -0.381 A  
HETATM   37  C   UNL     1     -10.621  11.252  66.471  1.00  0.00    -0.315 A  
ENDBRANCH  24  28
ENDBRANCH  12  13
ENDBRANCH  11  12
ENDBRANCH   9  11
ENDBRANCH   6   9
TORSDOF 5
ENDMDL
MODEL       11
REMARK 921   NORMALIZED FREE ENERGY PREDICTED BY IDOCK:   -7.22 KCAL/MOL
REMARK 922        TOTAL FREE ENERGY PREDICTED BY IDOCK:  -11.55 KCAL/MOL
REMARK 923 INTER-LIGAND FREE ENERGY PREDICTED BY IDOCK:   -8.95 KCAL/MOL
REMARK 924 INTRA-LIGAND FREE ENERGY PREDICTED BY IDOCK:   -2.60 KCAL/MOL
REMARK 927      BINDING AFFINITY PREDICTED BY RF-SCORE:    0.00 PKD
ROOT
HETATM    1  C   UNL     1     -12.118  12.468  69.529  1.00  0.00    -0.248 C  
HETATM    2  C   UNL     1     -11.922  11.244  70.374  1.00  0.00    -0.471 A  
HETATM    3  C   UNL     1     -10.688  10.584  70.392  1.00  0.00    -0.074 A  
HETATM    4  C   UNL     1     -10.497   9.404  71.133  1.00  0.00    -0.392 A  
HETATM    5  C   UNL     1      -9.144   8.745  71.089  1.00  0.00    -0.285 C  
HETATM    6  C   UNL     1     -11.576   8.876  71.875  1.00  0.00    -0.442 A  
HETATM    7  C   UNL     1     -12.809   9.549  71.874  1.00  0.00    -0.508 A  
HETATM    8  C   UNL     1     -12.979  10.723  71.128  1.00  0.00    -0.467 A  
ENDROOT
BRANCH   6   9
HETATM    9  C   UNL     1     -11.426   7.580  72.609  1.00  0.00    -0.319 C  
HETATM   10  O   UNL     1     -10.851   7.471  73.681  1.00  0.00    -0.329 OA 
BRANCH   9  11
HETATM   11  O   UNL     1     -12.027   6.565  71.937  1.00  0.00    -0.323 OA 
BRANCH  11  12
HETATM   12  C   UNL     1     -11.151   5.471  71.609  1.00  0.00    -0.122 C  
BRANCH  12  13
HETATM   13  C   UNL     1     -10.497   5.708  70.269  1.00  0.00    -0.363 A  
HETATM   14  C   UNL     1      -9.189   5.273  70.022  1.00  0.00    -0.180 A  
HETATM   15  C   UNL     1      -8.533   5.627  68.841  1.00  0.00    -0.102 A  
HETATM   16  C   UNL     1      -9.175   6.426  67.884  1.00  0.00    -0.113 A  
HETATM   17  C   UNL     1     -10.521   6.766  68.088  1.00  0.00    -0.251 A  
HETATM   18  C   UNL     1      -8.391   6.937  66.678  1.00  0.00    -0.118 C  
HETATM   19  C   UNL     1     -11.169   6.428  69.277  1.00  0.00    -0.440 A  
HETATM   20  C   UNL     1      -8.865   8.331  66.220  1.00  0.00    -0.161 C  
HETATM   21  C   UNL     1      -8.454   5.921  65.514  1.00  0.00    -0.154 C  
HETATM   22  O   UNL     1      -9.325   8.503  65.091  1.00  0.00     0.054 OA 
HETATM   23  N   UNL     1      -7.623   6.303  64.362  1.00  0.00    -0.093 NA 
HETATM   24  N   UNL     1      -8.754   9.322  67.190  1.00  0.00    -0.127 N  
HETATM   25  H1  UNL     1      -7.664   5.633  63.594  1.00  0.00     0.000 HD 
HETATM   26  H2  UNL     1      -6.658   6.465  64.651  1.00  0.00     0.000 HD 
HETATM   27  H   UNL     1      -8.397   9.044  68.104  1.00  0.00     0.000 HD 
BRANCH  24  28
HETATM   28  C   UNL     1      -9.095  10.684  67.013  1.00  0.00    -0.144 A  
HETATM   29  C   UNL     1      -8.214  11.725  67.313  1.00  0.00    -0.163 A  
HETATM   30  C   UNL     1      -8.567  13.055  67.089  1.00  0.00    -0.195 A  
HETATM   31  C   UNL     1      -9.826  13.376  66.571  1.00  0.00    -0.286 A  
HETATM   32  C   UNL     1     -10.216  14.694  66.321  1.00  0.00    -0.292 A  
HETATM   33  N   UNL     1     -11.426  15.055  65.839  1.00  0.00    -0.281 NA 
HETATM   34  C   UNL     1     -12.294  14.054  65.591  1.00  0.00    -0.479 A  
HETATM   35  C   UNL     1     -12.008  12.709  65.791  1.00  0.00    -0.503 A  
HETATM   36  C   UNL     1     -10.748  12.348  66.291  1.00  0.00    -0.287 A  
HETATM   37  C   UNL     1     -10.371  11.005  66.520  1.00  0.00    -0.295 A  
ENDBRANCH  24  28
ENDBRANCH  12  13
ENDBRANCH  11  12
ENDBRANCH   9  11
ENDBRANCH   6   9
TORSDOF 5
ENDMDL
MODEL       12
REMARK 921   NORMALIZED FREE ENERGY PREDICTED BY IDOCK:   -7.20 KCAL/MOL
REMARK 922        TOTAL FREE ENERGY PREDICTED BY IDOCK:  -11.54 KCAL/MOL
REMARK 923 INTER-LIGAND FREE ENERGY PREDICTED BY IDOCK:  -10.30 KCAL/MOL
REMARK 924 INTRA-LIGAND FREE ENERGY PREDICTED BY IDOCK:   -1.24 KCAL/MOL
REMARK 927      BINDING AFFINITY PREDICTED BY RF-SCORE:    0.00 PKD
ROOT
HETATM    1  C   UNL     1      -8.470   5.027  67.648  1.00  0.00    -0.104 C  
HETATM    2  C   UNL     1      -9.285   5.874  68.582  1.00  0.00    -0.120 A  
HETATM    3  C   UNL     1      -8.657   6.736  69.488  1.00  0.00    -0.133 A  
HETATM    4  C   UNL     1      -9.398   7.498  70.409  1.00  0.00    -0.161 A  
HETATM    5  C   UNL     1      -8.648   8.391  71.362  1.00  0.00    -0.207 C  
HETATM    6  C   UNL     1     -10.806   7.390  70.417  1.00  0.00    -0.258 A  
HETATM    7  C   UNL     1     -11.437   6.540  69.494  1.00  0.00    -0.384 A  
HETATM    8  C   UNL     1     -10.681   5.788  68.585  1.00  0.00    -0.303 A  
ENDROOT
BRANCH   6   9
HETATM    9  C   UNL     1     -11.614   8.127  71.438  1.00  0.00    -0.278 C  
HETATM   10  O   UNL     1     -11.663   7.814  72.618  1.00  0.00    -0.349 OA 
BRANCH   9  11
HETATM   11  O   UNL     1     -12.256   9.187  70.882  1.00  0.00    -0.274 OA 
BRANCH  11  12
HETATM   12  C   UNL     1     -11.454  10.379  70.784  1.00  0.00    -0.332 C  
BRANCH  12  13
HETATM   13  C   UNL     1     -11.485  10.915  69.373  1.00  0.00    -0.373 A  
HETATM   14  C   UNL     1     -10.833  10.238  68.335  1.00  0.00    -0.288 A  
HETATM   15  C   UNL     1     -10.732  10.812  67.065  1.00  0.00    -0.320 A  
HETATM   16  C   UNL     1     -11.282  12.076  66.812  1.00  0.00    -0.376 A  
HETATM   17  C   UNL     1     -12.027  12.700  67.825  1.00  0.00    -0.303 A  
HETATM   18  C   UNL     1     -11.024  12.758  65.470  1.00  0.00    -0.310 C  
HETATM   19  C   UNL     1     -12.110  12.134  69.098  1.00  0.00    -0.224 A  
HETATM   20  C   UNL     1     -10.931  14.291  65.601  1.00  0.00    -0.309 C  
HETATM   21  C   UNL     1     -12.099  12.354  64.436  1.00  0.00    -0.426 C  
HETATM   22  O   UNL     1     -11.723  15.024  65.008  1.00  0.00    -0.353 OA 
HETATM   23  N   UNL     1     -11.841  12.887  63.089  1.00  0.00    -0.848 NA 
HETATM   24  N   UNL     1      -9.923  14.735  66.450  1.00  0.00    -0.265 N  
HETATM   25  H1  UNL     1     -12.551  12.621  62.406  1.00  0.00     0.000 HD 
HETATM   26  H2  UNL     1     -10.911  12.622  62.767  1.00  0.00     0.000 HD 
HETATM   27  H   UNL     1      -9.359  14.025  66.917  1.00  0.00     0.000 HD 
BRANCH  24  28
HETATM   28  C   UNL     1      -9.615  16.090  66.718  1.00  0.00    -0.232 A  
HETATM   29  C   UNL     1     -10.408  16.892  67.542  1.00  0.00    -0.318 A  
HETATM   30  C   UNL     1     -10.055  18.213  67.817  1.00  0.00    -0.371 A  
HETATM   31  C   UNL     1      -8.901  18.769  67.257  1.00  0.00    -0.287 A  
HETATM   32  C   UNL     1      -8.505  20.083  67.514  1.00  0.00    -0.339 A  
HETATM   33  N   UNL     1      -7.410  20.671  66.983  1.00  0.00    -0.322 NA 
HETATM   34  C   UNL     1      -6.669  19.912  66.151  1.00  0.00    -0.228 A  
HETATM   35  C   UNL     1      -6.962  18.592  65.834  1.00  0.00    -0.308 A  
HETATM   36  C   UNL     1      -8.101  17.994  66.393  1.00  0.00    -0.292 A  
HETATM   37  C   UNL     1      -8.472  16.656  66.129  1.00  0.00    -0.308 A  
ENDBRANCH  24  28
ENDBRANCH  12  13
ENDBRANCH  11  12
ENDBRANCH   9  11
ENDBRANCH   6   9
TORSDOF 5
ENDMDL
MODEL       13
REMARK 921   NORMALIZED FREE ENERGY PREDICTED BY IDOCK:   -7.13 KCAL/MOL
REMARK 922        TOTAL FREE ENERGY PREDICTED BY IDOCK:  -11.44 KCAL/MOL
REMARK 923 INTER-LIGAND FREE ENERGY PREDICTED BY IDOCK:   -9.33 KCAL/MOL
REMARK 924 INTRA-LIGAND FREE ENERGY PREDICTED BY IDOCK:   -2.10 KCAL/MOL
REMARK 927      BINDING AFFINITY PREDICTED BY RF-SCORE:    0.00 PKD
ROOT
HETATM    1  C   UNL     1     -12.851   8.234  71.206  1.00  0.00    -0.186 C  
HETATM    2  C   UNL     1     -11.503   7.768  70.737  1.00  0.00    -0.285 A  
HETATM    3  C   UNL     1     -11.353   6.509  70.145  1.00  0.00    -0.463 A  
HETATM    4  C   UNL     1     -10.091   6.030  69.748  1.00  0.00    -0.246 A  
HETATM    5  C   UNL     1     -10.011   4.659  69.133  1.00  0.00    -0.208 C  
HETATM    6  C   UNL     1      -8.953   6.840  69.952  1.00  0.00    -0.144 A  
HETATM    7  C   UNL     1      -9.106   8.112  70.527  1.00  0.00    -0.150 A  
HETATM    8  C   UNL     1     -10.371   8.570  70.917  1.00  0.00    -0.245 A  
ENDROOT
BRANCH   6   9
HETATM    9  C   UNL     1      -7.589   6.325  69.614  1.00  0.00    -0.094 C  
HETATM   10  O   UNL     1      -7.080   5.354  70.151  1.00  0.00    -0.061 OA 
BRANCH   9  11
HETATM   11  O   UNL     1      -7.018   7.062  68.627  1.00  0.00    -0.073 OA 
BRANCH  11  12
HETATM   12  C   UNL     1      -7.412   6.676  67.296  1.00  0.00    -0.092 C  
BRANCH  12  13
HETATM   13  C   UNL     1      -8.087   7.830  66.596  1.00  0.00    -0.111 A  
HETATM   14  C   UNL     1      -7.376   8.644  65.706  1.00  0.00    -0.081 A  
HETATM   15  C   UNL     1      -7.958   9.799  65.179  1.00  0.00    -0.129 A  
HETATM   16  C   UNL     1      -9.265  10.162  65.533  1.00  0.00    -0.237 A  
HETATM   17  C   UNL     1     -10.009   9.285  66.338  1.00  0.00    -0.356 A  
HETATM   18  C   UNL     1      -9.826  11.506  65.078  1.00  0.00    -0.294 C  
HETATM   19  C   UNL     1      -9.420   8.142  66.880  1.00  0.00    -0.244 A  
HETATM   20  C   UNL     1     -10.797  12.115  66.110  1.00  0.00    -0.282 C  
HETATM   21  C   UNL     1     -10.501  11.377  63.693  1.00  0.00    -0.414 C  
HETATM   22  O   UNL     1     -11.973  12.335  65.818  1.00  0.00    -0.521 OA 
HETATM   23  N   UNL     1     -10.961  12.663  63.147  1.00  0.00    -0.653 NA 
HETATM   24  N   UNL     1     -10.234  12.345  67.361  1.00  0.00    -0.207 N  
HETATM   25  H1  UNL     1     -11.406  12.577  62.233  1.00  0.00     0.000 HD 
HETATM   26  H2  UNL     1     -10.196  13.337  63.117  1.00  0.00     0.000 HD 
HETATM   27  H   UNL     1      -9.258  12.079  67.491  1.00  0.00     0.000 HD 
BRANCH  24  28
HETATM   28  C   UNL     1     -10.905  12.918  68.468  1.00  0.00    -0.257 A  
HETATM   29  C   UNL     1     -10.959  14.297  68.682  1.00  0.00    -0.268 A  
HETATM   30  C   UNL     1     -11.662  14.831  69.761  1.00  0.00    -0.354 A  
HETATM   31  C   UNL     1     -12.316  13.990  70.666  1.00  0.00    -0.446 A  
HETATM   32  C   UNL     1     -13.040  14.483  71.754  1.00  0.00    -0.346 A  
HETATM   33  N   UNL     1     -13.674  13.711  72.665  1.00  0.00    -0.730 NA 
HETATM   34  C   UNL     1     -13.584  12.378  72.485  1.00  0.00     0.029 A  
HETATM   35  C   UNL     1     -12.901  11.780  71.434  1.00  0.00    -0.440 A  
HETATM   36  C   UNL     1     -12.249  12.593  70.495  1.00  0.00    -0.383 A  
HETATM   37  C   UNL     1     -11.536  12.069  69.393  1.00  0.00    -0.361 A  
ENDBRANCH  24  28
ENDBRANCH  12  13
ENDBRANCH  11  12
ENDBRANCH   9  11
ENDBRANCH   6   9
TORSDOF 5
ENDMDL
MODEL       14
REMARK 921   NORMALIZED FREE ENERGY PREDICTED BY IDOCK:   -7.09 KCAL/MOL
REMARK 922        TOTAL FREE ENERGY PREDICTED BY IDOCK:  -11.39 KCAL/MOL
REMARK 923 INTER-LIGAND FREE ENERGY PREDICTED BY IDOCK:  -10.13 KCAL/MOL
REMARK 924 INTRA-LIGAND FREE ENERGY PREDICTED BY IDOCK:   -1.26 KCAL/MOL
REMARK 927      BINDING AFFINITY PREDICTED BY RF-SCORE:    0.00 PKD
ROOT
HETATM    1  C   UNL     1     -12.223  15.154  70.050  1.00  0.00    -0.379 C  
HETATM    2  C   UNL     1     -12.365  13.732  70.509  1.00  0.00    -0.429 A  
HETATM    3  C   UNL     1     -11.827  12.685  69.753  1.00  0.00    -0.379 A  
HETATM    4  C   UNL     1     -11.995  11.342  70.135  1.00  0.00    -0.460 A  
HETATM    5  C   UNL     1     -11.398  10.272  69.260  1.00  0.00    -0.253 C  
HETATM    6  C   UNL     1     -12.724  11.047  71.308  1.00  0.00    -0.537 A  
HETATM    7  C   UNL     1     -13.247  12.099  72.078  1.00  0.00    -0.496 A  
HETATM    8  C   UNL     1     -13.069  13.430  71.679  1.00  0.00    -0.463 A  
ENDROOT
BRANCH   6   9
HETATM    9  C   UNL     1     -12.987   9.625  71.696  1.00  0.00    -0.407 C  
HETATM   10  O   UNL     1     -14.052   9.059  71.508  1.00  0.00    -0.354 OA 
BRANCH   9  11
HETATM   11  O   UNL     1     -11.886   9.059  72.254  1.00  0.00    -0.334 OA 
BRANCH  11  12
HETATM   12  C   UNL     1     -12.026   7.655  72.544  1.00  0.00    -0.214 C  
BRANCH  12  13
HETATM   13  C   UNL     1     -11.342   6.831  71.481  1.00  0.00    -0.316 A  
HETATM   14  C   UNL     1     -10.163   6.130  71.764  1.00  0.00    -0.236 A  
HETATM   15  C   UNL     1      -9.450   5.496  70.744  1.00  0.00    -0.209 A  
HETATM   16  C   UNL     1      -9.904   5.553  69.419  1.00  0.00    -0.240 A  
HETATM   17  C   UNL     1     -11.141   6.164  69.159  1.00  0.00    -0.448 A  
HETATM   18  C   UNL     1      -9.032   4.996  68.296  1.00  0.00    -0.120 C  
HETATM   19  C   UNL     1     -11.842   6.813  70.175  1.00  0.00    -0.321 A  
HETATM   20  C   UNL     1      -9.189   5.790  66.984  1.00  0.00    -0.118 C  
HETATM   21  C   UNL     1      -9.323   3.494  68.073  1.00  0.00    -0.184 C  
HETATM   22  O   UNL     1      -9.604   5.244  65.962  1.00  0.00    -0.157 OA 
HETATM   23  N   UNL     1      -8.433   2.869  67.082  1.00  0.00    -0.091 NA 
HETATM   24  N   UNL     1      -8.857   7.137  67.086  1.00  0.00    -0.120 N  
HETATM   25  H1  UNL     1      -8.625   1.878  66.934  1.00  0.00     0.000 HD 
HETATM   26  H2  UNL     1      -7.455   3.016  67.331  1.00  0.00     0.000 HD 
HETATM   27  H   UNL     1      -8.566   7.479  68.002  1.00  0.00     0.000 HD 
BRANCH  24  28
HETATM   28  C   UNL     1      -8.890   8.071  66.023  1.00  0.00    -0.162 A  
HETATM   29  C   UNL     1      -8.146   7.904  64.854  1.00  0.00    -0.144 A  
HETATM   30  C   UNL     1      -8.231   8.824  63.808  1.00  0.00    -0.163 A  
HETATM   31  C   UNL     1      -9.057   9.947  63.919  1.00  0.00    -0.298 A  
HETATM   32  C   UNL     1      -9.180  10.886  62.893  1.00  0.00    -0.332 A  
HETATM   33  N   UNL     1      -9.950  11.995  62.959  1.00  0.00    -0.303 NA 
HETATM   34  C   UNL     1     -10.635  12.180  64.105  1.00  0.00    -0.365 A  
HETATM   35  C   UNL     1     -10.595  11.306  65.184  1.00  0.00    -0.343 A  
HETATM   36  C   UNL     1      -9.793  10.158  65.102  1.00  0.00    -0.394 A  
HETATM   37  C   UNL     1      -9.697   9.213  66.149  1.00  0.00    -0.357 A  
ENDBRANCH  24  28
ENDBRANCH  12  13
ENDBRANCH  11  12
ENDBRANCH   9  11
ENDBRANCH   6   9
TORSDOF 5
ENDMDL
MODEL       15
REMARK 921   NORMALIZED FREE ENERGY PREDICTED BY IDOCK:   -7.05 KCAL/MOL
REMARK 922        TOTAL FREE ENERGY PREDICTED BY IDOCK:  -11.33 KCAL/MOL
REMARK 923 INTER-LIGAND FREE ENERGY PREDICTED BY IDOCK:  -10.46 KCAL/MOL
REMARK 924 INTRA-LIGAND FREE ENERGY PREDICTED BY IDOCK:   -0.88 KCAL/MOL
REMARK 927      BINDING AFFINITY PREDICTED BY RF-SCORE:    0.00 PKD
ROOT
HETATM    1  C   UNL     1     -10.293   2.623  72.685  1.00  0.00    -0.226 C  
HETATM    2  C   UNL     1     -10.332   4.090  72.370  1.00  0.00    -0.207 A  
HETATM    3  C   UNL     1      -9.662   4.593  71.249  1.00  0.00    -0.251 A  
HETATM    4  C   UNL     1      -9.639   5.970  70.965  1.00  0.00    -0.197 A  
HETATM    5  C   UNL     1      -8.884   6.434  69.748  1.00  0.00    -0.142 C  
HETATM    6  C   UNL     1     -10.308   6.862  71.831  1.00  0.00    -0.210 A  
HETATM    7  C   UNL     1     -10.998   6.356  72.945  1.00  0.00    -0.281 A  
HETATM    8  C   UNL     1     -11.007   4.980  73.211  1.00  0.00    -0.384 A  
ENDROOT
BRANCH   6   9
HETATM    9  C   UNL     1     -10.233   8.339  71.598  1.00  0.00    -0.221 C  
HETATM   10  O   UNL     1      -9.354   9.053  72.055  1.00  0.00    -0.358 OA 
BRANCH   9  11
HETATM   11  O   UNL     1     -11.250   8.761  70.803  1.00  0.00    -0.254 OA 
BRANCH  11  12
HETATM   12  C   UNL     1     -11.460  10.186  70.817  1.00  0.00    -0.357 C  
BRANCH  12  13
HETATM   13  C   UNL     1     -11.465  10.727  69.408  1.00  0.00    -0.366 A  
HETATM   14  C   UNL     1     -10.765  10.074  68.386  1.00  0.00    -0.271 A  
HETATM   15  C   UNL     1     -10.644  10.657  67.123  1.00  0.00    -0.312 A  
HETATM   16  C   UNL     1     -11.222  11.906  66.858  1.00  0.00    -0.382 A  
HETATM   17  C   UNL     1     -12.014  12.503  67.852  1.00  0.00    -0.283 A  
HETATM   18  C   UNL     1     -10.944  12.601  65.528  1.00  0.00    -0.313 C  
HETATM   19  C   UNL     1     -12.118  11.929  69.119  1.00  0.00    -0.261 A  
HETATM   20  C   UNL     1     -10.900  14.136  65.667  1.00  0.00    -0.305 C  
HETATM   21  C   UNL     1     -11.977  12.172  64.460  1.00  0.00    -0.337 C  
HETATM   22  O   UNL     1     -11.696  14.849  65.054  1.00  0.00    -0.363 OA 
HETATM   23  N   UNL     1     -11.695  12.719  63.124  1.00  0.00    -0.825 NA 
HETATM   24  N   UNL     1      -9.930  14.605  66.547  1.00  0.00    -0.271 N  
HETATM   25  H1  UNL     1     -12.377  12.435  62.420  1.00  0.00     0.000 HD 
HETATM   26  H2  UNL     1     -10.749  12.482  62.829  1.00  0.00     0.000 HD 
HETATM   27  H   UNL     1      -9.359  13.909  67.028  1.00  0.00     0.000 HD 
BRANCH  24  28
HETATM   28  C   UNL     1      -9.670  15.967  66.829  1.00  0.00    -0.238 A  
HETATM   29  C   UNL     1     -10.483  16.728  67.671  1.00  0.00    -0.328 A  
HETATM   30  C   UNL     1     -10.176  18.058  67.960  1.00  0.00    -0.390 A  
HETATM   31  C   UNL     1      -9.049  18.663  67.395  1.00  0.00    -0.290 A  
HETATM   32  C   UNL     1      -8.699  19.988  67.666  1.00  0.00    -0.326 A  
HETATM   33  N   UNL     1      -7.632  20.622  67.131  1.00  0.00    -0.328 NA 
HETATM   34  C   UNL     1      -6.871  19.901  66.282  1.00  0.00    -0.227 A  
HETATM   35  C   UNL     1      -7.119  18.575  65.951  1.00  0.00    -0.287 A  
HETATM   36  C   UNL     1      -8.230  17.929  66.514  1.00  0.00    -0.298 A  
HETATM   37  C   UNL     1      -8.554  16.581  66.237  1.00  0.00    -0.367 A  
ENDBRANCH  24  28
ENDBRANCH  12  13
ENDBRANCH  11  12
ENDBRANCH   9  11
ENDBRANCH   6   9
TORSDOF 5
ENDMDL
MODEL       16
REMARK 921   NORMALIZED FREE ENERGY PREDICTED BY IDOCK:   -7.04 KCAL/MOL
REMARK 922        TOTAL FREE ENERGY PREDICTED BY IDOCK:  -11.33 KCAL/MOL
REMARK 923 INTER-LIGAND FREE ENERGY PREDICTED BY IDOCK:   -9.82 KCAL/MOL
REMARK 924 INTRA-LIGAND FREE ENERGY PREDICTED BY IDOCK:   -1.51 KCAL/MOL
REMARK 927      BINDING AFFINITY PREDICTED BY RF-SCORE:    0.00 PKD
ROOT
HETATM    1  C   UNL     1      -6.509  14.857  69.787  1.00  0.00    -0.164 C  
HETATM    2  C   UNL     1      -7.442  15.467  68.782  1.00  0.00    -0.141 A  
HETATM    3  C   UNL     1      -8.768  15.751  69.125  1.00  0.00    -0.253 A  
HETATM    4  C   UNL     1      -9.674  16.272  68.184  1.00  0.00    -0.227 A  
HETATM    5  C   UNL     1     -11.089  16.536  68.627  1.00  0.00    -0.329 C  
HETATM    6  C   UNL     1      -9.233  16.513  66.865  1.00  0.00    -0.244 A  
HETATM    7  C   UNL     1      -7.896  16.248  66.525  1.00  0.00    -0.298 A  
HETATM    8  C   UNL     1      -7.009  15.728  67.477  1.00  0.00    -0.216 A  
ENDROOT
BRANCH   6   9
HETATM    9  C   UNL     1     -10.195  16.992  65.822  1.00  0.00    -0.245 C  
HETATM   10  O   UNL     1     -10.685  18.110  65.816  1.00  0.00    -0.451 OA 
BRANCH   9  11
HETATM   11  O   UNL     1     -10.422  16.032  64.889  1.00  0.00    -0.574 OA 
BRANCH  11  12
HETATM   12  C   UNL     1     -11.426  15.069  65.263  1.00  0.00    -0.308 C  
BRANCH  12  13
HETATM   13  C   UNL     1     -10.874  13.669  65.154  1.00  0.00    -0.338 A  
HETATM   14  C   UNL     1     -11.357  12.781  64.185  1.00  0.00    -0.442 A  
HETATM   15  C   UNL     1     -10.957  11.443  64.184  1.00  0.00    -0.411 A  
HETATM   16  C   UNL     1     -10.065  10.968  65.156  1.00  0.00    -0.346 A  
HETATM   17  C   UNL     1      -9.501  11.886  66.055  1.00  0.00    -0.241 A  
HETATM   18  C   UNL     1      -9.764   9.473  65.240  1.00  0.00    -0.268 C  
HETATM   19  C   UNL     1      -9.916  13.218  66.067  1.00  0.00    -0.297 A  
HETATM   20  C   UNL     1      -9.509   9.008  66.688  1.00  0.00    -0.194 C  
HETATM   21  C   UNL     1      -8.578   9.101  64.321  1.00  0.00    -0.175 C  
HETATM   22  O   UNL     1      -8.428   8.515  67.011  1.00  0.00    -0.112 OA 
HETATM   23  N   UNL     1      -8.312   7.655  64.270  1.00  0.00    -0.367 NA 
HETATM   24  N   UNL     1     -10.571   9.229  67.558  1.00  0.00    -0.329 N  
HETATM   25  H1  UNL     1      -7.530   7.409  63.663  1.00  0.00     0.000 HD 
HETATM   26  H2  UNL     1      -9.153   7.142  64.003  1.00  0.00     0.000 HD 
HETATM   27  H   UNL     1     -11.400   9.687  67.177  1.00  0.00     0.000 HD 
BRANCH  24  28
HETATM   28  C   UNL     1     -10.597   8.871  68.926  1.00  0.00    -0.165 A  
HETATM   29  C   UNL     1     -10.610   9.819  69.951  1.00  0.00    -0.301 A  
HETATM   30  C   UNL     1     -10.676   9.433  71.290  1.00  0.00    -0.421 A  
HETATM   31  C   UNL     1     -10.714   8.078  71.635  1.00  0.00    -0.284 A  
HETATM   32  C   UNL     1     -10.791   7.647  72.961  1.00  0.00    -0.400 A  
HETATM   33  N   UNL     1     -10.812   6.352  73.345  1.00  0.00    -0.252 NA 
HETATM   34  C   UNL     1     -10.754   5.435  72.358  1.00  0.00    -0.231 A  
HETATM   35  C   UNL     1     -10.687   5.750  71.007  1.00  0.00    -0.326 A  
HETATM   36  C   UNL     1     -10.667   7.099  70.623  1.00  0.00    -0.255 A  
HETATM   37  C   UNL     1     -10.605   7.509  69.271  1.00  0.00    -0.215 A  
ENDBRANCH  24  28
ENDBRANCH  12  13
ENDBRANCH  11  12
ENDBRANCH   9  11
ENDBRANCH   6   9
TORSDOF 5
ENDMDL
MODEL       17
REMARK 921   NORMALIZED FREE ENERGY PREDICTED BY IDOCK:   -7.03 KCAL/MOL
REMARK 922        TOTAL FREE ENERGY PREDICTED BY IDOCK:  -11.32 KCAL/MOL
REMARK 923 INTER-LIGAND FREE ENERGY PREDICTED BY IDOCK:  -10.47 KCAL/MOL
REMARK 924 INTRA-LIGAND FREE ENERGY PREDICTED BY IDOCK:   -0.85 KCAL/MOL
REMARK 927      BINDING AFFINITY PREDICTED BY RF-SCORE:    0.00 PKD
ROOT
HETATM    1  C   UNL     1     -13.461  13.880  72.675  1.00  0.00    -0.652 C  
HETATM    2  C   UNL     1     -12.904  14.185  71.315  1.00  0.00    -0.429 A  
HETATM    3  C   UNL     1     -12.451  13.152  70.486  1.00  0.00    -0.322 A  
HETATM    4  C   UNL     1     -11.876  13.418  69.230  1.00  0.00    -0.385 A  
HETATM    5  C   UNL     1     -11.400  12.254  68.403  1.00  0.00    -0.340 C  
HETATM    6  C   UNL     1     -11.752  14.757  68.800  1.00  0.00    -0.354 A  
HETATM    7  C   UNL     1     -12.225  15.792  69.623  1.00  0.00    -0.207 A  
HETATM    8  C   UNL     1     -12.794  15.506  70.871  1.00  0.00    -0.535 A  
ENDROOT
BRANCH   6   9
HETATM    9  C   UNL     1     -11.072  15.075  67.505  1.00  0.00    -0.317 C  
HETATM   10  O   UNL     1     -10.002  15.658  67.429  1.00  0.00    -0.229 OA 
BRANCH   9  11
HETATM   11  O   UNL     1     -11.788  14.611  66.449  1.00  0.00    -0.365 OA 
BRANCH  11  12
HETATM   12  C   UNL     1     -11.089  14.662  65.191  1.00  0.00    -0.377 C  
BRANCH  12  13
HETATM   13  C   UNL     1     -10.423  13.337  64.910  1.00  0.00    -0.387 A  
HETATM   14  C   UNL     1     -10.670  12.650  63.715  1.00  0.00    -0.454 A  
HETATM   15  C   UNL     1     -10.176  11.358  63.523  1.00  0.00    -0.461 A  
HETATM   16  C   UNL     1      -9.425  10.728  64.525  1.00  0.00    -0.297 A  
HETATM   17  C   UNL     1      -9.089  11.462  65.673  1.00  0.00    -0.173 A  
HETATM   18  C   UNL     1      -9.032   9.261  64.366  1.00  0.00    -0.163 C  
HETATM   19  C   UNL     1      -9.599  12.745  65.872  1.00  0.00    -0.143 A  
HETATM   20  C   UNL     1      -8.987   8.518  65.716  1.00  0.00    -0.182 C  
HETATM   21  C   UNL     1      -7.684   9.134  63.619  1.00  0.00    -0.118 C  
HETATM   22  O   UNL     1      -7.941   8.011  66.124  1.00  0.00    -0.096 OA 
HETATM   23  N   UNL     1      -7.306   7.741  63.333  1.00  0.00    -0.094 NA 
HETATM   24  N   UNL     1     -10.194   8.512  66.409  1.00  0.00    -0.406 N  
HETATM   25  H1  UNL     1      -6.417   7.657  62.839  1.00  0.00     0.000 HD 
HETATM   26  H2  UNL     1      -8.049   7.262  62.825  1.00  0.00     0.000 HD 
HETATM   27  H   UNL     1     -10.979   9.005  65.984  1.00  0.00     0.000 HD 
BRANCH  24  28
HETATM   28  C   UNL     1     -10.421   7.878  67.653  1.00  0.00    -0.234 A  
HETATM   29  C   UNL     1     -10.665   6.507  67.764  1.00  0.00    -0.368 A  
HETATM   30  C   UNL     1     -10.846   5.906  69.010  1.00  0.00    -0.383 A  
HETATM   31  C   UNL     1     -10.802   6.673  70.179  1.00  0.00    -0.330 A  
HETATM   32  C   UNL     1     -10.967   6.110  71.447  1.00  0.00    -0.277 A  
HETATM   33  N   UNL     1     -10.951   6.811  72.602  1.00  0.00    -0.246 NA 
HETATM   34  C   UNL     1     -10.760   8.141  72.493  1.00  0.00    -0.349 A  
HETATM   35  C   UNL     1     -10.574   8.803  71.286  1.00  0.00    -0.332 A  
HETATM   36  C   UNL     1     -10.592   8.064  70.094  1.00  0.00    -0.237 A  
HETATM   37  C   UNL     1     -10.406   8.655  68.823  1.00  0.00    -0.228 A  
ENDBRANCH  24  28
ENDBRANCH  12  13
ENDBRANCH  11  12
ENDBRANCH   9  11
ENDBRANCH   6   9
TORSDOF 5
ENDMDL
MODEL       18
REMARK 921   NORMALIZED FREE ENERGY PREDICTED BY IDOCK:   -7.03 KCAL/MOL
REMARK 922        TOTAL FREE ENERGY PREDICTED BY IDOCK:  -11.31 KCAL/MOL
REMARK 923 INTER-LIGAND FREE ENERGY PREDICTED BY IDOCK:   -9.54 KCAL/MOL
REMARK 924 INTRA-LIGAND FREE ENERGY PREDICTED BY IDOCK:   -1.77 KCAL/MOL
REMARK 927      BINDING AFFINITY PREDICTED BY RF-SCORE:    0.00 PKD
ROOT
HETATM    1  C   UNL     1     -12.810  14.404  73.143  1.00  0.00    -0.492 C  
HETATM    2  C   UNL     1     -12.563  14.418  71.663  1.00  0.00    -0.429 A  
HETATM    3  C   UNL     1     -12.313  13.226  70.974  1.00  0.00    -0.379 A  
HETATM    4  C   UNL     1     -12.025  13.221  69.597  1.00  0.00    -0.376 A  
HETATM    5  C   UNL     1     -11.753  11.898  68.931  1.00  0.00    -0.381 C  
HETATM    6  C   UNL     1     -11.988  14.446  68.898  1.00  0.00    -0.337 A  
HETATM    7  C   UNL     1     -12.258  15.641  69.585  1.00  0.00    -0.264 A  
HETATM    8  C   UNL     1     -12.542  15.625  70.956  1.00  0.00    -0.515 A  
ENDROOT
BRANCH   6   9
HETATM    9  C   UNL     1     -11.605  14.479  67.451  1.00  0.00    -0.385 C  
HETATM   10  O   UNL     1     -12.415  14.466  66.536  1.00  0.00    -0.376 OA 
BRANCH   9  11
HETATM   11  O   UNL     1     -10.257  14.546  67.302  1.00  0.00    -0.252 OA 
BRANCH  11  12
HETATM   12  C   UNL     1      -9.788  14.193  65.988  1.00  0.00    -0.309 C  
BRANCH  12  13
HETATM   13  C   UNL     1      -9.572  12.702  65.894  1.00  0.00    -0.158 A  
HETATM   14  C   UNL     1     -10.328  11.922  65.010  1.00  0.00    -0.330 A  
HETATM   15  C   UNL     1     -10.235  10.528  65.034  1.00  0.00    -0.365 A  
HETATM   16  C   UNL     1      -9.383   9.889  65.945  1.00  0.00    -0.245 A  
HETATM   17  C   UNL     1      -8.548  10.679  66.752  1.00  0.00    -0.129 A  
HETATM   18  C   UNL     1      -9.414   8.368  66.069  1.00  0.00    -0.224 C  
HETATM   19  C   UNL     1      -8.656  12.070  66.740  1.00  0.00    -0.177 A  
HETATM   20  C   UNL     1      -9.133   7.892  67.509  1.00  0.00    -0.133 C  
HETATM   21  C   UNL     1      -8.430   7.717  65.070  1.00  0.00    -0.036 C  
HETATM   22  O   UNL     1      -8.163   7.176  67.759  1.00  0.00    -0.113 OA 
HETATM   23  N   UNL     1      -8.497   6.248  65.059  1.00  0.00    -0.290 NA 
HETATM   24  N   UNL     1     -10.035   8.366  68.456  1.00  0.00    -0.182 N  
HETATM   25  H1  UNL     1      -7.848   5.819  64.399  1.00  0.00     0.000 HD 
HETATM   26  H2  UNL     1      -9.451   5.930  64.888  1.00  0.00     0.000 HD 
HETATM   27  H   UNL     1     -10.773   8.989  68.128  1.00  0.00     0.000 HD 
BRANCH  24  28
HETATM   28  C   UNL     1     -10.011   8.055  69.836  1.00  0.00    -0.189 A  
HETATM   29  C   UNL     1      -9.519   8.940  70.798  1.00  0.00    -0.280 A  
HETATM   30  C   UNL     1      -9.547   8.619  72.155  1.00  0.00    -0.378 A  
HETATM   31  C   UNL     1     -10.057   7.389  72.580  1.00  0.00    -0.255 A  
HETATM   32  C   UNL     1     -10.114   7.031  73.929  1.00  0.00    -0.348 A  
HETATM   33  N   UNL     1     -10.580   5.848  74.388  1.00  0.00    -0.168 NA 
HETATM   34  C   UNL     1     -11.014   4.975  73.458  1.00  0.00    -0.328 A  
HETATM   35  C   UNL     1     -11.014   5.230  72.092  1.00  0.00    -0.226 A  
HETATM   36  C   UNL     1     -10.528   6.461  71.630  1.00  0.00    -0.251 A  
HETATM   37  C   UNL     1     -10.496   6.806  70.259  1.00  0.00    -0.238 A  
ENDBRANCH  24  28
ENDBRANCH  12  13
ENDBRANCH  11  12
ENDBRANCH   9  11
ENDBRANCH   6   9
TORSDOF 5
ENDMDL
MODEL       19
REMARK 921   NORMALIZED FREE ENERGY PREDICTED BY IDOCK:   -7.01 KCAL/MOL
REMARK 922        TOTAL FREE ENERGY PREDICTED BY IDOCK:  -11.28 KCAL/MOL
REMARK 923 INTER-LIGAND FREE ENERGY PREDICTED BY IDOCK:  -10.37 KCAL/MOL
REMARK 924 INTRA-LIGAND FREE ENERGY PREDICTED BY IDOCK:   -0.92 KCAL/MOL
REMARK 927      BINDING AFFINITY PREDICTED BY RF-SCORE:    0.00 PKD
ROOT
HETATM    1  C   UNL     1      -7.323  20.954  66.985  1.00  0.00    -0.325 C  
HETATM    2  C   UNL     1      -8.228  19.918  67.585  1.00  0.00    -0.349 A  
HETATM    3  C   UNL     1      -7.703  18.724  68.092  1.00  0.00    -0.310 A  
HETATM    4  C   UNL     1      -8.537  17.717  68.608  1.00  0.00    -0.264 A  
HETATM    5  C   UNL     1      -7.896  16.455  69.122  1.00  0.00    -0.214 C  
HETATM    6  C   UNL     1      -9.934  17.916  68.614  1.00  0.00    -0.387 A  
HETATM    7  C   UNL     1     -10.461  19.123  68.124  1.00  0.00    -0.428 A  
HETATM    8  C   UNL     1      -9.613  20.114  67.612  1.00  0.00    -0.534 A  
ENDROOT
BRANCH   6   9
HETATM    9  C   UNL     1     -10.850  16.829  69.083  1.00  0.00    -0.287 C  
HETATM   10  O   UNL     1     -11.126  16.636  70.257  1.00  0.00    -0.297 OA 
BRANCH   9  11
HETATM   11  O   UNL     1     -11.340  16.116  68.036  1.00  0.00    -0.326 OA 
BRANCH  11  12
HETATM   12  C   UNL     1     -12.014  14.901  68.411  1.00  0.00    -0.221 C  
BRANCH  12  13
HETATM   13  C   UNL     1     -11.408  13.723  67.689  1.00  0.00    -0.331 A  
HETATM   14  C   UNL     1     -11.901  13.313  66.444  1.00  0.00    -0.446 A  
HETATM   15  C   UNL     1     -11.444  12.134  65.851  1.00  0.00    -0.418 A  
HETATM   16  C   UNL     1     -10.482  11.342  66.494  1.00  0.00    -0.299 A  
HETATM   17  C   UNL     1      -9.913  11.814  67.687  1.00  0.00    -0.204 A  
HETATM   18  C   UNL     1     -10.113   9.980  65.912  1.00  0.00    -0.319 C  
HETATM   19  C   UNL     1     -10.385  12.981  68.288  1.00  0.00    -0.256 A  
HETATM   20  C   UNL     1      -9.762   8.951  67.006  1.00  0.00    -0.190 C  
HETATM   21  C   UNL     1      -8.960  10.116  64.890  1.00  0.00    -0.197 C  
HETATM   22  O   UNL     1      -8.645   8.434  67.052  1.00  0.00    -0.119 OA 
HETATM   23  N   UNL     1      -8.635   8.854  64.208  1.00  0.00    -0.335 NA 
HETATM   24  N   UNL     1     -10.787   8.708  67.915  1.00  0.00    -0.487 N  
HETATM   25  H1  UNL     1      -7.875   8.944  63.534  1.00  0.00     0.000 HD 
HETATM   26  H2  UNL     1      -9.465   8.456  63.768  1.00  0.00     0.000 HD 
HETATM   27  H   UNL     1     -11.653   9.233  67.794  1.00  0.00     0.000 HD 
BRANCH  24  28
HETATM   28  C   UNL     1     -10.726   7.792  68.992  1.00  0.00    -0.103 A  
HETATM   29  C   UNL     1     -10.733   6.409  68.802  1.00  0.00    -0.339 A  
HETATM   30  C   UNL     1     -10.632   5.533  69.883  1.00  0.00    -0.387 A  
HETATM   31  C   UNL     1     -10.538   6.027  71.188  1.00  0.00    -0.303 A  
HETATM   32  C   UNL     1     -10.425   5.186  72.298  1.00  0.00    -0.219 A  
HETATM   33  N   UNL     1     -10.350   5.615  73.577  1.00  0.00    -0.215 NA 
HETATM   34  C   UNL     1     -10.388   6.949  73.765  1.00  0.00    -0.376 A  
HETATM   35  C   UNL     1     -10.488   7.876  72.735  1.00  0.00    -0.412 A  
HETATM   36  C   UNL     1     -10.565   7.418  71.412  1.00  0.00    -0.232 A  
HETATM   37  C   UNL     1     -10.662   8.290  70.303  1.00  0.00    -0.237 A  
ENDBRANCH  24  28
ENDBRANCH  12  13
ENDBRANCH  11  12
ENDBRANCH   9  11
ENDBRANCH   6   9
TORSDOF 5
ENDMDL
MODEL       20
REMARK 921   NORMALIZED FREE ENERGY PREDICTED BY IDOCK:   -7.01 KCAL/MOL
REMARK 922        TOTAL FREE ENERGY PREDICTED BY IDOCK:  -11.28 KCAL/MOL
REMARK 923 INTER-LIGAND FREE ENERGY PREDICTED BY IDOCK:   -8.61 KCAL/MOL
REMARK 924 INTRA-LIGAND FREE ENERGY PREDICTED BY IDOCK:   -2.67 KCAL/MOL
REMARK 927      BINDING AFFINITY PREDICTED BY RF-SCORE:    0.00 PKD
ROOT
HETATM    1  C   UNL     1      -9.205  10.793  65.245  1.00  0.00    -0.233 C  
HETATM    2  C   UNL     1      -8.851   9.447  65.807  1.00  0.00    -0.204 A  
HETATM    3  C   UNL     1      -9.852   8.514  66.099  1.00  0.00    -0.227 A  
HETATM    4  C   UNL     1      -9.548   7.268  66.677  1.00  0.00    -0.236 A  
HETATM    5  C   UNL     1     -10.683   6.324  66.974  1.00  0.00    -0.435 C  
HETATM    6  C   UNL     1      -8.203   6.955  66.969  1.00  0.00    -0.120 A  
HETATM    7  C   UNL     1      -7.196   7.883  66.658  1.00  0.00    -0.084 A  
HETATM    8  C   UNL     1      -7.519   9.119  66.084  1.00  0.00    -0.095 A  
ENDROOT
BRANCH   6   9
HETATM    9  C   UNL     1      -7.859   5.671  67.658  1.00  0.00    -0.097 C  
HETATM   10  O   UNL     1      -8.031   4.569  67.161  1.00  0.00    -0.100 OA 
BRANCH   9  11
HETATM   11  O   UNL     1      -7.316   5.902  68.881  1.00  0.00    -0.080 OA 
BRANCH  11  12
HETATM   12  C   UNL     1      -8.055   5.328  69.975  1.00  0.00    -0.084 C  
BRANCH  12  13
HETATM   13  C   UNL     1      -9.195   6.234  70.368  1.00  0.00    -0.160 A  
HETATM   14  C   UNL     1     -10.519   5.776  70.340  1.00  0.00    -0.342 A  
HETATM   15  C   UNL     1     -11.581   6.657  70.555  1.00  0.00    -0.448 A  
HETATM   16  C   UNL     1     -11.339   8.015  70.801  1.00  0.00    -0.282 A  
HETATM   17  C   UNL     1     -10.010   8.446  70.935  1.00  0.00    -0.230 A  
HETATM   18  C   UNL     1     -12.510   8.992  70.872  1.00  0.00    -0.120 C  
HETATM   19  C   UNL     1      -8.950   7.570  70.702  1.00  0.00    -0.154 A  
HETATM   20  C   UNL     1     -12.142  10.389  70.334  1.00  0.00    -0.315 C  
HETATM   21  C   UNL     1     -13.061   9.081  72.314  1.00  0.00    -0.445 C  
HETATM   22  O   UNL     1     -12.201  11.381  71.060  1.00  0.00    -0.346 OA 
HETATM   23  N   UNL     1     -14.265   9.919  72.426  1.00  0.00    -0.281 NA 
HETATM   24  N   UNL     1     -11.721  10.400  69.008  1.00  0.00    -0.501 N  
HETATM   25  H1  UNL     1     -14.628   9.978  73.378  1.00  0.00     0.000 HD 
HETATM   26  H2  UNL     1     -14.988   9.601  71.781  1.00  0.00     0.000 HD 
HETATM   27  H   UNL     1     -11.674   9.503  68.524  1.00  0.00     0.000 HD 
BRANCH  24  28
HETATM   28  C   UNL     1     -11.353  11.554  68.275  1.00  0.00    -0.286 A  
HETATM   29  C   UNL     1     -10.246  12.336  68.611  1.00  0.00    -0.177 A  
HETATM   30  C   UNL     1      -9.888  13.445  67.845  1.00  0.00    -0.237 A  
HETATM   31  C   UNL     1     -10.645  13.807  66.726  1.00  0.00    -0.273 A  
HETATM   32  C   UNL     1     -10.316  14.903  65.925  1.00  0.00    -0.314 A  
HETATM   33  N   UNL     1     -11.026  15.302  64.847  1.00  0.00    -0.428 NA 
HETATM   34  C   UNL     1     -12.120  14.574  64.547  1.00  0.00    -0.484 A  
HETATM   35  C   UNL     1     -12.534  13.460  65.267  1.00  0.00    -0.532 A  
HETATM   36  C   UNL     1     -11.788  13.056  66.384  1.00  0.00    -0.465 A  
HETATM   37  C   UNL     1     -12.133  11.933  67.170  1.00  0.00     0.202 A  
ENDBRANCH  24  28
ENDBRANCH  12  13
ENDBRANCH  11  12
ENDBRANCH   9  11
ENDBRANCH   6   9
TORSDOF 5
ENDMDL
MODEL       21
REMARK 921   NORMALIZED FREE ENERGY PREDICTED BY IDOCK:   -6.99 KCAL/MOL
REMARK 922        TOTAL FREE ENERGY PREDICTED BY IDOCK:  -11.25 KCAL/MOL
REMARK 923 INTER-LIGAND FREE ENERGY PREDICTED BY IDOCK:   -9.08 KCAL/MOL
REMARK 924 INTRA-LIGAND FREE ENERGY PREDICTED BY IDOCK:   -2.17 KCAL/MOL
REMARK 927      BINDING AFFINITY PREDICTED BY RF-SCORE:    0.00 PKD
ROOT
HETATM    1  C   UNL     1      -6.681   8.663  67.852  1.00  0.00    -0.066 C  
HETATM    2  C   UNL     1      -7.652   7.828  68.636  1.00  0.00    -0.105 A  
HETATM    3  C   UNL     1      -8.869   7.436  68.069  1.00  0.00    -0.126 A  
HETATM    4  C   UNL     1      -9.817   6.700  68.803  1.00  0.00    -0.140 A  
HETATM    5  C   UNL     1     -11.110   6.328  68.126  1.00  0.00    -0.364 C  
HETATM    6  C   UNL     1      -9.531   6.350  70.140  1.00  0.00    -0.170 A  
HETATM    7  C   UNL     1      -8.300   6.726  70.703  1.00  0.00    -0.129 A  
HETATM    8  C   UNL     1      -7.370   7.460  69.956  1.00  0.00    -0.082 A  
ENDROOT
BRANCH   6   9
HETATM    9  C   UNL     1     -10.553   5.637  70.969  1.00  0.00    -0.249 C  
HETATM   10  O   UNL     1     -10.390   4.518  71.430  1.00  0.00    -0.152 OA 
BRANCH   9  11
HETATM   11  O   UNL     1     -11.657   6.406  71.153  1.00  0.00    -0.314 OA 
BRANCH  11  12
HETATM   12  C   UNL     1     -11.563   7.324  72.258  1.00  0.00    -0.277 C  
BRANCH  12  13
HETATM   13  C   UNL     1     -11.721   8.744  71.773  1.00  0.00    -0.416 A  
HETATM   14  C   UNL     1     -12.937   9.423  71.927  1.00  0.00    -0.502 A  
HETATM   15  C   UNL     1     -13.130  10.677  71.342  1.00  0.00    -0.499 A  
HETATM   16  C   UNL     1     -12.108  11.275  70.591  1.00  0.00    -0.480 A  
HETATM   17  C   UNL     1     -10.858  10.640  70.533  1.00  0.00     0.067 A  
HETATM   18  C   UNL     1     -12.389  12.566  69.826  1.00  0.00    -0.085 C  
HETATM   19  C   UNL     1     -10.673   9.379  71.101  1.00  0.00    -0.417 A  
HETATM   20  C   UNL     1     -11.591  12.652  68.510  1.00  0.00    -0.323 C  
HETATM   21  C   UNL     1     -12.120  13.800  70.719  1.00  0.00    -0.319 C  
HETATM   22  O   UNL     1     -10.782  13.560  68.321  1.00  0.00    -0.243 OA 
HETATM   23  N   UNL     1     -12.482  15.073  70.077  1.00  0.00    -0.517 NA 
HETATM   24  N   UNL     1     -11.849  11.620  67.614  1.00  0.00    -0.216 N  
HETATM   25  H1  UNL     1     -12.305  15.887  70.666  1.00  0.00     0.000 HD 
HETATM   26  H2  UNL     1     -13.453  15.057  69.764  1.00  0.00     0.000 HD 
HETATM   27  H   UNL     1     -12.512  10.901  67.907  1.00  0.00     0.000 HD 
BRANCH  24  28
HETATM   28  C   UNL     1     -11.268  11.485  66.331  1.00  0.00    -0.243 A  
HETATM   29  C   UNL     1     -11.655  12.271  65.244  1.00  0.00    -0.405 A  
HETATM   30  C   UNL     1     -11.035  12.140  64.002  1.00  0.00    -0.438 A  
HETATM   31  C   UNL     1     -10.017  11.200  63.815  1.00  0.00    -0.401 A  
HETATM   32  C   UNL     1      -9.361  11.043  62.592  1.00  0.00    -0.317 A  
HETATM   33  N   UNL     1      -8.385  10.138  62.357  1.00  0.00    -0.145 NA 
HETATM   34  C   UNL     1      -8.041   9.347  63.394  1.00  0.00    -0.153 A  
HETATM   35  C   UNL     1      -8.618   9.424  64.655  1.00  0.00    -0.209 A  
HETATM   36  C   UNL     1      -9.629  10.369  64.885  1.00  0.00    -0.348 A  
HETATM   37  C   UNL     1     -10.266  10.519  66.138  1.00  0.00    -0.299 A  
ENDBRANCH  24  28
ENDBRANCH  12  13
ENDBRANCH  11  12
ENDBRANCH   9  11
ENDBRANCH   6   9
TORSDOF 5
ENDMDL
MODEL       22
REMARK 921   NORMALIZED FREE ENERGY PREDICTED BY IDOCK:   -6.93 KCAL/MOL
REMARK 922        TOTAL FREE ENERGY PREDICTED BY IDOCK:  -11.19 KCAL/MOL
REMARK 923 INTER-LIGAND FREE ENERGY PREDICTED BY IDOCK:   -9.48 KCAL/MOL
REMARK 924 INTRA-LIGAND FREE ENERGY PREDICTED BY IDOCK:   -1.70 KCAL/MOL
REMARK 927      BINDING AFFINITY PREDICTED BY RF-SCORE:    0.00 PKD
ROOT
HETATM    1  C   UNL     1      -9.697  10.717  64.171  1.00  0.00    -0.364 C  
HETATM    2  C   UNL     1      -9.307   9.511  64.975  1.00  0.00    -0.294 A  
HETATM    3  C   UNL     1      -8.296   8.655  64.525  1.00  0.00    -0.157 A  
HETATM    4  C   UNL     1      -7.951   7.491  65.235  1.00  0.00    -0.126 A  
HETATM    5  C   UNL     1      -6.861   6.613  64.678  1.00  0.00    -0.049 C  
HETATM    6  C   UNL     1      -8.641   7.181  66.426  1.00  0.00    -0.137 A  
HETATM    7  C   UNL     1      -9.643   8.051  66.889  1.00  0.00    -0.265 A  
HETATM    8  C   UNL     1      -9.972   9.205  66.167  1.00  0.00    -0.338 A  
ENDROOT
BRANCH   6   9
HETATM    9  C   UNL     1      -8.351   5.908  67.158  1.00  0.00    -0.105 C  
HETATM   10  O   UNL     1      -8.755   4.813  66.799  1.00  0.00    -0.109 OA 
BRANCH   9  11
HETATM   11  O   UNL     1      -7.571   6.137  68.246  1.00  0.00    -0.094 OA 
BRANCH  11  12
HETATM   12  C   UNL     1      -8.030   5.493  69.450  1.00  0.00    -0.094 C  
BRANCH  12  13
HETATM   13  C   UNL     1      -9.199   6.248  70.033  1.00  0.00    -0.157 A  
HETATM   14  C   UNL     1     -10.494   5.718  69.980  1.00  0.00    -0.353 A  
HETATM   15  C   UNL     1     -11.592   6.482  70.381  1.00  0.00    -0.470 A  
HETATM   16  C   UNL     1     -11.414   7.794  70.841  1.00  0.00    -0.294 A  
HETATM   17  C   UNL     1     -10.106   8.280  70.995  1.00  0.00    -0.230 A  
HETATM   18  C   UNL     1     -12.634   8.670  71.120  1.00  0.00    -0.176 C  
HETATM   19  C   UNL     1      -9.012   7.523  70.576  1.00  0.00    -0.152 A  
HETATM   20  C   UNL     1     -12.370  10.157  70.811  1.00  0.00    -0.328 C  
HETATM   21  C   UNL     1     -13.117   8.485  72.577  1.00  0.00    -0.238 C  
HETATM   22  O   UNL     1     -12.449  11.010  71.695  1.00  0.00    -0.310 OA 
HETATM   23  N   UNL     1     -14.359   9.215  72.875  1.00  0.00    -1.054 NA 
HETATM   24  N   UNL     1     -12.015  10.414  69.490  1.00  0.00    -0.497 N  
HETATM   25  H1  UNL     1     -14.679   9.093  73.836  1.00  0.00     0.000 HD 
HETATM   26  H2  UNL     1     -15.094   8.963  72.214  1.00  0.00     0.000 HD 
HETATM   27  H   UNL     1     -11.942   9.614  68.861  1.00  0.00     0.000 HD 
BRANCH  24  28
HETATM   28  C   UNL     1     -11.749  11.694  68.948  1.00  0.00    -0.334 A  
HETATM   29  C   UNL     1     -11.417  12.792  69.743  1.00  0.00    -0.199 A  
HETATM   30  C   UNL     1     -11.121  14.031  69.174  1.00  0.00    -0.294 A  
HETATM   31  C   UNL     1     -11.168  14.202  67.787  1.00  0.00    -0.307 A  
HETATM   32  C   UNL     1     -10.868  15.421  67.175  1.00  0.00    -0.321 A  
HETATM   33  N   UNL     1     -10.917  15.640  65.842  1.00  0.00    -0.277 NA 
HETATM   34  C   UNL     1     -11.281  14.592  65.077  1.00  0.00    -0.382 A  
HETATM   35  C   UNL     1     -11.588  13.333  65.577  1.00  0.00    -0.351 A  
HETATM   36  C   UNL     1     -11.534  13.119  66.962  1.00  0.00    -0.379 A  
HETATM   37  C   UNL     1     -11.825  11.870  67.557  1.00  0.00    -0.249 A  
ENDBRANCH  24  28
ENDBRANCH  12  13
ENDBRANCH  11  12
ENDBRANCH   9  11
ENDBRANCH   6   9
TORSDOF 5
ENDMDL
MODEL       23
REMARK 921   NORMALIZED FREE ENERGY PREDICTED BY IDOCK:   -6.66 KCAL/MOL
REMARK 922        TOTAL FREE ENERGY PREDICTED BY IDOCK:  -10.83 KCAL/MOL
REMARK 923 INTER-LIGAND FREE ENERGY PREDICTED BY IDOCK:   -8.67 KCAL/MOL
REMARK 924 INTRA-LIGAND FREE ENERGY PREDICTED BY IDOCK:   -2.16 KCAL/MOL
REMARK 927      BINDING AFFINITY PREDICTED BY RF-SCORE:    0.00 PKD
ROOT
HETATM    1  C   UNL     1      -6.561  10.554  70.270  1.00  0.00    -0.138 C  
HETATM    2  C   UNL     1      -7.399   9.310  70.316  1.00  0.00    -0.100 A  
HETATM    3  C   UNL     1      -8.791   9.396  70.429  1.00  0.00    -0.290 A  
HETATM    4  C   UNL     1      -9.592   8.244  70.528  1.00  0.00    -0.180 A  
HETATM    5  C   UNL     1     -11.081   8.421  70.661  1.00  0.00    -0.278 C  
HETATM    6  C   UNL     1      -8.976   6.974  70.514  1.00  0.00    -0.155 A  
HETATM    7  C   UNL     1      -7.580   6.887  70.381  1.00  0.00    -0.088 A  
HETATM    8  C   UNL     1      -6.800   8.046  70.284  1.00  0.00    -0.037 A  
ENDROOT
BRANCH   6   9
HETATM    9  C   UNL     1      -9.794   5.735  70.699  1.00  0.00    -0.187 C  
HETATM   10  O   UNL     1      -9.739   5.030  71.694  1.00  0.00    -0.157 OA 
BRANCH   9  11
HETATM   11  O   UNL     1     -10.608   5.523  69.633  1.00  0.00    -0.291 OA 
BRANCH  11  12
HETATM   12  C   UNL     1      -9.913   5.232  68.406  1.00  0.00    -0.159 C  
BRANCH  12  13
HETATM   13  C   UNL     1      -9.793   6.479  67.566  1.00  0.00    -0.150 A  
HETATM   14  C   UNL     1      -8.565   6.848  67.001  1.00  0.00    -0.121 A  
HETATM   15  C   UNL     1      -8.420   8.078  66.355  1.00  0.00    -0.138 A  
HETATM   16  C   UNL     1      -9.503   8.963  66.262  1.00  0.00    -0.304 A  
HETATM   17  C   UNL     1     -10.756   8.542  66.733  1.00  0.00    -0.081 A  
HETATM   18  C   UNL     1      -9.287  10.365  65.699  1.00  0.00    -0.244 C  
HETATM   19  C   UNL     1     -10.895   7.322  67.395  1.00  0.00    -0.317 A  
HETATM   20  C   UNL     1     -10.201  11.412  66.366  1.00  0.00    -0.230 C  
HETATM   21  C   UNL     1      -9.467  10.371  64.163  1.00  0.00    -0.300 C  
HETATM   22  O   UNL     1     -11.020  12.049  65.703  1.00  0.00    -0.279 OA 
HETATM   23  N   UNL     1      -9.158  11.670  63.545  1.00  0.00    -0.491 NA 
HETATM   24  N   UNL     1     -10.032  11.528  67.742  1.00  0.00    -0.180 N  
HETATM   25  H1  UNL     1      -9.276  11.674  62.532  1.00  0.00     0.000 HD 
HETATM   26  H2  UNL     1      -8.221  11.979  63.802  1.00  0.00     0.000 HD 
HETATM   27  H   UNL     1      -9.349  10.912  68.183  1.00  0.00     0.000 HD 
BRANCH  24  28
HETATM   28  C   UNL     1     -10.729  12.431  68.579  1.00  0.00    -0.238 A  
HETATM   29  C   UNL     1     -10.727  13.811  68.363  1.00  0.00    -0.266 A  
HETATM   30  C   UNL     1     -11.456  14.670  69.184  1.00  0.00    -0.320 A  
HETATM   31  C   UNL     1     -12.197  14.165  70.257  1.00  0.00    -0.416 A  
HETATM   32  C   UNL     1     -12.950  14.988  71.098  1.00  0.00    -0.390 A  
HETATM   33  N   UNL     1     -13.666  14.550  72.157  1.00  0.00    -0.408 NA 
HETATM   34  C   UNL     1     -13.633  13.223  72.393  1.00  0.00    -0.594 A  
HETATM   35  C   UNL     1     -12.928  12.312  71.617  1.00  0.00    -0.416 A  
HETATM   36  C   UNL     1     -12.189  12.781  70.520  1.00  0.00    -0.389 A  
HETATM   37  C   UNL     1     -11.447  11.924  69.674  1.00  0.00    -0.337 A  
ENDBRANCH  24  28
ENDBRANCH  12  13
ENDBRANCH  11  12
ENDBRANCH   9  11
ENDBRANCH   6   9
TORSDOF 5
ENDMDL
MODEL       24
REMARK 921   NORMALIZED FREE ENERGY PREDICTED BY IDOCK:   -6.65 KCAL/MOL
REMARK 922        TOTAL FREE ENERGY PREDICTED BY IDOCK:  -10.81 KCAL/MOL
REMARK 923 INTER-LIGAND FREE ENERGY PREDICTED BY IDOCK:   -9.94 KCAL/MOL
REMARK 924 INTRA-LIGAND FREE ENERGY PREDICTED BY IDOCK:   -0.87 KCAL/MOL
REMARK 927      BINDING AFFINITY PREDICTED BY RF-SCORE:    0.00 PKD
ROOT
HETATM    1  C   UNL     1      -5.846  14.908  69.818  1.00  0.00    -0.116 C  
HETATM    2  C   UNL     1      -6.933  15.854  69.396  1.00  0.00    -0.211 A  
HETATM    3  C   UNL     1      -6.615  17.090  68.824  1.00  0.00    -0.187 A  
HETATM    4  C   UNL     1      -7.615  18.014  68.471  1.00  0.00    -0.296 A  
HETATM    5  C   UNL     1      -7.191  19.329  67.873  1.00  0.00    -0.285 C  
HETATM    6  C   UNL     1      -8.968  17.685  68.701  1.00  0.00    -0.261 A  
HETATM    7  C   UNL     1      -9.289  16.436  69.257  1.00  0.00    -0.175 A  
HETATM    8  C   UNL     1      -8.278  15.529  69.603  1.00  0.00    -0.117 A  
ENDROOT
BRANCH   6   9
HETATM    9  C   UNL     1     -10.048  18.680  68.410  1.00  0.00    -0.383 C  
HETATM   10  O   UNL     1     -10.127  19.770  68.953  1.00  0.00    -0.455 OA 
BRANCH   9  11
HETATM   11  O   UNL     1     -10.897  18.216  67.457  1.00  0.00    -0.389 OA 
BRANCH  11  12
HETATM   12  C   UNL     1     -10.320  18.129  66.141  1.00  0.00    -0.385 C  
BRANCH  12  13
HETATM   13  C   UNL     1     -10.387  16.709  65.634  1.00  0.00    -0.310 A  
HETATM   14  C   UNL     1     -11.404  16.308  64.758  1.00  0.00    -0.214 A  
HETATM   15  C   UNL     1     -11.555  14.963  64.413  1.00  0.00    -0.296 A  
HETATM   16  C   UNL     1     -10.690  13.993  64.938  1.00  0.00    -0.432 A  
HETATM   17  C   UNL     1      -9.608  14.415  65.727  1.00  0.00    -0.216 A  
HETATM   18  C   UNL     1     -10.967  12.514  64.681  1.00  0.00    -0.345 C  
HETATM   19  C   UNL     1      -9.470  15.756  66.087  1.00  0.00    -0.375 A  
HETATM   20  C   UNL     1     -10.540  11.624  65.865  1.00  0.00    -0.271 C  
HETATM   21  C   UNL     1     -10.292  12.052  63.369  1.00  0.00    -0.434 C  
HETATM   22  O   UNL     1      -9.683  10.751  65.723  1.00  0.00    -0.206 OA 
HETATM   23  N   UNL     1     -10.617  10.664  63.005  1.00  0.00    -0.596 NA 
HETATM   24  N   UNL     1     -11.176  11.923  67.066  1.00  0.00    -0.304 N  
HETATM   25  H1  UNL     1     -10.171  10.359  62.139  1.00  0.00     0.000 HD 
HETATM   26  H2  UNL     1     -11.627  10.529  62.960  1.00  0.00     0.000 HD 
HETATM   27  H   UNL     1     -11.837  12.699  67.064  1.00  0.00     0.000 HD 
BRANCH  24  28
HETATM   28  C   UNL     1     -10.980  11.238  68.289  1.00  0.00    -0.224 A  
HETATM   29  C   UNL     1     -12.018  11.003  69.193  1.00  0.00    -0.394 A  
HETATM   30  C   UNL     1     -11.799  10.290  70.372  1.00  0.00    -0.396 A  
HETATM   31  C   UNL     1     -10.524   9.808  70.681  1.00  0.00    -0.358 A  
HETATM   32  C   UNL     1     -10.263   9.080  71.844  1.00  0.00    -0.272 A  
HETATM   33  N   UNL     1      -9.046   8.610  72.196  1.00  0.00    -0.319 NA 
HETATM   34  C   UNL     1      -8.034   8.874  71.345  1.00  0.00    -0.102 A  
HETATM   35  C   UNL     1      -8.181   9.578  70.156  1.00  0.00    -0.192 A  
HETATM   36  C   UNL     1      -9.450  10.061  69.804  1.00  0.00    -0.239 A  
HETATM   37  C   UNL     1      -9.691  10.781  68.611  1.00  0.00    -0.187 A  
ENDBRANCH  24  28
ENDBRANCH  12  13
ENDBRANCH  11  12
ENDBRANCH   9  11
ENDBRANCH   6   9
TORSDOF 5
ENDMDL
MODEL       25
REMARK 921   NORMALIZED FREE ENERGY PREDICTED BY IDOCK:   -6.63 KCAL/MOL
REMARK 922        TOTAL FREE ENERGY PREDICTED BY IDOCK:  -10.79 KCAL/MOL
REMARK 923 INTER-LIGAND FREE ENERGY PREDICTED BY IDOCK:   -9.06 KCAL/MOL
REMARK 924 INTRA-LIGAND FREE ENERGY PREDICTED BY IDOCK:   -1.73 KCAL/MOL
REMARK 927      BINDING AFFINITY PREDICTED BY RF-SCORE:    0.00 PKD
ROOT
HETATM    1  C   UNL     1     -12.104  13.957  69.621  1.00  0.00    -0.404 C  
HETATM    2  C   UNL     1     -11.825  13.567  68.198  1.00  0.00    -0.400 A  
HETATM    3  C   UNL     1     -11.753  14.541  67.196  1.00  0.00    -0.420 A  
HETATM    4  C   UNL     1     -11.548  14.193  65.849  1.00  0.00    -0.349 A  
HETATM    5  C   UNL     1     -11.496  15.299  64.828  1.00  0.00    -0.364 C  
HETATM    6  C   UNL     1     -11.412  12.832  65.503  1.00  0.00    -0.372 A  
HETATM    7  C   UNL     1     -11.464  11.855  66.511  1.00  0.00    -0.381 A  
HETATM    8  C   UNL     1     -11.671  12.222  67.847  1.00  0.00    -0.410 A  
ENDROOT
BRANCH   6   9
HETATM    9  C   UNL     1     -11.272  12.427  64.068  1.00  0.00    -0.396 C  
HETATM   10  O   UNL     1     -12.211  12.083  63.368  1.00  0.00    -0.538 OA 
BRANCH   9  11
HETATM   11  O   UNL     1      -9.981  12.518  63.657  1.00  0.00    -0.355 OA 
BRANCH  11  12
HETATM   12  C   UNL     1      -9.525  11.391  62.885  1.00  0.00    -0.345 C  
BRANCH  12  13
HETATM   13  C   UNL     1      -8.837  10.389  63.779  1.00  0.00    -0.222 A  
HETATM   14  C   UNL     1      -8.461   9.131  63.291  1.00  0.00    -0.197 A  
HETATM   15  C   UNL     1      -7.966   8.152  64.155  1.00  0.00    -0.142 A  
HETATM   16  C   UNL     1      -7.839   8.413  65.526  1.00  0.00    -0.109 A  
HETATM   17  C   UNL     1      -8.113   9.709  65.991  1.00  0.00    -0.112 A  
HETATM   18  C   UNL     1      -7.451   7.284  66.478  1.00  0.00    -0.088 C  
HETATM   19  C   UNL     1      -8.626  10.680  65.130  1.00  0.00    -0.173 A  
HETATM   20  C   UNL     1      -8.111   7.435  67.864  1.00  0.00    -0.119 C  
HETATM   21  C   UNL     1      -5.914   7.180  66.605  1.00  0.00    -0.035 C  
HETATM   22  O   UNL     1      -7.425   7.561  68.879  1.00  0.00    -0.092 OA 
HETATM   23  N   UNL     1      -5.473   6.036  67.419  1.00  0.00    -0.005 NA 
HETATM   24  N   UNL     1      -9.501   7.446  67.839  1.00  0.00    -0.140 N  
HETATM   25  H1  UNL     1      -4.459   5.967  67.503  1.00  0.00     0.000 HD 
HETATM   26  H2  UNL     1      -5.868   5.166  67.064  1.00  0.00     0.000 HD 
HETATM   27  H   UNL     1      -9.954   7.377  66.927  1.00  0.00     0.000 HD 
BRANCH  24  28
HETATM   28  C   UNL     1     -10.340   7.546  68.975  1.00  0.00    -0.212 A  
HETATM   29  C   UNL     1     -10.702   6.436  69.741  1.00  0.00    -0.341 A  
HETATM   30  C   UNL     1     -11.498   6.574  70.878  1.00  0.00    -0.408 A  
HETATM   31  C   UNL     1     -11.966   7.834  71.266  1.00  0.00    -0.324 A  
HETATM   32  C   UNL     1     -12.756   8.019  72.402  1.00  0.00    -0.140 A  
HETATM   33  N   UNL     1     -13.247   9.211  72.808  1.00  0.00    -0.299 NA 
HETATM   34  C   UNL     1     -12.935  10.277  72.043  1.00  0.00    -0.402 A  
HETATM   35  C   UNL     1     -12.148  10.210  70.900  1.00  0.00    -0.453 A  
HETATM   36  C   UNL     1     -11.645   8.966  70.491  1.00  0.00    -0.189 A  
HETATM   37  C   UNL     1     -10.833   8.808  69.345  1.00  0.00    -0.123 A  
ENDBRANCH  24  28
ENDBRANCH  12  13
ENDBRANCH  11  12
ENDBRANCH   9  11
ENDBRANCH   6   9
TORSDOF 5
ENDMDL
MODEL       26
REMARK 921   NORMALIZED FREE ENERGY PREDICTED BY IDOCK:   -6.61 KCAL/MOL
REMARK 922        TOTAL FREE ENERGY PREDICTED BY IDOCK:  -10.77 KCAL/MOL
REMARK 923 INTER-LIGAND FREE ENERGY PREDICTED BY IDOCK:   -9.82 KCAL/MOL
REMARK 924 INTRA-LIGAND FREE ENERGY PREDICTED BY IDOCK:   -0.96 KCAL/MOL
REMARK 927      BINDING AFFINITY PREDICTED BY RF-SCORE:    0.00 PKD
ROOT
HETATM    1  C   UNL     1      -5.422  18.455  65.024  1.00  0.00    -0.187 C  
HETATM    2  C   UNL     1      -6.680  18.238  65.812  1.00  0.00    -0.317 A  
HETATM    3  C   UNL     1      -7.628  19.261  65.931  1.00  0.00    -0.266 A  
HETATM    4  C   UNL     1      -8.788  19.100  66.709  1.00  0.00    -0.330 A  
HETATM    5  C   UNL     1      -9.752  20.252  66.798  1.00  0.00    -0.571 C  
HETATM    6  C   UNL     1      -8.999  17.878  67.385  1.00  0.00    -0.245 A  
HETATM    7  C   UNL     1      -8.058  16.844  67.250  1.00  0.00    -0.207 A  
HETATM    8  C   UNL     1      -6.908  17.025  66.470  1.00  0.00    -0.281 A  
ENDROOT
BRANCH   6   9
HETATM    9  C   UNL     1     -10.184  17.707  68.284  1.00  0.00    -0.374 C  
HETATM   10  O   UNL     1     -10.233  18.134  69.426  1.00  0.00    -0.207 OA 
BRANCH   9  11
HETATM   11  O   UNL     1     -11.185  17.042  67.652  1.00  0.00    -0.138 OA 
BRANCH  11  12
HETATM   12  C   UNL     1     -11.742  15.952  68.410  1.00  0.00    -0.241 C  
BRANCH  12  13
HETATM   13  C   UNL     1     -11.323  14.631  67.812  1.00  0.00    -0.338 A  
HETATM   14  C   UNL     1     -11.990  14.105  66.699  1.00  0.00    -0.470 A  
HETATM   15  C   UNL     1     -11.704  12.816  66.242  1.00  0.00    -0.460 A  
HETATM   16  C   UNL     1     -10.744  12.029  66.893  1.00  0.00    -0.282 A  
HETATM   17  C   UNL     1     -10.003  12.602  67.939  1.00  0.00    -0.228 A  
HETATM   18  C   UNL     1     -10.560  10.569  66.484  1.00  0.00    -0.240 C  
HETATM   19  C   UNL     1     -10.304  13.881  68.406  1.00  0.00    -0.249 A  
HETATM   20  C   UNL     1     -10.172   9.672  67.676  1.00  0.00    -0.216 C  
HETATM   21  C   UNL     1      -9.526  10.448  65.341  1.00  0.00    -0.232 C  
HETATM   22  O   UNL     1      -9.104   9.058  67.684  1.00  0.00    -0.132 OA 
HETATM   23  N   UNL     1      -9.388   9.079  64.823  1.00  0.00    -0.413 NA 
HETATM   24  N   UNL     1     -11.101   9.659  68.711  1.00  0.00    -0.450 N  
HETATM   25  H1  UNL     1      -8.706   8.999  64.068  1.00  0.00     0.000 HD 
HETATM   26  H2  UNL     1     -10.293   8.708  64.534  1.00  0.00     0.000 HD 
HETATM   27  H   UNL     1     -11.929  10.245  68.604  1.00  0.00     0.000 HD 
BRANCH  24  28
HETATM   28  C   UNL     1     -10.993   8.898  69.900  1.00  0.00    -0.182 A  
HETATM   29  C   UNL     1     -11.090   9.471  71.169  1.00  0.00    -0.450 A  
HETATM   30  C   UNL     1     -11.018   8.687  72.321  1.00  0.00    -0.392 A  
HETATM   31  C   UNL     1     -10.830   7.305  72.226  1.00  0.00    -0.274 A  
HETATM   32  C   UNL     1     -10.764   6.481  73.352  1.00  0.00    -0.270 A  
HETATM   33  N   UNL     1     -10.567   5.145  73.312  1.00  0.00    -0.215 NA 
HETATM   34  C   UNL     1     -10.429   4.597  72.088  1.00  0.00    -0.148 A  
HETATM   35  C   UNL     1     -10.489   5.318  70.902  1.00  0.00    -0.285 A  
HETATM   36  C   UNL     1     -10.695   6.704  70.958  1.00  0.00    -0.278 A  
HETATM   37  C   UNL     1     -10.775   7.514  69.802  1.00  0.00    -0.249 A  
ENDBRANCH  24  28
ENDBRANCH  12  13
ENDBRANCH  11  12
ENDBRANCH   9  11
ENDBRANCH   6   9
TORSDOF 5
ENDMDL
MODEL       27
REMARK 921   NORMALIZED FREE ENERGY PREDICTED BY IDOCK:   -6.61 KCAL/MOL
REMARK 922        TOTAL FREE ENERGY PREDICTED BY IDOCK:  -10.76 KCAL/MOL
REMARK 923 INTER-LIGAND FREE ENERGY PREDICTED BY IDOCK:   -9.62 KCAL/MOL
REMARK 924 INTRA-LIGAND FREE ENERGY PREDICTED BY IDOCK:   -1.14 KCAL/MOL
REMARK 927      BINDING AFFINITY PREDICTED BY RF-SCORE:    0.00 PKD
ROOT
HETATM    1  C   UNL     1      -5.548  20.216  62.415  1.00  0.00    -0.309 C  
HETATM    2  C   UNL     1      -5.619  20.070  63.907  1.00  0.00    -0.284 A  
HETATM    3  C   UNL     1      -5.380  18.830  64.511  1.00  0.00    -0.240 A  
HETATM    4  C   UNL     1      -5.493  18.657  65.902  1.00  0.00    -0.198 A  
HETATM    5  C   UNL     1      -5.234  17.289  66.473  1.00  0.00    -0.200 C  
HETATM    6  C   UNL     1      -5.857  19.760  66.705  1.00  0.00    -0.170 A  
HETATM    7  C   UNL     1      -6.078  21.009  66.102  1.00  0.00    -0.310 A  
HETATM    8  C   UNL     1      -5.961  21.161  64.714  1.00  0.00    -0.217 A  
ENDROOT
BRANCH   6   9
HETATM    9  C   UNL     1      -6.064  19.587  68.177  1.00  0.00    -0.220 C  
HETATM   10  O   UNL     1      -5.185  19.754  69.008  1.00  0.00    -0.183 OA 
BRANCH   9  11
HETATM   11  O   UNL     1      -7.349  19.245  68.454  1.00  0.00    -0.279 OA 
BRANCH  11  12
HETATM   12  C   UNL     1      -7.497  17.957  69.080  1.00  0.00    -0.166 C  
BRANCH  12  13
HETATM   13  C   UNL     1      -8.503  17.122  68.325  1.00  0.00    -0.236 A  
HETATM   14  C   UNL     1      -9.772  17.630  68.019  1.00  0.00    -0.301 A  
HETATM   15  C   UNL     1     -10.751  16.806  67.459  1.00  0.00    -0.275 A  
HETATM   16  C   UNL     1     -10.478  15.457  67.194  1.00  0.00    -0.290 A  
HETATM   17  C   UNL     1      -9.173  14.983  67.401  1.00  0.00    -0.200 A  
HETATM   18  C   UNL     1     -11.604  14.534  66.735  1.00  0.00    -0.388 C  
HETATM   19  C   UNL     1      -8.202  15.801  67.978  1.00  0.00    -0.143 A  
HETATM   20  C   UNL     1     -11.428  13.093  67.254  1.00  0.00    -0.331 C  
HETATM   21  C   UNL     1     -11.735  14.556  65.195  1.00  0.00    -0.376 C  
HETATM   22  O   UNL     1     -11.304  12.150  66.471  1.00  0.00    -0.313 OA 
HETATM   23  N   UNL     1     -12.878  13.775  64.696  1.00  0.00    -0.667 NA 
HETATM   24  N   UNL     1     -11.392  12.983  68.640  1.00  0.00    -0.270 N  
HETATM   25  H1  UNL     1     -12.964  13.789  63.680  1.00  0.00     0.000 HD 
HETATM   26  H2  UNL     1     -13.745  14.080  65.138  1.00  0.00     0.000 HD 
HETATM   27  H   UNL     1     -11.462  13.845  69.180  1.00  0.00     0.000 HD 
BRANCH  24  28
HETATM   28  C   UNL     1     -11.265  11.772  69.362  1.00  0.00    -0.234 A  
HETATM   29  C   UNL     1     -10.077  11.040  69.400  1.00  0.00    -0.060 A  
HETATM   30  C   UNL     1      -9.974   9.871  70.154  1.00  0.00    -0.291 A  
HETATM   31  C   UNL     1     -11.072   9.397  70.878  1.00  0.00    -0.389 A  
HETATM   32  C   UNL     1     -11.010   8.237  71.655  1.00  0.00    -0.264 A  
HETATM   33  N   UNL     1     -12.047   7.730  72.357  1.00  0.00    -0.284 NA 
HETATM   34  C   UNL     1     -13.208   8.412  72.285  1.00  0.00    -0.273 A  
HETATM   35  C   UNL     1     -13.380   9.580  71.554  1.00  0.00    -0.470 A  
HETATM   36  C   UNL     1     -12.294  10.096  70.830  1.00  0.00    -0.461 A  
HETATM   37  C   UNL     1     -12.379  11.282  70.065  1.00  0.00    -0.330 A  
ENDBRANCH  24  28
ENDBRANCH  12  13
ENDBRANCH  11  12
ENDBRANCH   9  11
ENDBRANCH   6   9
TORSDOF 5
ENDMDL
MODEL       28
REMARK 921   NORMALIZED FREE ENERGY PREDICTED BY IDOCK:   -6.58 KCAL/MOL
REMARK 922        TOTAL FREE ENERGY PREDICTED BY IDOCK:  -10.73 KCAL/MOL
REMARK 923 INTER-LIGAND FREE ENERGY PREDICTED BY IDOCK:   -8.68 KCAL/MOL
REMARK 924 INTRA-LIGAND FREE ENERGY PREDICTED BY IDOCK:   -2.06 KCAL/MOL
REMARK 927      BINDING AFFINITY PREDICTED BY RF-SCORE:    0.00 PKD
ROOT
HETATM    1  C   UNL     1     -12.409  13.629  70.852  1.00  0.00    -0.450 C  
HETATM    2  C   UNL     1     -11.581  14.687  70.182  1.00  0.00    -0.336 A  
HETATM    3  C   UNL     1     -10.219  14.474  69.940  1.00  0.00     0.276 A  
HETATM    4  C   UNL     1      -9.413  15.472  69.363  1.00  0.00    -0.278 A  
HETATM    5  C   UNL     1      -7.953  15.171  69.147  1.00  0.00    -0.205 C  
HETATM    6  C   UNL     1      -9.991  16.713  69.022  1.00  0.00    -0.280 A  
HETATM    7  C   UNL     1     -11.362  16.920  69.247  1.00  0.00     0.272 A  
HETATM    8  C   UNL     1     -12.149  15.914  69.824  1.00  0.00    -0.231 A  
ENDROOT
BRANCH   6   9
HETATM    9  C   UNL     1      -9.141  17.820  68.482  1.00  0.00    -0.282 C  
HETATM   10  O   UNL     1      -8.014  18.065  68.883  1.00  0.00    -0.269 OA 
BRANCH   9  11
HETATM   11  O   UNL     1      -9.780  18.486  67.485  1.00  0.00    -0.289 OA 
BRANCH  11  12
HETATM   12  C   UNL     1      -9.291  18.185  66.165  1.00  0.00    -0.132 C  
BRANCH  12  13
HETATM   13  C   UNL     1      -9.897  16.897  65.664  1.00  0.00    -0.067 A  
HETATM   14  C   UNL     1     -11.212  16.861  65.185  1.00  0.00     0.157 A  
HETATM   15  C   UNL     1     -11.821  15.645  64.867  1.00  0.00     0.041 A  
HETATM   16  C   UNL     1     -11.123  14.439  65.025  1.00  0.00    -0.385 A  
HETATM   17  C   UNL     1      -9.771  14.490  65.400  1.00  0.00    -0.163 A  
HETATM   18  C   UNL     1     -11.852  13.112  64.829  1.00  0.00    -0.413 C  
HETATM   19  C   UNL     1      -9.171  15.704  65.736  1.00  0.00    -0.247 A  
HETATM   20  C   UNL     1     -11.314  12.006  65.758  1.00  0.00    -0.331 C  
HETATM   21  C   UNL     1     -11.793  12.669  63.349  1.00  0.00    -0.514 C  
HETATM   22  O   UNL     1     -10.816  10.979  65.296  1.00  0.00    -0.210 OA 
HETATM   23  N   UNL     1     -12.576  11.455  63.073  1.00  0.00    -0.851 NA 
HETATM   24  N   UNL     1     -11.417  12.296  67.115  1.00  0.00    -0.333 N  
HETATM   25  H1  UNL     1     -12.538  11.163  62.096  1.00  0.00     0.000 HD 
HETATM   26  H2  UNL     1     -13.542  11.571  63.379  1.00  0.00     0.000 HD 
HETATM   27  H   UNL     1     -11.810  13.202  67.371  1.00  0.00     0.000 HD 
BRANCH  24  28
HETATM   28  C   UNL     1     -11.021  11.438  68.168  1.00  0.00    -0.232 A  
HETATM   29  C   UNL     1      -9.698  11.030  68.348  1.00  0.00    -0.181 A  
HETATM   30  C   UNL     1      -9.334  10.215  69.420  1.00  0.00    -0.235 A  
HETATM   31  C   UNL     1     -10.297   9.775  70.333  1.00  0.00    -0.354 A  
HETATM   32  C   UNL     1      -9.975   8.967  71.426  1.00  0.00    -0.318 A  
HETATM   33  N   UNL     1     -10.871   8.502  72.324  1.00  0.00    -0.352 NA 
HETATM   34  C   UNL     1     -12.156   8.858  72.126  1.00  0.00    -0.359 A  
HETATM   35  C   UNL     1     -12.587   9.665  71.081  1.00  0.00    -0.411 A  
HETATM   36  C   UNL     1     -11.646  10.142  70.156  1.00  0.00    -0.350 A  
HETATM   37  C   UNL     1     -11.995  10.972  69.066  1.00  0.00    -0.364 A  
ENDBRANCH  24  28
ENDBRANCH  12  13
ENDBRANCH  11  12
ENDBRANCH   9  11
ENDBRANCH   6   9
TORSDOF 5
ENDMDL
MODEL       29
REMARK 921   NORMALIZED FREE ENERGY PREDICTED BY IDOCK:   -6.55 KCAL/MOL
REMARK 922        TOTAL FREE ENERGY PREDICTED BY IDOCK:  -10.70 KCAL/MOL
REMARK 923 INTER-LIGAND FREE ENERGY PREDICTED BY IDOCK:   -9.03 KCAL/MOL
REMARK 924 INTRA-LIGAND FREE ENERGY PREDICTED BY IDOCK:   -1.66 KCAL/MOL
REMARK 927      BINDING AFFINITY PREDICTED BY RF-SCORE:    0.00 PKD
ROOT
HETATM    1  C   UNL     1     -13.454  13.596  71.120  1.00  0.00    -0.118 C  
HETATM    2  C   UNL     1     -12.895  12.210  71.260  1.00  0.00    -0.349 A  
HETATM    3  C   UNL     1     -11.813  11.798  70.473  1.00  0.00    -0.288 A  
HETATM    4  C   UNL     1     -11.308  10.487  70.548  1.00  0.00    -0.400 A  
HETATM    5  C   UNL     1     -10.151  10.118  69.658  1.00  0.00    -0.265 C  
HETATM    6  C   UNL     1     -11.907   9.569  71.437  1.00  0.00    -0.464 A  
HETATM    7  C   UNL     1     -12.980   9.987  72.241  1.00  0.00    -0.356 A  
HETATM    8  C   UNL     1     -13.469  11.297  72.151  1.00  0.00    -0.197 A  
ENDROOT
BRANCH   6   9
HETATM    9  C   UNL     1     -11.443   8.147  71.479  1.00  0.00    -0.267 C  
HETATM   10  O   UNL     1     -10.600   7.733  72.259  1.00  0.00    -0.224 OA 
BRANCH   9  11
HETATM   11  O   UNL     1     -12.098   7.391  70.560  1.00  0.00    -0.186 OA 
BRANCH  11  12
HETATM   12  C   UNL     1     -11.355   6.248  70.096  1.00  0.00    -0.406 C  
BRANCH  12  13
HETATM   13  C   UNL     1     -10.464   6.637  68.942  1.00  0.00    -0.239 A  
HETATM   14  C   UNL     1      -9.079   6.754  69.113  1.00  0.00    -0.138 A  
HETATM   15  C   UNL     1      -8.277   7.262  68.088  1.00  0.00    -0.124 A  
HETATM   16  C   UNL     1      -8.847   7.664  66.872  1.00  0.00    -0.142 A  
HETATM   17  C   UNL     1     -10.218   7.442  66.669  1.00  0.00    -0.247 A  
HETATM   18  C   UNL     1      -7.983   8.365  65.827  1.00  0.00    -0.108 C  
HETATM   19  C   UNL     1     -11.022   6.953  67.699  1.00  0.00    -0.304 A  
HETATM   20  C   UNL     1      -8.776   9.412  65.019  1.00  0.00    -0.186 C  
HETATM   21  C   UNL     1      -7.313   7.334  64.890  1.00  0.00    -0.080 C  
HETATM   22  O   UNL     1      -8.903   9.304  63.799  1.00  0.00    -0.201 OA 
HETATM   23  N   UNL     1      -6.376   7.940  63.932  1.00  0.00    -0.061 NA 
HETATM   24  N   UNL     1      -9.336  10.427  65.788  1.00  0.00    -0.175 N  
HETATM   25  H1  UNL     1      -5.934   7.259  63.314  1.00  0.00     0.000 HD 
HETATM   26  H2  UNL     1      -5.674   8.499  64.417  1.00  0.00     0.000 HD 
HETATM   27  H   UNL     1      -9.194  10.381  66.798  1.00  0.00     0.000 HD 
BRANCH  24  28
HETATM   28  C   UNL     1     -10.084  11.518  65.285  1.00  0.00    -0.269 A  
HETATM   29  C   UNL     1     -11.207  11.347  64.472  1.00  0.00    -0.251 A  
HETATM   30  C   UNL     1     -11.946  12.442  64.025  1.00  0.00    -0.546 A  
HETATM   31  C   UNL     1     -11.565  13.742  64.372  1.00  0.00    -0.418 A  
HETATM   32  C   UNL     1     -12.282  14.866  63.956  1.00  0.00    -0.123 A  
HETATM   33  N   UNL     1     -11.945  16.141  64.250  1.00  0.00    -0.632 NA 
HETATM   34  C   UNL     1     -10.836  16.309  64.998  1.00  0.00    -0.320 A  
HETATM   35  C   UNL     1     -10.054  15.265  65.475  1.00  0.00    -0.408 A  
HETATM   36  C   UNL     1     -10.417  13.946  65.163  1.00  0.00    -0.409 A  
HETATM   37  C   UNL     1      -9.682  12.824  65.611  1.00  0.00    -0.131 A  
ENDBRANCH  24  28
ENDBRANCH  12  13
ENDBRANCH  11  12
ENDBRANCH   9  11
ENDBRANCH   6   9
TORSDOF 5
ENDMDL
MODEL       30
REMARK 921   NORMALIZED FREE ENERGY PREDICTED BY IDOCK:   -6.50 KCAL/MOL
REMARK 922        TOTAL FREE ENERGY PREDICTED BY IDOCK:  -10.63 KCAL/MOL
REMARK 923 INTER-LIGAND FREE ENERGY PREDICTED BY IDOCK:   -9.80 KCAL/MOL
REMARK 924 INTRA-LIGAND FREE ENERGY PREDICTED BY IDOCK:   -0.83 KCAL/MOL
REMARK 927      BINDING AFFINITY PREDICTED BY RF-SCORE:    0.00 PKD
ROOT
HETATM    1  C   UNL     1      -7.122  20.816  67.788  1.00  0.00    -0.305 C  
HETATM    2  C   UNL     1      -8.032  19.715  67.324  1.00  0.00    -0.314 A  
HETATM    3  C   UNL     1      -7.571  18.396  67.255  1.00  0.00    -0.228 A  
HETATM    4  C   UNL     1      -8.388  17.358  66.771  1.00  0.00    -0.276 A  
HETATM    5  C   UNL     1      -7.814  15.967  66.715  1.00  0.00    -0.288 C  
HETATM    6  C   UNL     1      -9.701  17.656  66.347  1.00  0.00    -0.303 A  
HETATM    7  C   UNL     1     -10.170  18.977  66.434  1.00  0.00    -0.502 A  
HETATM    8  C   UNL     1      -9.340  19.997  66.918  1.00  0.00    -0.515 A  
ENDROOT
BRANCH   6   9
HETATM    9  C   UNL     1     -10.564  16.588  65.753  1.00  0.00    -0.296 C  
HETATM   10  O   UNL     1     -10.802  16.495  64.559  1.00  0.00    -0.802 OA 
BRANCH   9  11
HETATM   11  O   UNL     1     -11.018  15.738  66.710  1.00  0.00    -0.293 OA 
BRANCH  11  12
HETATM   12  C   UNL     1     -11.128  14.368  66.281  1.00  0.00    -0.331 C  
BRANCH  12  13
HETATM   13  C   UNL     1     -11.497  13.483  67.447  1.00  0.00    -0.366 A  
HETATM   14  C   UNL     1     -11.714  14.027  68.720  1.00  0.00    -0.388 A  
HETATM   15  C   UNL     1     -11.902  13.195  69.825  1.00  0.00    -0.386 A  
HETATM   16  C   UNL     1     -11.877  11.801  69.678  1.00  0.00    -0.407 A  
HETATM   17  C   UNL     1     -11.769  11.264  68.385  1.00  0.00    -0.365 A  
HETATM   18  C   UNL     1     -11.922  10.909  70.916  1.00  0.00    -0.416 C  
HETATM   19  C   UNL     1     -11.561  12.096  67.284  1.00  0.00    -0.404 A  
HETATM   20  C   UNL     1     -11.109   9.612  70.734  1.00  0.00    -0.334 C  
HETATM   21  C   UNL     1     -13.384  10.594  71.310  1.00  0.00    -0.145 C  
HETATM   22  O   UNL     1     -11.654   8.510  70.800  1.00  0.00    -0.274 OA 
HETATM   23  N   UNL     1     -13.499   9.833  72.564  1.00  0.00    -0.633 NA 
HETATM   24  N   UNL     1      -9.759   9.814  70.464  1.00  0.00    -0.353 N  
HETATM   25  H1  UNL     1     -14.463   9.626  72.824  1.00  0.00     0.000 HD 
HETATM   26  H2  UNL     1     -13.013  10.311  73.323  1.00  0.00     0.000 HD 
HETATM   27  H   UNL     1      -9.436  10.779  70.392  1.00  0.00     0.000 HD 
BRANCH  24  28
HETATM   28  C   UNL     1      -8.798   8.792  70.282  1.00  0.00    -0.160 A  
HETATM   29  C   UNL     1      -8.047   8.271  71.338  1.00  0.00    -0.148 A  
HETATM   30  C   UNL     1      -7.135   7.236  71.131  1.00  0.00    -0.061 A  
HETATM   31  C   UNL     1      -6.943   6.706  69.852  1.00  0.00    -0.063 A  
HETATM   32  C   UNL     1      -6.049   5.662  69.602  1.00  0.00    -0.025 A  
HETATM   33  N   UNL     1      -5.816   5.130  68.382  1.00  0.00    -0.016 NA 
HETATM   34  C   UNL     1      -6.508   5.662  67.355  1.00  0.00    -0.047 A  
HETATM   35  C   UNL     1      -7.430   6.693  67.490  1.00  0.00    -0.097 A  
HETATM   36  C   UNL     1      -7.662   7.236  68.762  1.00  0.00    -0.119 A  
HETATM   37  C   UNL     1      -8.585   8.282  68.991  1.00  0.00    -0.135 A  
ENDBRANCH  24  28
ENDBRANCH  12  13
ENDBRANCH  11  12
ENDBRANCH   9  11
ENDBRANCH   6   9
TORSDOF 5
ENDMDL
MODEL       31
REMARK 921   NORMALIZED FREE ENERGY PREDICTED BY IDOCK:   -6.49 KCAL/MOL
REMARK 922        TOTAL FREE ENERGY PREDICTED BY IDOCK:  -10.61 KCAL/MOL
REMARK 923 INTER-LIGAND FREE ENERGY PREDICTED BY IDOCK:   -9.77 KCAL/MOL
REMARK 924 INTRA-LIGAND FREE ENERGY PREDICTED BY IDOCK:   -0.84 KCAL/MOL
REMARK 927      BINDING AFFINITY PREDICTED BY RF-SCORE:    0.00 PKD
ROOT
HETATM    1  C   UNL     1      -6.629  19.960  69.703  1.00  0.00    -0.373 C  
HETATM    2  C   UNL     1      -7.518  19.062  68.893  1.00  0.00    -0.364 A  
HETATM    3  C   UNL     1      -8.710  19.550  68.345  1.00  0.00    -0.389 A  
HETATM    4  C   UNL     1      -9.585  18.714  67.629  1.00  0.00    -0.325 A  
HETATM    5  C   UNL     1     -10.854  19.312  67.082  1.00  0.00    -0.543 C  
HETATM    6  C   UNL     1      -9.253  17.352  67.462  1.00  0.00    -0.233 A  
HETATM    7  C   UNL     1      -8.048  16.866  67.995  1.00  0.00    -0.194 A  
HETATM    8  C   UNL     1      -7.190  17.715  68.706  1.00  0.00    -0.268 A  
ENDROOT
BRANCH   6   9
HETATM    9  C   UNL     1     -10.203  16.422  66.775  1.00  0.00    -0.285 C  
HETATM   10  O   UNL     1     -10.332  16.360  65.562  1.00  0.00    -0.472 OA 
BRANCH   9  11
HETATM   11  O   UNL     1     -10.872  15.654  67.674  1.00  0.00    -0.296 OA 
BRANCH  11  12
HETATM   12  C   UNL     1     -11.473  14.473  67.111  1.00  0.00    -0.368 C  
BRANCH  12  13
HETATM   13  C   UNL     1     -11.762  13.466  68.198  1.00  0.00    -0.397 A  
HETATM   14  C   UNL     1     -11.965  13.877  69.521  1.00  0.00    -0.396 A  
HETATM   15  C   UNL     1     -12.079  12.937  70.548  1.00  0.00    -0.364 A  
HETATM   16  C   UNL     1     -11.991  11.566  70.269  1.00  0.00    -0.455 A  
HETATM   17  C   UNL     1     -11.897  11.158  68.929  1.00  0.00    -0.406 A  
HETATM   18  C   UNL     1     -11.954  10.561  71.418  1.00  0.00    -0.325 C  
HETATM   19  C   UNL     1     -11.764  12.098  67.906  1.00  0.00    -0.403 A  
HETATM   20  C   UNL     1     -11.086   9.330  71.092  1.00  0.00    -0.341 C  
HETATM   21  C   UNL     1     -13.386  10.137  71.819  1.00  0.00    -0.385 C  
HETATM   22  O   UNL     1     -11.575   8.200  71.068  1.00  0.00    -0.278 OA 
HETATM   23  N   UNL     1     -13.425   9.258  72.998  1.00  0.00    -0.814 NA 
HETATM   24  N   UNL     1      -9.757   9.625  70.807  1.00  0.00    -0.320 N  
HETATM   25  H1  UNL     1     -14.369   8.979  73.263  1.00  0.00     0.000 HD 
HETATM   26  H2  UNL     1     -12.939   9.687  73.785  1.00  0.00     0.000 HD 
HETATM   27  H   UNL     1      -9.483  10.608  70.817  1.00  0.00     0.000 HD 
BRANCH  24  28
HETATM   28  C   UNL     1      -8.753   8.674  70.504  1.00  0.00    -0.162 A  
HETATM   29  C   UNL     1      -8.012   8.023  71.492  1.00  0.00    -0.117 A  
HETATM   30  C   UNL     1      -7.058   7.061  71.161  1.00  0.00    -0.074 A  
HETATM   31  C   UNL     1      -6.811   6.740  69.822  1.00  0.00    -0.054 A  
HETATM   32  C   UNL     1      -5.872   5.777  69.447  1.00  0.00    -0.016 A  
HETATM   33  N   UNL     1      -5.585   5.445  68.168  1.00  0.00    -0.011 NA 
HETATM   34  C   UNL     1      -6.268   6.105  67.212  1.00  0.00    -0.029 A  
HETATM   35  C   UNL     1      -7.231   7.073  67.471  1.00  0.00    -0.090 A  
HETATM   36  C   UNL     1      -7.519   7.407  68.803  1.00  0.00    -0.101 A  
HETATM   37  C   UNL     1      -8.486   8.375  69.157  1.00  0.00    -0.123 A  
ENDBRANCH  24  28
ENDBRANCH  12  13
ENDBRANCH  11  12
ENDBRANCH   9  11
ENDBRANCH   6   9
TORSDOF 5
ENDMDL
MODEL       32
REMARK 921   NORMALIZED FREE ENERGY PREDICTED BY IDOCK:   -6.48 KCAL/MOL
REMARK 922        TOTAL FREE ENERGY PREDICTED BY IDOCK:  -10.60 KCAL/MOL
REMARK 923 INTER-LIGAND FREE ENERGY PREDICTED BY IDOCK:  -10.18 KCAL/MOL
REMARK 924 INTRA-LIGAND FREE ENERGY PREDICTED BY IDOCK:   -0.42 KCAL/MOL
REMARK 927      BINDING AFFINITY PREDICTED BY RF-SCORE:    0.00 PKD
ROOT
HETATM    1  C   UNL     1     -10.942   3.514  73.514  1.00  0.00    -0.330 C  
HETATM    2  C   UNL     1     -10.898   4.919  72.986  1.00  0.00    -0.331 A  
HETATM    3  C   UNL     1     -11.025   5.166  71.615  1.00  0.00    -0.050 A  
HETATM    4  C   UNL     1     -10.933   6.468  71.092  1.00  0.00    -0.314 A  
HETATM    5  C   UNL     1     -11.067   6.650  69.604  1.00  0.00    -0.390 C  
HETATM    6  C   UNL     1     -10.705   7.548  71.972  1.00  0.00    -0.264 A  
HETATM    7  C   UNL     1     -10.597   7.303  73.351  1.00  0.00    -0.435 A  
HETATM    8  C   UNL     1     -10.691   5.998  73.852  1.00  0.00    -0.151 A  
ENDROOT
BRANCH   6   9
HETATM    9  C   UNL     1     -10.522   8.934  71.436  1.00  0.00    -0.305 C  
HETATM   10  O   UNL     1      -9.463   9.541  71.476  1.00  0.00    -0.206 OA 
BRANCH   9  11
HETATM   11  O   UNL     1     -11.673   9.403  70.888  1.00  0.00    -0.281 OA 
BRANCH  11  12
HETATM   12  C   UNL     1     -11.863  10.822  71.035  1.00  0.00    -0.247 C  
BRANCH  12  13
HETATM   13  C   UNL     1     -11.852  11.493  69.684  1.00  0.00    -0.421 A  
HETATM   14  C   UNL     1     -11.688  10.744  68.512  1.00  0.00    -0.259 A  
HETATM   15  C   UNL     1     -11.524  11.379  67.279  1.00  0.00    -0.301 A  
HETATM   16  C   UNL     1     -11.520  12.779  67.196  1.00  0.00    -0.394 A  
HETATM   17  C   UNL     1     -11.794  13.521  68.355  1.00  0.00    -0.408 A  
HETATM   18  C   UNL     1     -11.179  13.457  65.871  1.00  0.00    -0.314 C  
HETATM   19  C   UNL     1     -11.938  12.886  69.589  1.00  0.00    -0.358 A  
HETATM   20  C   UNL     1     -10.435  14.792  66.071  1.00  0.00    -0.303 C  
HETATM   21  C   UNL     1     -12.450  13.654  65.014  1.00  0.00    -0.414 C  
HETATM   22  O   UNL     1     -10.917  15.850  65.666  1.00  0.00    -0.290 OA 
HETATM   23  N   UNL     1     -12.172  14.198  63.676  1.00  0.00    -1.049 NA 
HETATM   24  N   UNL     1      -9.231  14.681  66.759  1.00  0.00    -0.251 N  
HETATM   25  H1  UNL     1     -13.011  14.328  63.110  1.00  0.00     0.000 HD 
HETATM   26  H2  UNL     1     -11.490  13.620  63.185  1.00  0.00     0.000 HD 
HETATM   27  H   UNL     1      -8.961  13.752  67.082  1.00  0.00     0.000 HD 
BRANCH  24  28
HETATM   28  C   UNL     1      -8.351  15.751  67.048  1.00  0.00    -0.226 A  
HETATM   29  C   UNL     1      -8.052  16.750  66.118  1.00  0.00    -0.293 A  
HETATM   30  C   UNL     1      -7.211  17.812  66.448  1.00  0.00    -0.308 A  
HETATM   31  C   UNL     1      -6.633  17.890  67.719  1.00  0.00    -0.193 A  
HETATM   32  C   UNL     1      -5.795  18.942  68.094  1.00  0.00    -0.208 A  
HETATM   33  N   UNL     1      -5.199  19.052  69.302  1.00  0.00    -0.191 NA 
HETATM   34  C   UNL     1      -5.451  18.065  70.185  1.00  0.00    -0.252 A  
HETATM   35  C   UNL     1      -6.277  16.980  69.923  1.00  0.00    -0.132 A  
HETATM   36  C   UNL     1      -6.889  16.878  68.665  1.00  0.00    -0.183 A  
HETATM   37  C   UNL     1      -7.748  15.811  68.315  1.00  0.00    -0.132 A  
ENDBRANCH  24  28
ENDBRANCH  12  13
ENDBRANCH  11  12
ENDBRANCH   9  11
ENDBRANCH   6   9
TORSDOF 5
ENDMDL
MODEL       33
REMARK 921   NORMALIZED FREE ENERGY PREDICTED BY IDOCK:   -6.46 KCAL/MOL
REMARK 922        TOTAL FREE ENERGY PREDICTED BY IDOCK:  -10.58 KCAL/MOL
REMARK 923 INTER-LIGAND FREE ENERGY PREDICTED BY IDOCK:   -9.88 KCAL/MOL
REMARK 924 INTRA-LIGAND FREE ENERGY PREDICTED BY IDOCK:   -0.70 KCAL/MOL
REMARK 927      BINDING AFFINITY PREDICTED BY RF-SCORE:    0.00 PKD
ROOT
HETATM    1  C   UNL     1      -5.141  19.568  63.013  1.00  0.00    -0.294 C  
HETATM    2  C   UNL     1      -5.799  19.385  64.350  1.00  0.00    -0.319 A  
HETATM    3  C   UNL     1      -5.540  18.244  65.118  1.00  0.00    -0.166 A  
HETATM    4  C   UNL     1      -6.187  18.025  66.347  1.00  0.00    -0.236 A  
HETATM    5  C   UNL     1      -5.864  16.767  67.108  1.00  0.00    -0.206 C  
HETATM    6  C   UNL     1      -7.118  18.978  66.814  1.00  0.00    -0.216 A  
HETATM    7  C   UNL     1      -7.363  20.133  66.053  1.00  0.00    -0.306 A  
HETATM    8  C   UNL     1      -6.709  20.332  64.830  1.00  0.00    -0.298 A  
ENDROOT
BRANCH   6   9
HETATM    9  C   UNL     1      -7.880  18.733  68.079  1.00  0.00    -0.272 C  
HETATM   10  O   UNL     1      -7.465  19.031  69.188  1.00  0.00    -0.314 OA 
BRANCH   9  11
HETATM   11  O   UNL     1      -9.086  18.164  67.821  1.00  0.00    -0.257 OA 
BRANCH  11  12
HETATM   12  C   UNL     1      -9.324  16.935  68.532  1.00  0.00    -0.259 C  
BRANCH  12  13
HETATM   13  C   UNL     1      -9.636  15.822  67.562  1.00  0.00    -0.224 A  
HETATM   14  C   UNL     1     -10.759  15.891  66.728  1.00  0.00    -0.281 A  
HETATM   15  C   UNL     1     -11.131  14.796  65.944  1.00  0.00    -0.340 A  
HETATM   16  C   UNL     1     -10.386  13.610  65.981  1.00  0.00    -0.305 A  
HETATM   17  C   UNL     1      -9.202  13.585  66.735  1.00  0.00    -0.248 A  
HETATM   18  C   UNL     1     -10.896  12.373  65.246  1.00  0.00    -0.324 C  
HETATM   19  C   UNL     1      -8.842  14.672  67.532  1.00  0.00    -0.191 A  
HETATM   20  C   UNL     1     -10.526  11.065  65.974  1.00  0.00    -0.245 C  
HETATM   21  C   UNL     1     -10.389  12.357  63.786  1.00  0.00    -0.425 C  
HETATM   22  O   UNL     1      -9.819  10.217  65.428  1.00  0.00    -0.255 OA 
HETATM   23  N   UNL     1     -10.940  11.249  62.990  1.00  0.00    -0.836 NA 
HETATM   24  N   UNL     1     -11.025  10.967  67.268  1.00  0.00    -0.284 N  
HETATM   25  H1  UNL     1     -10.605  11.239  62.026  1.00  0.00     0.000 HD 
HETATM   26  H2  UNL     1     -11.959  11.255  63.020  1.00  0.00     0.000 HD 
HETATM   27  H   UNL     1     -11.563  11.758  67.623  1.00  0.00     0.000 HD 
BRANCH  24  28
HETATM   28  C   UNL     1     -10.849   9.860  68.132  1.00  0.00    -0.234 A  
HETATM   29  C   UNL     1     -10.392   8.621  67.682  1.00  0.00    -0.317 A  
HETATM   30  C   UNL     1     -10.192   7.561  68.567  1.00  0.00    -0.216 A  
HETATM   31  C   UNL     1     -10.463   7.717  69.930  1.00  0.00    -0.231 A  
HETATM   32  C   UNL     1     -10.267   6.686  70.852  1.00  0.00    -0.196 A  
HETATM   33  N   UNL     1     -10.531   6.782  72.174  1.00  0.00    -0.204 NA 
HETATM   34  C   UNL     1     -11.014   7.965  72.603  1.00  0.00    -0.378 A  
HETATM   35  C   UNL     1     -11.237   9.059  71.777  1.00  0.00    -0.448 A  
HETATM   36  C   UNL     1     -10.959   8.946  70.407  1.00  0.00    -0.275 A  
HETATM   37  C   UNL     1     -11.151  10.010  69.496  1.00  0.00    -0.279 A  
ENDBRANCH  24  28
ENDBRANCH  12  13
ENDBRANCH  11  12
ENDBRANCH   9  11
ENDBRANCH   6   9
TORSDOF 5
ENDMDL
MODEL       34
REMARK 921   NORMALIZED FREE ENERGY PREDICTED BY IDOCK:   -6.46 KCAL/MOL
REMARK 922        TOTAL FREE ENERGY PREDICTED BY IDOCK:  -10.58 KCAL/MOL
REMARK 923 INTER-LIGAND FREE ENERGY PREDICTED BY IDOCK:   -9.22 KCAL/MOL
REMARK 924 INTRA-LIGAND FREE ENERGY PREDICTED BY IDOCK:   -1.36 KCAL/MOL
REMARK 927      BINDING AFFINITY PREDICTED BY RF-SCORE:    0.00 PKD
ROOT
HETATM    1  C   UNL     1     -10.320   8.050  72.461  1.00  0.00    -0.374 C  
HETATM    2  C   UNL     1      -9.663   7.879  71.122  1.00  0.00    -0.182 A  
HETATM    3  C   UNL     1     -10.397   7.414  70.025  1.00  0.00    -0.224 A  
HETATM    4  C   UNL     1      -9.790   7.195  68.776  1.00  0.00    -0.158 A  
HETATM    5  C   UNL     1     -10.645   6.680  67.649  1.00  0.00    -0.325 C  
HETATM    6  C   UNL     1      -8.410   7.451  68.627  1.00  0.00    -0.129 A  
HETATM    7  C   UNL     1      -7.677   7.937  69.722  1.00  0.00    -0.099 A  
HETATM    8  C   UNL     1      -8.300   8.147  70.959  1.00  0.00    -0.129 A  
ENDROOT
BRANCH   6   9
HETATM    9  C   UNL     1      -7.721   7.151  67.332  1.00  0.00    -0.110 C  
HETATM   10  O   UNL     1      -7.336   6.037  67.012  1.00  0.00    -0.074 OA 
BRANCH   9  11
HETATM   11  O   UNL     1      -7.608   8.268  66.568  1.00  0.00    -0.089 OA 
BRANCH  11  12
HETATM   12  C   UNL     1      -8.206   8.155  65.263  1.00  0.00    -0.149 C  
BRANCH  12  13
HETATM   13  C   UNL     1      -9.029   9.383  64.958  1.00  0.00    -0.258 A  
HETATM   14  C   UNL     1      -8.623  10.291  63.971  1.00  0.00    -0.194 A  
HETATM   15  C   UNL     1      -9.300  11.501  63.797  1.00  0.00    -0.075 A  
HETATM   16  C   UNL     1     -10.397  11.824  64.608  1.00  0.00    -0.336 A  
HETATM   17  C   UNL     1     -10.864  10.864  65.519  1.00  0.00    -0.106 A  
HETATM   18  C   UNL     1     -11.022  13.214  64.514  1.00  0.00    -0.392 C  
HETATM   19  C   UNL     1     -10.176   9.665  65.706  1.00  0.00    -0.172 A  
HETATM   20  C   UNL     1     -11.566  13.704  65.871  1.00  0.00    -0.328 C  
HETATM   21  C   UNL     1     -12.126  13.245  63.432  1.00  0.00    -0.439 C  
HETATM   22  O   UNL     1     -12.761  13.960  66.018  1.00  0.00    -0.463 OA 
HETATM   23  N   UNL     1     -12.689  14.586  63.213  1.00  0.00    -0.536 NA 
HETATM   24  N   UNL     1     -10.607  13.789  66.876  1.00  0.00    -0.275 N  
HETATM   25  H1  UNL     1     -13.417  14.607  62.498  1.00  0.00     0.000 HD 
HETATM   26  H2  UNL     1     -11.952  15.257  62.998  1.00  0.00     0.000 HD 
HETATM   27  H   UNL     1      -9.656  13.507  66.640  1.00  0.00     0.000 HD 
BRANCH  24  28
HETATM   28  C   UNL     1     -10.845  14.234  68.199  1.00  0.00    -0.244 A  
HETATM   29  C   UNL     1     -10.159  15.312  68.762  1.00  0.00    -0.219 A  
HETATM   30  C   UNL     1     -10.444  15.751  70.055  1.00  0.00    -0.313 A  
HETATM   31  C   UNL     1     -11.418  15.105  70.823  1.00  0.00    -0.350 A  
HETATM   32  C   UNL     1     -11.744  15.519  72.117  1.00  0.00    -0.476 A  
HETATM   33  N   UNL     1     -12.663  14.917  72.904  1.00  0.00    -0.405 NA 
HETATM   34  C   UNL     1     -13.294  13.849  72.377  1.00  0.00    -0.529 A  
HETATM   35  C   UNL     1     -13.059  13.359  71.099  1.00  0.00    -0.254 A  
HETATM   36  C   UNL     1     -12.102  13.993  70.292  1.00  0.00    -0.425 A  
HETATM   37  C   UNL     1     -11.802  13.565  68.978  1.00  0.00    -0.385 A  
ENDBRANCH  24  28
ENDBRANCH  12  13
ENDBRANCH  11  12
ENDBRANCH   9  11
ENDBRANCH   6   9
TORSDOF 5
ENDMDL
MODEL       35
REMARK 921   NORMALIZED FREE ENERGY PREDICTED BY IDOCK:   -6.41 KCAL/MOL
REMARK 922        TOTAL FREE ENERGY PREDICTED BY IDOCK:  -10.51 KCAL/MOL
REMARK 923 INTER-LIGAND FREE ENERGY PREDICTED BY IDOCK:   -8.66 KCAL/MOL
REMARK 924 INTRA-LIGAND FREE ENERGY PREDICTED BY IDOCK:   -1.85 KCAL/MOL
REMARK 927      BINDING AFFINITY PREDICTED BY RF-SCORE:    0.00 PKD
ROOT
HETATM    1  C   UNL     1     -11.868   6.563  71.982  1.00  0.00    -0.374 C  
HETATM    2  C   UNL     1     -11.117   5.956  70.833  1.00  0.00    -0.312 A  
HETATM    3  C   UNL     1     -11.285   6.450  69.534  1.00  0.00    -0.477 A  
HETATM    4  C   UNL     1     -10.633   5.861  68.436  1.00  0.00    -0.314 A  
HETATM    5  C   UNL     1     -10.877   6.442  67.068  1.00  0.00    -0.464 C  
HETATM    6  C   UNL     1      -9.792   4.748  68.650  1.00  0.00    -0.208 A  
HETATM    7  C   UNL     1      -9.607   4.265  69.956  1.00  0.00    -0.274 A  
HETATM    8  C   UNL     1     -10.267   4.864  71.037  1.00  0.00    -0.262 A  
ENDROOT
BRANCH   6   9
HETATM    9  C   UNL     1      -9.150   4.052  67.491  1.00  0.00    -0.146 C  
HETATM   10  O   UNL     1      -9.497   2.955  67.083  1.00  0.00    -0.161 OA 
BRANCH   9  11
HETATM   11  O   UNL     1      -8.160   4.811  66.952  1.00  0.00    -0.106 OA 
BRANCH  11  12
HETATM   12  C   UNL     1      -6.971   4.893  67.761  1.00  0.00    -0.061 C  
BRANCH  12  13
HETATM   13  C   UNL     1      -6.838   6.274  68.354  1.00  0.00    -0.071 A  
HETATM   14  C   UNL     1      -6.854   6.463  69.742  1.00  0.00    -0.061 A  
HETATM   15  C   UNL     1      -6.885   7.750  70.284  1.00  0.00    -0.046 A  
HETATM   16  C   UNL     1      -6.902   8.873  69.446  1.00  0.00    -0.049 A  
HETATM   17  C   UNL     1      -6.776   8.680  68.062  1.00  0.00    -0.069 A  
HETATM   18  C   UNL     1      -7.100  10.263  70.048  1.00  0.00    -0.161 C  
HETATM   19  C   UNL     1      -6.764   7.394  67.521  1.00  0.00    -0.069 A  
HETATM   20  C   UNL     1      -7.884  11.201  69.109  1.00  0.00    -0.063 C  
HETATM   21  C   UNL     1      -5.742  10.885  70.445  1.00  0.00    -0.117 C  
HETATM   22  O   UNL     1      -7.376  12.241  68.687  1.00  0.00    -0.105 OA 
HETATM   23  N   UNL     1      -5.873  12.176  71.137  1.00  0.00    -0.505 NA 
HETATM   24  N   UNL     1      -9.157  10.749  68.778  1.00  0.00    -0.173 N  
HETATM   25  H1  UNL     1      -4.977  12.587  71.400  1.00  0.00     0.000 HD 
HETATM   26  H2  UNL     1      -6.484  12.091  71.949  1.00  0.00     0.000 HD 
HETATM   27  H   UNL     1      -9.447   9.848  69.158  1.00  0.00     0.000 HD 
BRANCH  24  28
HETATM   28  C   UNL     1     -10.082  11.436  67.956  1.00  0.00    -0.180 A  
HETATM   29  C   UNL     1     -10.999  12.358  68.466  1.00  0.00    -0.277 A  
HETATM   30  C   UNL     1     -11.872  13.047  67.624  1.00  0.00    -0.401 A  
HETATM   31  C   UNL     1     -11.855  12.816  66.245  1.00  0.00    -0.485 A  
HETATM   32  C   UNL     1     -12.703  13.493  65.365  1.00  0.00    -0.442 A  
HETATM   33  N   UNL     1     -12.737  13.291  64.029  1.00  0.00    -0.667 NA 
HETATM   34  C   UNL     1     -11.883  12.370  63.541  1.00  0.00    -0.521 A  
HETATM   35  C   UNL     1     -10.990  11.647  64.322  1.00  0.00    -0.418 A  
HETATM   36  C   UNL     1     -10.964  11.867  65.707  1.00  0.00    -0.359 A  
HETATM   37  C   UNL     1     -10.084  11.180  66.575  1.00  0.00    -0.265 A  
ENDBRANCH  24  28
ENDBRANCH  12  13
ENDBRANCH  11  12
ENDBRANCH   9  11
ENDBRANCH   6   9
TORSDOF 5
ENDMDL
MODEL       36
REMARK 921   NORMALIZED FREE ENERGY PREDICTED BY IDOCK:   -6.39 KCAL/MOL
REMARK 922        TOTAL FREE ENERGY PREDICTED BY IDOCK:  -10.48 KCAL/MOL
REMARK 923 INTER-LIGAND FREE ENERGY PREDICTED BY IDOCK:   -8.94 KCAL/MOL
REMARK 924 INTRA-LIGAND FREE ENERGY PREDICTED BY IDOCK:   -1.54 KCAL/MOL
REMARK 927      BINDING AFFINITY PREDICTED BY RF-SCORE:    0.00 PKD
ROOT
HETATM    1  C   UNL     1     -13.421  11.946  72.203  1.00  0.00    -0.300 C  
HETATM    2  C   UNL     1     -12.987  10.602  71.695  1.00  0.00    -0.582 A  
HETATM    3  C   UNL     1     -13.700   9.449  72.040  1.00  0.00    -0.466 A  
HETATM    4  C   UNL     1     -13.280   8.174  71.621  1.00  0.00    -0.357 A  
HETATM    5  C   UNL     1     -14.094   6.980  72.045  1.00  0.00    -0.251 C  
HETATM    6  C   UNL     1     -12.112   8.057  70.836  1.00  0.00    -0.164 A  
HETATM    7  C   UNL     1     -11.407   9.217  70.473  1.00  0.00    -0.300 A  
HETATM    8  C   UNL     1     -11.841  10.478  70.902  1.00  0.00    -0.455 A  
ENDROOT
BRANCH   6   9
HETATM    9  C   UNL     1     -11.597   6.708  70.444  1.00  0.00    -0.398 C  
HETATM   10  O   UNL     1     -11.744   6.225  69.332  1.00  0.00    -0.319 OA 
BRANCH   9  11
HETATM   11  O   UNL     1     -10.936   6.118  71.473  1.00  0.00    -0.254 OA 
BRANCH  11  12
HETATM   12  C   UNL     1      -9.563   5.795  71.187  1.00  0.00    -0.167 C  
BRANCH  12  13
HETATM   13  C   UNL     1      -8.806   7.037  70.786  1.00  0.00    -0.149 A  
HETATM   14  C   UNL     1      -8.507   8.030  71.728  1.00  0.00    -0.164 A  
HETATM   15  C   UNL     1      -7.945   9.244  71.327  1.00  0.00     0.040 A  
HETATM   16  C   UNL     1      -7.672   9.488  69.974  1.00  0.00    -0.146 A  
HETATM   17  C   UNL     1      -7.872   8.450  69.051  1.00  0.00    -0.102 A  
HETATM   18  C   UNL     1      -7.211  10.875  69.533  1.00  0.00    -0.113 C  
HETATM   19  C   UNL     1      -8.452   7.245  69.450  1.00  0.00    -0.133 A  
HETATM   20  C   UNL     1      -7.721  11.243  68.126  1.00  0.00    -0.112 C  
HETATM   21  C   UNL     1      -5.671  10.990  69.611  1.00  0.00    -0.052 C  
HETATM   22  O   UNL     1      -6.933  11.475  67.209  1.00  0.00    -0.104 OA 
HETATM   23  N   UNL     1      -5.171  12.340  69.310  1.00  0.00    -0.067 NA 
HETATM   24  N   UNL     1      -9.107  11.249  68.001  1.00  0.00    -0.150 N  
HETATM   25  H1  UNL     1      -4.155  12.416  69.362  1.00  0.00     0.000 HD 
HETATM   26  H2  UNL     1      -5.618  13.033  69.910  1.00  0.00     0.000 HD 
HETATM   27  H   UNL     1      -9.652  10.996  68.826  1.00  0.00     0.000 HD 
BRANCH  24  28
HETATM   28  C   UNL     1      -9.822  11.577  66.825  1.00  0.00    -0.203 A  
HETATM   29  C   UNL     1     -10.030  10.661  65.792  1.00  0.00    -0.315 A  
HETATM   30  C   UNL     1     -10.773  11.005  64.663  1.00  0.00    -0.318 A  
HETATM   31  C   UNL     1     -11.315  12.288  64.536  1.00  0.00    -0.385 A  
HETATM   32  C   UNL     1     -12.074  12.671  63.428  1.00  0.00    -0.525 A  
HETATM   33  N   UNL     1     -12.603  13.902  63.251  1.00  0.00    -0.697 NA 
HETATM   34  C   UNL     1     -12.365  14.801  64.227  1.00  0.00    -0.320 A  
HETATM   35  C   UNL     1     -11.634  14.526  65.376  1.00  0.00    -0.355 A  
HETATM   36  C   UNL     1     -11.091  13.244  65.547  1.00  0.00    -0.299 A  
HETATM   37  C   UNL     1     -10.339  12.876  66.686  1.00  0.00    -0.258 A  
ENDBRANCH  24  28
ENDBRANCH  12  13
ENDBRANCH  11  12
ENDBRANCH   9  11
ENDBRANCH   6   9
TORSDOF 5
ENDMDL
MODEL       37
REMARK 921   NORMALIZED FREE ENERGY PREDICTED BY IDOCK:   -6.38 KCAL/MOL
REMARK 922        TOTAL FREE ENERGY PREDICTED BY IDOCK:  -10.47 KCAL/MOL
REMARK 923 INTER-LIGAND FREE ENERGY PREDICTED BY IDOCK:   -9.32 KCAL/MOL
REMARK 924 INTRA-LIGAND FREE ENERGY PREDICTED BY IDOCK:   -1.15 KCAL/MOL
REMARK 927      BINDING AFFINITY PREDICTED BY RF-SCORE:    0.00 PKD
ROOT
HETATM    1  C   UNL     1      -5.468  18.911  64.993  1.00  0.00    -0.242 C  
HETATM    2  C   UNL     1      -6.712  18.566  65.758  1.00  0.00    -0.316 A  
HETATM    3  C   UNL     1      -7.739  19.506  65.904  1.00  0.00    -0.288 A  
HETATM    4  C   UNL     1      -8.889  19.224  66.663  1.00  0.00    -0.359 A  
HETATM    5  C   UNL     1      -9.943  20.292  66.784  1.00  0.00    -0.587 C  
HETATM    6  C   UNL     1      -9.008  17.965  67.290  1.00  0.00    -0.250 A  
HETATM    7  C   UNL     1      -7.987  17.014  67.127  1.00  0.00    -0.214 A  
HETATM    8  C   UNL     1      -6.848  17.315  66.368  1.00  0.00    -0.300 A  
ENDROOT
BRANCH   6   9
HETATM    9  C   UNL     1     -10.183  17.666  68.169  1.00  0.00    -0.371 C  
HETATM   10  O   UNL     1     -10.297  18.084  69.310  1.00  0.00    -0.265 OA 
BRANCH   9  11
HETATM   11  O   UNL     1     -11.096  16.898  67.521  1.00  0.00    -0.182 OA 
BRANCH  11  12
HETATM   12  C   UNL     1     -11.320  15.610  68.123  1.00  0.00    -0.340 C  
BRANCH  12  13
HETATM   13  C   UNL     1     -11.062  14.512  67.121  1.00  0.00    -0.325 A  
HETATM   14  C   UNL     1     -12.029  14.168  66.168  1.00  0.00    -0.437 A  
HETATM   15  C   UNL     1     -11.852  13.054  65.344  1.00  0.00    -0.428 A  
HETATM   16  C   UNL     1     -10.701  12.262  65.460  1.00  0.00    -0.314 A  
HETATM   17  C   UNL     1      -9.687  12.675  66.339  1.00  0.00    -0.259 A  
HETATM   18  C   UNL     1     -10.597  10.961  64.668  1.00  0.00    -0.332 C  
HETATM   19  C   UNL     1      -9.875  13.776  67.175  1.00  0.00    -0.242 A  
HETATM   20  C   UNL     1      -9.808   9.875  65.428  1.00  0.00    -0.313 C  
HETATM   21  C   UNL     1      -9.982  11.217  63.273  1.00  0.00    -0.379 C  
HETATM   22  O   UNL     1      -8.770   9.405  64.960  1.00  0.00    -0.163 OA 
HETATM   23  N   UNL     1      -9.961  10.020  62.417  1.00  0.00    -0.654 NA 
HETATM   24  N   UNL     1     -10.353   9.526  66.659  1.00  0.00    -0.233 N  
HETATM   25  H1  UNL     1      -9.556  10.189  61.496  1.00  0.00     0.000 HD 
HETATM   26  H2  UNL     1     -10.895   9.619  62.334  1.00  0.00     0.000 HD 
HETATM   27  H   UNL     1     -11.195  10.019  66.955  1.00  0.00     0.000 HD 
BRANCH  24  28
HETATM   28  C   UNL     1      -9.835   8.541  67.533  1.00  0.00    -0.177 A  
HETATM   29  C   UNL     1      -9.002   8.854  68.609  1.00  0.00    -0.137 A  
HETATM   30  C   UNL     1      -8.541   7.864  69.476  1.00  0.00    -0.137 A  
HETATM   31  C   UNL     1      -8.893   6.526  69.274  1.00  0.00    -0.132 A  
HETATM   32  C   UNL     1      -8.463   5.504  70.123  1.00  0.00    -0.117 A  
HETATM   33  N   UNL     1      -8.762   4.196  69.959  1.00  0.00    -0.068 NA 
HETATM   34  C   UNL     1      -9.530   3.887  68.896  1.00  0.00    -0.163 A  
HETATM   35  C   UNL     1     -10.022   4.821  67.994  1.00  0.00    -0.154 A  
HETATM   36  C   UNL     1      -9.704   6.176  68.176  1.00  0.00    -0.125 A  
HETATM   37  C   UNL     1     -10.166   7.194  67.310  1.00  0.00    -0.315 A  
ENDBRANCH  24  28
ENDBRANCH  12  13
ENDBRANCH  11  12
ENDBRANCH   9  11
ENDBRANCH   6   9
TORSDOF 5
ENDMDL
MODEL       38
REMARK 921   NORMALIZED FREE ENERGY PREDICTED BY IDOCK:   -6.34 KCAL/MOL
REMARK 922        TOTAL FREE ENERGY PREDICTED BY IDOCK:  -10.41 KCAL/MOL
REMARK 923 INTER-LIGAND FREE ENERGY PREDICTED BY IDOCK:   -9.30 KCAL/MOL
REMARK 924 INTRA-LIGAND FREE ENERGY PREDICTED BY IDOCK:   -1.12 KCAL/MOL
REMARK 927      BINDING AFFINITY PREDICTED BY RF-SCORE:    0.00 PKD
ROOT
HETATM    1  C   UNL     1     -10.748  15.350  70.246  1.00  0.00    -0.320 C  
HETATM    2  C   UNL     1     -11.095  14.984  68.833  1.00  0.00    -0.274 A  
HETATM    3  C   UNL     1     -10.633  15.761  67.764  1.00  0.00    -0.292 A  
HETATM    4  C   UNL     1     -10.991  15.469  66.436  1.00  0.00    -0.238 A  
HETATM    5  C   UNL     1     -10.464  16.361  65.344  1.00  0.00    -0.333 C  
HETATM    6  C   UNL     1     -11.834  14.367  66.177  1.00  0.00    -0.391 A  
HETATM    7  C   UNL     1     -12.282  13.575  67.247  1.00  0.00    -0.305 A  
HETATM    8  C   UNL     1     -11.915  13.883  68.564  1.00  0.00    -0.394 A  
ENDROOT
BRANCH   6   9
HETATM    9  C   UNL     1     -12.296  14.080  64.782  1.00  0.00    -0.413 C  
HETATM   10  O   UNL     1     -12.765  14.926  64.037  1.00  0.00    -0.792 OA 
BRANCH   9  11
HETATM   11  O   UNL     1     -12.101  12.775  64.461  1.00  0.00    -0.368 OA 
BRANCH  11  12
HETATM   12  C   UNL     1     -11.150  12.562  63.401  1.00  0.00    -0.361 C  
BRANCH  12  13
HETATM   13  C   UNL     1     -10.146  11.510  63.804  1.00  0.00    -0.407 A  
HETATM   14  C   UNL     1      -9.731  10.528  62.896  1.00  0.00    -0.304 A  
HETATM   15  C   UNL     1      -8.923   9.469  63.314  1.00  0.00    -0.208 A  
HETATM   16  C   UNL     1      -8.514   9.372  64.651  1.00  0.00    -0.179 A  
HETATM   17  C   UNL     1      -8.841  10.416  65.530  1.00  0.00    -0.193 A  
HETATM   18  C   UNL     1      -7.768   8.127  65.126  1.00  0.00    -0.107 C  
HETATM   19  C   UNL     1      -9.665  11.463  65.117  1.00  0.00    -0.280 A  
HETATM   20  C   UNL     1      -8.099   7.768  66.588  1.00  0.00    -0.111 C  
HETATM   21  C   UNL     1      -6.244   8.294  64.928  1.00  0.00    -0.052 C  
HETATM   22  O   UNL     1      -7.219   7.748  67.448  1.00  0.00    -0.086 OA 
HETATM   23  N   UNL     1      -5.478   7.082  65.259  1.00  0.00    -0.027 NA 
HETATM   24  N   UNL     1      -9.446   7.515  66.826  1.00  0.00    -0.169 N  
HETATM   25  H1  UNL     1      -4.472   7.192  65.128  1.00  0.00     0.000 HD 
HETATM   26  H2  UNL     1      -5.826   6.280  64.735  1.00  0.00     0.000 HD 
HETATM   27  H   UNL     1     -10.086   7.606  66.037  1.00  0.00     0.000 HD 
BRANCH  24  28
HETATM   28  C   UNL     1     -10.001   7.141  68.073  1.00  0.00    -0.158 A  
HETATM   29  C   UNL     1     -10.220   5.808  68.428  1.00  0.00    -0.242 A  
HETATM   30  C   UNL     1     -10.733   5.471  69.681  1.00  0.00    -0.349 A  
HETATM   31  C   UNL     1     -11.055   6.469  70.606  1.00  0.00    -0.364 A  
HETATM   32  C   UNL     1     -11.560   6.176  71.875  1.00  0.00    -0.296 A  
HETATM   33  N   UNL     1     -11.902   7.105  72.795  1.00  0.00    -0.068 NA 
HETATM   34  C   UNL     1     -11.733   8.393  72.436  1.00  0.00    -0.382 A  
HETATM   35  C   UNL     1     -11.229   8.798  71.207  1.00  0.00    -0.352 A  
HETATM   36  C   UNL     1     -10.877   7.824  70.261  1.00  0.00    -0.252 A  
HETATM   37  C   UNL     1     -10.352   8.146  68.989  1.00  0.00    -0.229 A  
ENDBRANCH  24  28
ENDBRANCH  12  13
ENDBRANCH  11  12
ENDBRANCH   9  11
ENDBRANCH   6   9
TORSDOF 5
ENDMDL
MODEL       39
REMARK 921   NORMALIZED FREE ENERGY PREDICTED BY IDOCK:   -6.27 KCAL/MOL
REMARK 922        TOTAL FREE ENERGY PREDICTED BY IDOCK:  -10.33 KCAL/MOL
REMARK 923 INTER-LIGAND FREE ENERGY PREDICTED BY IDOCK:   -9.21 KCAL/MOL
REMARK 924 INTRA-LIGAND FREE ENERGY PREDICTED BY IDOCK:   -1.12 KCAL/MOL
REMARK 927      BINDING AFFINITY PREDICTED BY RF-SCORE:    0.00 PKD
ROOT
HETATM    1  C   UNL     1     -11.125  20.328  65.219  1.00  0.00     0.426 C  
HETATM    2  C   UNL     1     -10.108  19.760  66.165  1.00  0.00    -0.600 A  
HETATM    3  C   UNL     1     -10.511  18.985  67.258  1.00  0.00    -0.533 A  
HETATM    4  C   UNL     1      -9.580  18.488  68.188  1.00  0.00    -0.353 A  
HETATM    5  C   UNL     1     -10.094  17.673  69.345  1.00  0.00    -0.033 C  
HETATM    6  C   UNL     1      -8.210  18.779  68.013  1.00  0.00    -0.317 A  
HETATM    7  C   UNL     1      -7.803  19.541  66.905  1.00  0.00    -0.289 A  
HETATM    8  C   UNL     1      -8.746  20.027  65.990  1.00  0.00    -0.246 A  
ENDROOT
BRANCH   6   9
HETATM    9  C   UNL     1      -7.206  18.332  69.029  1.00  0.00    -0.223 C  
HETATM   10  O   UNL     1      -6.562  19.099  69.727  1.00  0.00    -0.251 OA 
BRANCH   9  11
HETATM   11  O   UNL     1      -7.132  16.977  69.081  1.00  0.00    -0.236 OA 
BRANCH  11  12
HETATM   12  C   UNL     1      -6.501  16.374  67.936  1.00  0.00    -0.135 C  
BRANCH  12  13
HETATM   13  C   UNL     1      -7.447  15.411  67.263  1.00  0.00    -0.242 A  
HETATM   14  C   UNL     1      -8.489  15.878  66.451  1.00  0.00    -0.348 A  
HETATM   15  C   UNL     1      -9.453  14.997  65.956  1.00  0.00    -0.337 A  
HETATM   16  C   UNL     1      -9.394  13.631  66.265  1.00  0.00    -0.153 A  
HETATM   17  C   UNL     1      -8.289  13.154  66.988  1.00  0.00    -0.094 A  
HETATM   18  C   UNL     1     -10.541  12.712  65.853  1.00  0.00    -0.297 C  
HETATM   19  C   UNL     1      -7.337  14.037  67.498  1.00  0.00    -0.187 A  
HETATM   20  C   UNL     1     -10.773  11.574  66.867  1.00  0.00    -0.263 C  
HETATM   21  C   UNL     1     -10.307  12.149  64.432  1.00  0.00    -0.319 C  
HETATM   22  O   UNL     1     -10.658  10.395  66.530  1.00  0.00    -0.218 OA 
HETATM   23  N   UNL     1     -11.434  11.347  63.930  1.00  0.00    -0.452 NA 
HETATM   24  N   UNL     1     -11.079  12.005  68.153  1.00  0.00    -0.227 N  
HETATM   25  H1  UNL     1     -11.279  10.976  62.993  1.00  0.00     0.000 HD 
HETATM   26  H2  UNL     1     -12.303  11.879  63.971  1.00  0.00     0.000 HD 
HETATM   27  H   UNL     1     -11.103  13.012  68.316  1.00  0.00     0.000 HD 
BRANCH  24  28
HETATM   28  C   UNL     1     -11.360  11.162  69.255  1.00  0.00    -0.281 A  
HETATM   29  C   UNL     1     -12.638  11.047  69.806  1.00  0.00    -0.151 A  
HETATM   30  C   UNL     1     -12.890  10.177  70.866  1.00  0.00    -0.442 A  
HETATM   31  C   UNL     1     -11.857   9.408  71.412  1.00  0.00    -0.447 A  
HETATM   32  C   UNL     1     -12.067   8.517  72.466  1.00  0.00    -0.326 A  
HETATM   33  N   UNL     1     -11.099   7.767  73.039  1.00  0.00    -0.407 NA 
HETATM   34  C   UNL     1      -9.856   7.910  72.536  1.00  0.00    -0.236 A  
HETATM   35  C   UNL     1      -9.536   8.757  71.484  1.00  0.00    -0.354 A  
HETATM   36  C   UNL     1     -10.551   9.529  70.898  1.00  0.00    -0.395 A  
HETATM   37  C   UNL     1     -10.315  10.413  69.820  1.00  0.00    -0.252 A  
ENDBRANCH  24  28
ENDBRANCH  12  13
ENDBRANCH  11  12
ENDBRANCH   9  11
ENDBRANCH   6   9
TORSDOF 5
ENDMDL
MODEL       40
REMARK 921   NORMALIZED FREE ENERGY PREDICTED BY IDOCK:   -6.23 KCAL/MOL
REMARK 922        TOTAL FREE ENERGY PREDICTED BY IDOCK:  -10.27 KCAL/MOL
REMARK 923 INTER-LIGAND FREE ENERGY PREDICTED BY IDOCK:   -9.58 KCAL/MOL
REMARK 924 INTRA-LIGAND FREE ENERGY PREDICTED BY IDOCK:   -0.69 KCAL/MOL
REMARK 927      BINDING AFFINITY PREDICTED BY RF-SCORE:    0.00 PKD
ROOT
HETATM    1  C   UNL     1      -6.929  19.732  69.400  1.00  0.00    -0.336 C  
HETATM    2  C   UNL     1      -7.789  18.890  68.503  1.00  0.00    -0.373 A  
HETATM    3  C   UNL     1      -8.777  19.482  67.708  1.00  0.00    -0.364 A  
HETATM    4  C   UNL     1      -9.631  18.708  66.901  1.00  0.00    -0.324 A  
HETATM    5  C   UNL     1     -10.678  19.418  66.085  1.00  0.00    -0.506 C  
HETATM    6  C   UNL     1      -9.486  17.304  66.896  1.00  0.00    -0.264 A  
HETATM    7  C   UNL     1      -8.481  16.711  67.678  1.00  0.00    -0.200 A  
HETATM    8  C   UNL     1      -7.642  17.500  68.476  1.00  0.00    -0.266 A  
ENDROOT
BRANCH   6   9
HETATM    9  C   UNL     1     -10.431  16.450  66.110  1.00  0.00    -0.314 C  
HETATM   10  O   UNL     1     -10.558  16.519  64.897  1.00  0.00    -0.689 OA 
BRANCH   9  11
HETATM   11  O   UNL     1     -11.099  15.587  66.919  1.00  0.00    -0.306 OA 
BRANCH  11  12
HETATM   12  C   UNL     1     -11.032  14.211  66.500  1.00  0.00    -0.309 C  
BRANCH  12  13
HETATM   13  C   UNL     1     -11.453  13.301  67.627  1.00  0.00    -0.360 A  
HETATM   14  C   UNL     1     -11.830  13.825  68.870  1.00  0.00    -0.396 A  
HETATM   15  C   UNL     1     -12.069  12.979  69.956  1.00  0.00    -0.367 A  
HETATM   16  C   UNL     1     -11.935  11.591  69.817  1.00  0.00    -0.415 A  
HETATM   17  C   UNL     1     -11.665  11.066  68.544  1.00  0.00    -0.348 A  
HETATM   18  C   UNL     1     -12.042  10.694  71.048  1.00  0.00    -0.473 C  
HETATM   19  C   UNL     1     -11.406  11.913  67.465  1.00  0.00    -0.381 A  
HETATM   20  C   UNL     1     -11.128   9.456  70.952  1.00  0.00    -0.319 C  
HETATM   21  C   UNL     1     -13.510  10.280  71.299  1.00  0.00    -0.188 C  
HETATM   22  O   UNL     1     -11.601   8.319  70.969  1.00  0.00    -0.274 OA 
HETATM   23  N   UNL     1     -13.695   9.510  72.538  1.00  0.00    -0.696 NA 
HETATM   24  N   UNL     1      -9.776   9.750  70.815  1.00  0.00    -0.320 N  
HETATM   25  H1  UNL     1     -14.664   9.237  72.703  1.00  0.00     0.000 HD 
HETATM   26  H2  UNL     1     -13.320  10.018  73.339  1.00  0.00     0.000 HD 
HETATM   27  H   UNL     1      -9.513  10.735  70.771  1.00  0.00     0.000 HD 
BRANCH  24  28
HETATM   28  C   UNL     1      -8.734   8.796  70.733  1.00  0.00    -0.189 A  
HETATM   29  C   UNL     1      -8.073   8.506  69.538  1.00  0.00    -0.111 A  
HETATM   30  C   UNL     1      -7.023   7.588  69.499  1.00  0.00    -0.060 A  
HETATM   31  C   UNL     1      -6.621   6.923  70.661  1.00  0.00    -0.052 A  
HETATM   32  C   UNL     1      -5.569   6.005  70.669  1.00  0.00    -0.014 A  
HETATM   33  N   UNL     1      -5.155   5.324  71.761  1.00  0.00    -0.005 NA 
HETATM   34  C   UNL     1      -5.822   5.570  72.907  1.00  0.00    -0.024 A  
HETATM   35  C   UNL     1      -6.875   6.469  73.016  1.00  0.00    -0.073 A  
HETATM   36  C   UNL     1      -7.293   7.169  71.874  1.00  0.00    -0.081 A  
HETATM   37  C   UNL     1      -8.352   8.107  71.896  1.00  0.00    -0.187 A  
ENDBRANCH  24  28
ENDBRANCH  12  13
ENDBRANCH  11  12
ENDBRANCH   9  11
ENDBRANCH   6   9
TORSDOF 5
ENDMDL
MODEL       41
REMARK 921   NORMALIZED FREE ENERGY PREDICTED BY IDOCK:   -6.21 KCAL/MOL
REMARK 922        TOTAL FREE ENERGY PREDICTED BY IDOCK:  -10.25 KCAL/MOL
REMARK 923 INTER-LIGAND FREE ENERGY PREDICTED BY IDOCK:   -8.22 KCAL/MOL
REMARK 924 INTRA-LIGAND FREE ENERGY PREDICTED BY IDOCK:   -2.03 KCAL/MOL
REMARK 927      BINDING AFFINITY PREDICTED BY RF-SCORE:    0.00 PKD
ROOT
HETATM    1  C   UNL     1     -12.530  13.798  65.463  1.00  0.00    -0.548 C  
HETATM    2  C   UNL     1     -11.565  12.768  64.950  1.00  0.00    -0.369 A  
HETATM    3  C   UNL     1     -11.293  11.617  65.697  1.00  0.00    -0.233 A  
HETATM    4  C   UNL     1     -10.352  10.665  65.263  1.00  0.00    -0.321 A  
HETATM    5  C   UNL     1     -10.105   9.460  66.130  1.00  0.00    -0.324 C  
HETATM    6  C   UNL     1      -9.669  10.879  64.046  1.00  0.00    -0.351 A  
HETATM    7  C   UNL     1      -9.957  12.025  63.286  1.00  0.00    -0.339 A  
HETATM    8  C   UNL     1     -10.897  12.961  63.737  1.00  0.00    -0.351 A  
ENDROOT
BRANCH   6   9
HETATM    9  C   UNL     1      -8.606   9.925  63.599  1.00  0.00    -0.200 C  
HETATM   10  O   UNL     1      -8.820   8.964  62.878  1.00  0.00    -0.149 OA 
BRANCH   9  11
HETATM   11  O   UNL     1      -7.390  10.287  64.081  1.00  0.00    -0.133 OA 
BRANCH  11  12
HETATM   12  C   UNL     1      -6.483   9.188  64.286  1.00  0.00    -0.083 C  
BRANCH  12  13
HETATM   13  C   UNL     1      -6.820   8.464  65.566  1.00  0.00    -0.070 A  
HETATM   14  C   UNL     1      -7.232   7.125  65.546  1.00  0.00    -0.070 A  
HETATM   15  C   UNL     1      -7.690   6.505  66.710  1.00  0.00    -0.099 A  
HETATM   16  C   UNL     1      -7.745   7.213  67.918  1.00  0.00    -0.113 A  
HETATM   17  C   UNL     1      -7.229   8.518  67.955  1.00  0.00    -0.088 A  
HETATM   18  C   UNL     1      -8.397   6.574  69.142  1.00  0.00    -0.119 C  
HETATM   19  C   UNL     1      -6.790   9.143  66.787  1.00  0.00    -0.080 A  
HETATM   20  C   UNL     1      -9.105   7.610  70.037  1.00  0.00    -0.151 C  
HETATM   21  C   UNL     1      -7.362   5.759  69.950  1.00  0.00    -0.070 C  
HETATM   22  O   UNL     1      -8.754   7.781  71.204  1.00  0.00    -0.131 OA 
HETATM   23  N   UNL     1      -7.952   5.023  71.079  1.00  0.00    -0.091 NA 
HETATM   24  N   UNL     1     -10.116   8.323  69.400  1.00  0.00    -0.193 N  
HETATM   25  H1  UNL     1      -7.269   4.485  71.612  1.00  0.00     0.000 HD 
HETATM   26  H2  UNL     1      -8.715   4.425  70.761  1.00  0.00     0.000 HD 
HETATM   27  H   UNL     1     -10.283   8.119  68.415  1.00  0.00     0.000 HD 
BRANCH  24  28
HETATM   28  C   UNL     1     -10.931   9.308  70.007  1.00  0.00    -0.229 A  
HETATM   29  C   UNL     1     -11.727   9.042  71.123  1.00  0.00    -0.366 A  
HETATM   30  C   UNL     1     -12.488  10.045  71.721  1.00  0.00    -0.475 A  
HETATM   31  C   UNL     1     -12.482  11.344  71.202  1.00  0.00    -0.465 A  
HETATM   32  C   UNL     1     -13.220  12.381  71.776  1.00  0.00    -0.334 A  
HETATM   33  N   UNL     1     -13.260  13.645  71.301  1.00  0.00    -0.277 NA 
HETATM   34  C   UNL     1     -12.527  13.893  70.197  1.00  0.00    -0.292 A  
HETATM   35  C   UNL     1     -11.748  12.942  69.552  1.00  0.00    -0.387 A  
HETATM   36  C   UNL     1     -11.715  11.633  70.056  1.00  0.00    -0.402 A  
HETATM   37  C   UNL     1     -10.945  10.604  69.465  1.00  0.00    -0.321 A  
ENDBRANCH  24  28
ENDBRANCH  12  13
ENDBRANCH  11  12
ENDBRANCH   9  11
ENDBRANCH   6   9
TORSDOF 5
ENDMDL
MODEL       42
REMARK 921   NORMALIZED FREE ENERGY PREDICTED BY IDOCK:   -6.19 KCAL/MOL
REMARK 922        TOTAL FREE ENERGY PREDICTED BY IDOCK:  -10.22 KCAL/MOL
REMARK 923 INTER-LIGAND FREE ENERGY PREDICTED BY IDOCK:   -8.98 KCAL/MOL
REMARK 924 INTRA-LIGAND FREE ENERGY PREDICTED BY IDOCK:   -1.24 KCAL/MOL
REMARK 927      BINDING AFFINITY PREDICTED BY RF-SCORE:    0.00 PKD
ROOT
HETATM    1  C   UNL     1      -5.721  12.834  68.433  1.00  0.00    -0.062 C  
HETATM    2  C   UNL     1      -6.960  13.283  67.714  1.00  0.00    -0.154 A  
HETATM    3  C   UNL     1      -7.193  14.644  67.484  1.00  0.00    -0.216 A  
HETATM    4  C   UNL     1      -8.372  15.091  66.862  1.00  0.00    -0.247 A  
HETATM    5  C   UNL     1      -8.554  16.573  66.663  1.00  0.00    -0.289 C  
HETATM    6  C   UNL     1      -9.340  14.146  66.462  1.00  0.00    -0.285 A  
HETATM    7  C   UNL     1      -9.098  12.779  66.674  1.00  0.00    -0.188 A  
HETATM    8  C   UNL     1      -7.917  12.353  67.297  1.00  0.00    -0.178 A  
ENDROOT
BRANCH   6   9
HETATM    9  C   UNL     1     -10.639  14.598  65.871  1.00  0.00    -0.311 C  
HETATM   10  O   UNL     1     -10.724  15.244  64.838  1.00  0.00    -0.419 OA 
BRANCH   9  11
HETATM   11  O   UNL     1     -11.690  14.177  66.619  1.00  0.00    -0.365 OA 
BRANCH  11  12
HETATM   12  C   UNL     1     -11.674  14.647  67.980  1.00  0.00    -0.342 C  
BRANCH  12  13
HETATM   13  C   UNL     1     -12.029  13.525  68.925  1.00  0.00    -0.378 A  
HETATM   14  C   UNL     1     -12.360  13.789  70.260  1.00  0.00    -0.407 A  
HETATM   15  C   UNL     1     -12.536  12.744  71.169  1.00  0.00    -0.365 A  
HETATM   16  C   UNL     1     -12.384  11.412  70.758  1.00  0.00    -0.483 A  
HETATM   17  C   UNL     1     -12.160  11.151  69.397  1.00  0.00    -0.396 A  
HETATM   18  C   UNL     1     -12.420  10.292  71.795  1.00  0.00    -0.431 C  
HETATM   19  C   UNL     1     -11.965  12.197  68.494  1.00  0.00    -0.273 A  
HETATM   20  C   UNL     1     -11.490   9.120  71.423  1.00  0.00    -0.350 C  
HETATM   21  C   UNL     1     -13.869   9.800  72.018  1.00  0.00    -0.176 C  
HETATM   22  O   UNL     1     -11.942   7.990  71.238  1.00  0.00    -0.292 OA 
HETATM   23  N   UNL     1     -13.985   8.800  73.090  1.00  0.00    -1.162 NA 
HETATM   24  N   UNL     1     -10.150   9.470  71.293  1.00  0.00    -0.244 N  
HETATM   25  H1  UNL     1     -14.941   8.475  73.238  1.00  0.00     0.000 HD 
HETATM   26  H2  UNL     1     -13.584   9.152  73.959  1.00  0.00     0.000 HD 
HETATM   27  H   UNL     1      -9.907  10.451  71.430  1.00  0.00     0.000 HD 
BRANCH  24  28
HETATM   28  C   UNL     1      -9.096   8.577  70.985  1.00  0.00    -0.179 A  
HETATM   29  C   UNL     1      -8.234   8.069  71.959  1.00  0.00    -0.174 A  
HETATM   30  C   UNL     1      -7.229   7.159  71.628  1.00  0.00    -0.073 A  
HETATM   31  C   UNL     1      -7.056   6.747  70.303  1.00  0.00    -0.071 A  
HETATM   32  C   UNL     1      -6.070   5.830  69.930  1.00  0.00    -0.026 A  
HETATM   33  N   UNL     1      -5.852   5.416  68.662  1.00  0.00    -0.015 NA 
HETATM   34  C   UNL     1      -6.655   5.940  67.715  1.00  0.00    -0.056 A  
HETATM   35  C   UNL     1      -7.673   6.849  67.974  1.00  0.00    -0.113 A  
HETATM   36  C   UNL     1      -7.889   7.270  69.294  1.00  0.00    -0.116 A  
HETATM   37  C   UNL     1      -8.905   8.188  69.649  1.00  0.00    -0.143 A  
ENDBRANCH  24  28
ENDBRANCH  12  13
ENDBRANCH  11  12
ENDBRANCH   9  11
ENDBRANCH   6   9
TORSDOF 5
ENDMDL
MODEL       43
REMARK 921   NORMALIZED FREE ENERGY PREDICTED BY IDOCK:   -6.17 KCAL/MOL
REMARK 922        TOTAL FREE ENERGY PREDICTED BY IDOCK:  -10.21 KCAL/MOL
REMARK 923 INTER-LIGAND FREE ENERGY PREDICTED BY IDOCK:   -9.50 KCAL/MOL
REMARK 924 INTRA-LIGAND FREE ENERGY PREDICTED BY IDOCK:   -0.71 KCAL/MOL
REMARK 927      BINDING AFFINITY PREDICTED BY RF-SCORE:    0.00 PKD
ROOT
HETATM    1  C   UNL     1      -5.844   1.606  65.984  1.00  0.00    -0.018 C  
HETATM    2  C   UNL     1      -6.822   2.730  66.169  1.00  0.00    -0.048 A  
HETATM    3  C   UNL     1      -7.375   2.990  67.428  1.00  0.00    -0.058 A  
HETATM    4  C   UNL     1      -8.333   4.002  67.614  1.00  0.00    -0.096 A  
HETATM    5  C   UNL     1      -8.890   4.210  68.997  1.00  0.00    -0.141 C  
HETATM    6  C   UNL     1      -8.745   4.771  66.505  1.00  0.00    -0.111 A  
HETATM    7  C   UNL     1      -8.176   4.525  65.244  1.00  0.00    -0.112 A  
HETATM    8  C   UNL     1      -7.223   3.510  65.080  1.00  0.00    -0.067 A  
ENDROOT
BRANCH   6   9
HETATM    9  C   UNL     1      -9.821   5.801  66.657  1.00  0.00    -0.165 C  
HETATM   10  O   UNL     1     -10.978   5.626  66.310  1.00  0.00    -0.164 OA 
BRANCH   9  11
HETATM   11  O   UNL     1      -9.341   6.926  67.246  1.00  0.00    -0.130 OA 
BRANCH  11  12
HETATM   12  C   UNL     1      -8.476   7.712  66.405  1.00  0.00    -0.137 C  
BRANCH  12  13
HETATM   13  C   UNL     1      -9.209   8.928  65.893  1.00  0.00    -0.290 A  
HETATM   14  C   UNL     1      -8.690   9.685  64.835  1.00  0.00    -0.207 A  
HETATM   15  C   UNL     1      -9.287  10.892  64.465  1.00  0.00    -0.256 A  
HETATM   16  C   UNL     1     -10.415  11.366  65.149  1.00  0.00    -0.351 A  
HETATM   17  C   UNL     1     -10.993  10.551  66.135  1.00  0.00     0.068 A  
HETATM   18  C   UNL     1     -10.957  12.760  64.841  1.00  0.00    -0.324 C  
HETATM   19  C   UNL     1     -10.385   9.355  66.517  1.00  0.00    -0.268 A  
HETATM   20  C   UNL     1     -11.560  13.442  66.085  1.00  0.00    -0.346 C  
HETATM   21  C   UNL     1     -11.984  12.704  63.687  1.00  0.00    -0.535 C  
HETATM   22  O   UNL     1     -12.747  13.769  66.112  1.00  0.00    -0.407 OA 
HETATM   23  N   UNL     1     -12.457  14.032  63.264  1.00  0.00    -1.112 NA 
HETATM   24  N   UNL     1     -10.667  13.609  67.138  1.00  0.00    -0.275 N  
HETATM   25  H1  UNL     1     -13.135  13.995  62.502  1.00  0.00     0.000 HD 
HETATM   26  H2  UNL     1     -11.672  14.635  63.022  1.00  0.00     0.000 HD 
HETATM   27  H   UNL     1      -9.718  13.256  67.007  1.00  0.00     0.000 HD 
BRANCH  24  28
HETATM   28  C   UNL     1     -10.965  14.228  68.375  1.00  0.00    -0.253 A  
HETATM   29  C   UNL     1     -10.483  15.493  68.717  1.00  0.00    -0.234 A  
HETATM   30  C   UNL     1     -10.828  16.093  69.928  1.00  0.00    -0.355 A  
HETATM   31  C   UNL     1     -11.656  15.426  70.837  1.00  0.00    -0.396 A  
HETATM   32  C   UNL     1     -12.035  15.994  72.056  1.00  0.00    -0.537 A  
HETATM   33  N   UNL     1     -12.817  15.383  72.973  1.00  0.00    -0.413 NA 
HETATM   34  C   UNL     1     -13.247  14.143  72.664  1.00  0.00    -0.518 A  
HETATM   35  C   UNL     1     -12.941  13.488  71.478  1.00  0.00    -0.440 A  
HETATM   36  C   UNL     1     -12.128  14.134  70.533  1.00  0.00    -0.420 A  
HETATM   37  C   UNL     1     -11.772  13.544  69.299  1.00  0.00    -0.382 A  
ENDBRANCH  24  28
ENDBRANCH  12  13
ENDBRANCH  11  12
ENDBRANCH   9  11
ENDBRANCH   6   9
TORSDOF 5
ENDMDL
MODEL       44
REMARK 921   NORMALIZED FREE ENERGY PREDICTED BY IDOCK:   -6.17 KCAL/MOL
REMARK 922        TOTAL FREE ENERGY PREDICTED BY IDOCK:  -10.20 KCAL/MOL
REMARK 923 INTER-LIGAND FREE ENERGY PREDICTED BY IDOCK:   -8.99 KCAL/MOL
REMARK 924 INTRA-LIGAND FREE ENERGY PREDICTED BY IDOCK:   -1.21 KCAL/MOL
REMARK 927      BINDING AFFINITY PREDICTED BY RF-SCORE:    0.00 PKD
ROOT
HETATM    1  C   UNL     1      -5.612  19.884  63.145  1.00  0.00    -0.334 C  
HETATM    2  C   UNL     1      -6.051  19.545  64.540  1.00  0.00    -0.288 A  
HETATM    3  C   UNL     1      -5.691  18.324  65.121  1.00  0.00    -0.176 A  
HETATM    4  C   UNL     1      -6.136  17.962  66.405  1.00  0.00    -0.226 A  
HETATM    5  C   UNL     1      -5.717  16.625  66.954  1.00  0.00    -0.116 C  
HETATM    6  C   UNL     1      -6.963  18.853  67.122  1.00  0.00    -0.210 A  
HETATM    7  C   UNL     1      -7.308  20.088  66.548  1.00  0.00    -0.294 A  
HETATM    8  C   UNL     1      -6.856  20.429  65.267  1.00  0.00    -0.283 A  
ENDROOT
BRANCH   6   9
HETATM    9  C   UNL     1      -7.517  18.461  68.457  1.00  0.00    -0.293 C  
HETATM   10  O   UNL     1      -6.910  18.597  69.508  1.00  0.00    -0.219 OA 
BRANCH   9  11
HETATM   11  O   UNL     1      -8.775  17.964  68.338  1.00  0.00    -0.280 OA 
BRANCH  11  12
HETATM   12  C   UNL     1      -8.937  16.632  68.858  1.00  0.00    -0.239 C  
BRANCH  12  13
HETATM   13  C   UNL     1      -9.633  15.756  67.846  1.00  0.00    -0.214 A  
HETATM   14  C   UNL     1     -11.029  15.761  67.732  1.00  0.00    -0.314 A  
HETATM   15  C   UNL     1     -11.678  14.841  66.905  1.00  0.00    -0.316 A  
HETATM   16  C   UNL     1     -10.941  13.897  66.177  1.00  0.00    -0.293 A  
HETATM   17  C   UNL     1      -9.540  13.968  66.211  1.00  0.00    -0.284 A  
HETATM   18  C   UNL     1     -11.671  12.798  65.407  1.00  0.00    -0.425 C  
HETATM   19  C   UNL     1      -8.893  14.874  67.052  1.00  0.00    -0.255 A  
HETATM   20  C   UNL     1     -10.876  11.478  65.377  1.00  0.00    -0.259 C  
HETATM   21  C   UNL     1     -12.016  13.270  63.976  1.00  0.00    -0.465 C  
HETATM   22  O   UNL     1     -10.506  10.987  64.310  1.00  0.00    -0.338 OA 
HETATM   23  N   UNL     1     -12.822  12.298  63.221  1.00  0.00    -0.784 NA 
HETATM   24  N   UNL     1     -10.604  10.943  66.632  1.00  0.00    -0.254 N  
HETATM   25  H1  UNL     1     -13.049  12.609  62.276  1.00  0.00     0.000 HD 
HETATM   26  H2  UNL     1     -13.667  12.052  63.735  1.00  0.00     0.000 HD 
HETATM   27  H   UNL     1     -10.928  11.467  67.444  1.00  0.00     0.000 HD 
BRANCH  24  28
HETATM   28  C   UNL     1      -9.915   9.730  66.874  1.00  0.00    -0.211 A  
HETATM   29  C   UNL     1      -8.522   9.643  66.866  1.00  0.00    -0.121 A  
HETATM   30  C   UNL     1      -7.873   8.440  67.146  1.00  0.00    -0.100 A  
HETATM   31  C   UNL     1      -8.612   7.287  67.428  1.00  0.00    -0.121 A  
HETATM   32  C   UNL     1      -8.003   6.065  67.725  1.00  0.00    -0.105 A  
HETATM   33  N   UNL     1      -8.673   4.920  67.985  1.00  0.00    -0.102 NA 
HETATM   34  C   UNL     1     -10.018   4.993  67.949  1.00  0.00    -0.138 A  
HETATM   35  C   UNL     1     -10.727   6.156  67.676  1.00  0.00    -0.388 A  
HETATM   36  C   UNL     1     -10.020   7.337  67.408  1.00  0.00    -0.228 A  
HETATM   37  C   UNL     1     -10.660   8.566  67.126  1.00  0.00    -0.314 A  
ENDBRANCH  24  28
ENDBRANCH  12  13
ENDBRANCH  11  12
ENDBRANCH   9  11
ENDBRANCH   6   9
TORSDOF 5
ENDMDL
MODEL       45
REMARK 921   NORMALIZED FREE ENERGY PREDICTED BY IDOCK:   -6.12 KCAL/MOL
REMARK 922        TOTAL FREE ENERGY PREDICTED BY IDOCK:  -10.14 KCAL/MOL
REMARK 923 INTER-LIGAND FREE ENERGY PREDICTED BY IDOCK:   -9.04 KCAL/MOL
REMARK 924 INTRA-LIGAND FREE ENERGY PREDICTED BY IDOCK:   -1.10 KCAL/MOL
REMARK 927      BINDING AFFINITY PREDICTED BY RF-SCORE:    0.00 PKD
ROOT
HETATM    1  C   UNL     1     -10.939   2.009  62.615  1.00  0.00    -0.201 C  
HETATM    2  C   UNL     1     -10.149   2.969  63.457  1.00  0.00    -0.165 A  
HETATM    3  C   UNL     1      -9.524   4.076  62.873  1.00  0.00    -0.131 A  
HETATM    4  C   UNL     1      -8.734   4.958  63.633  1.00  0.00    -0.107 A  
HETATM    5  C   UNL     1      -8.083   6.118  62.928  1.00  0.00    -0.080 C  
HETATM    6  C   UNL     1      -8.570   4.719  65.014  1.00  0.00    -0.143 A  
HETATM    7  C   UNL     1      -9.214   3.619  65.604  1.00  0.00    -0.156 A  
HETATM    8  C   UNL     1      -9.996   2.751  64.830  1.00  0.00     0.128 A  
ENDROOT
BRANCH   6   9
HETATM    9  C   UNL     1      -7.672   5.593  65.831  1.00  0.00    -0.095 C  
HETATM   10  O   UNL     1      -6.454   5.585  65.740  1.00  0.00    -0.038 OA 
BRANCH   9  11
HETATM   11  O   UNL     1      -8.390   6.399  66.655  1.00  0.00    -0.109 OA 
BRANCH  11  12
HETATM   12  C   UNL     1      -7.819   7.706  66.851  1.00  0.00    -0.111 C  
BRANCH  12  13
HETATM   13  C   UNL     1      -8.682   8.757  66.197  1.00  0.00    -0.184 A  
HETATM   14  C   UNL     1      -8.207   9.500  65.109  1.00  0.00    -0.134 A  
HETATM   15  C   UNL     1      -8.945  10.573  64.605  1.00  0.00    -0.229 A  
HETATM   16  C   UNL     1     -10.173  10.924  65.181  1.00  0.00    -0.360 A  
HETATM   17  C   UNL     1     -10.694  10.109  66.199  1.00  0.00    -0.008 A  
HETATM   18  C   UNL     1     -10.887  12.194  64.726  1.00  0.00    -0.351 C  
HETATM   19  C   UNL     1      -9.948   9.049  66.715  1.00  0.00    -0.332 A  
HETATM   20  C   UNL     1     -11.666  12.871  65.871  1.00  0.00    -0.399 C  
HETATM   21  C   UNL     1     -11.814  11.899  63.524  1.00  0.00    -0.460 C  
HETATM   22  O   UNL     1     -12.887  13.019  65.804  1.00  0.00    -0.411 OA 
HETATM   23  N   UNL     1     -12.444  13.105  62.964  1.00  0.00    -0.741 NA 
HETATM   24  N   UNL     1     -10.880  13.248  66.955  1.00  0.00    -0.275 N  
HETATM   25  H1  UNL     1     -13.055  12.911  62.171  1.00  0.00     0.000 HD 
HETATM   26  H2  UNL     1     -11.739  13.799  62.717  1.00  0.00     0.000 HD 
HETATM   27  H   UNL     1      -9.884  13.032  66.909  1.00  0.00     0.000 HD 
BRANCH  24  28
HETATM   28  C   UNL     1     -11.349  13.908  68.116  1.00  0.00    -0.295 A  
HETATM   29  C   UNL     1     -11.342  15.299  68.244  1.00  0.00    -0.344 A  
HETATM   30  C   UNL     1     -11.847  15.920  69.386  1.00  0.00    -0.325 A  
HETATM   31  C   UNL     1     -12.359  15.156  70.439  1.00  0.00    -0.411 A  
HETATM   32  C   UNL     1     -12.885  15.737  71.596  1.00  0.00    -0.448 A  
HETATM   33  N   UNL     1     -13.374  15.042  72.646  1.00  0.00    -0.416 NA 
HETATM   34  C   UNL     1     -13.340  13.698  72.543  1.00  0.00    -0.534 A  
HETATM   35  C   UNL     1     -12.851  13.016  71.436  1.00  0.00    -0.385 A  
HETATM   36  C   UNL     1     -12.347  13.750  70.352  1.00  0.00    -0.423 A  
HETATM   37  C   UNL     1     -11.835  13.138  69.185  1.00  0.00    -0.364 A  
ENDBRANCH  24  28
ENDBRANCH  12  13
ENDBRANCH  11  12
ENDBRANCH   9  11
ENDBRANCH   6   9
TORSDOF 5
ENDMDL
MODEL       46
REMARK 921   NORMALIZED FREE ENERGY PREDICTED BY IDOCK:   -6.11 KCAL/MOL
REMARK 922        TOTAL FREE ENERGY PREDICTED BY IDOCK:  -10.12 KCAL/MOL
REMARK 923 INTER-LIGAND FREE ENERGY PREDICTED BY IDOCK:   -8.93 KCAL/MOL
REMARK 924 INTRA-LIGAND FREE ENERGY PREDICTED BY IDOCK:   -1.19 KCAL/MOL
REMARK 927      BINDING AFFINITY PREDICTED BY RF-SCORE:    0.00 PKD
ROOT
HETATM    1  C   UNL     1      -8.258   8.456  62.509  1.00  0.00    -0.179 C  
HETATM    2  C   UNL     1      -8.002   7.934  63.893  1.00  0.00    -0.121 A  
HETATM    3  C   UNL     1      -8.581   8.557  65.004  1.00  0.00    -0.162 A  
HETATM    4  C   UNL     1      -8.312   8.118  66.314  1.00  0.00    -0.119 A  
HETATM    5  C   UNL     1      -8.962   8.850  67.457  1.00  0.00    -0.142 C  
HETATM    6  C   UNL     1      -7.439   7.027  66.508  1.00  0.00    -0.081 A  
HETATM    7  C   UNL     1      -6.874   6.388  65.391  1.00  0.00    -0.048 A  
HETATM    8  C   UNL     1      -7.153   6.841  64.095  1.00  0.00    -0.058 A  
ENDROOT
BRANCH   6   9
HETATM    9  C   UNL     1      -7.072   6.590  67.892  1.00  0.00    -0.085 C  
HETATM   10  O   UNL     1      -6.148   7.070  68.530  1.00  0.00    -0.027 OA 
BRANCH   9  11
HETATM   11  O   UNL     1      -7.910   5.618  68.337  1.00  0.00    -0.091 OA 
BRANCH  11  12
HETATM   12  C   UNL     1      -7.975   5.504  69.771  1.00  0.00    -0.090 C  
BRANCH  12  13
HETATM   13  C   UNL     1      -9.157   6.276  70.303  1.00  0.00    -0.156 A  
HETATM   14  C   UNL     1     -10.443   5.720  70.288  1.00  0.00    -0.349 A  
HETATM   15  C   UNL     1     -11.554   6.490  70.637  1.00  0.00    -0.442 A  
HETATM   16  C   UNL     1     -11.400   7.833  71.007  1.00  0.00    -0.287 A  
HETATM   17  C   UNL     1     -10.101   8.352  71.126  1.00  0.00    -0.248 A  
HETATM   18  C   UNL     1     -12.635   8.703  71.228  1.00  0.00    -0.266 C  
HETATM   19  C   UNL     1      -8.993   7.588  70.759  1.00  0.00    -0.149 A  
HETATM   20  C   UNL     1     -12.399  10.170  70.818  1.00  0.00    -0.328 C  
HETATM   21  C   UNL     1     -13.116   8.609  72.695  1.00  0.00    -0.211 C  
HETATM   22  O   UNL     1     -12.493  11.080  71.643  1.00  0.00    -0.310 OA 
HETATM   23  N   UNL     1     -14.371   9.334  72.944  1.00  0.00    -0.972 NA 
HETATM   24  N   UNL     1     -12.049  10.344  69.483  1.00  0.00    -0.522 N  
HETATM   25  H1  UNL     1     -14.688   9.271  73.912  1.00  0.00     0.000 HD 
HETATM   26  H2  UNL     1     -15.101   9.025  72.303  1.00  0.00     0.000 HD 
HETATM   27  H   UNL     1     -11.961   9.505  68.910  1.00  0.00     0.000 HD 
BRANCH  24  28
HETATM   28  C   UNL     1     -11.805  11.589  68.855  1.00  0.00    -0.341 A  
HETATM   29  C   UNL     1     -11.728  12.787  69.568  1.00  0.00    -0.383 A  
HETATM   30  C   UNL     1     -11.447  13.992  68.923  1.00  0.00    -0.331 A  
HETATM   31  C   UNL     1     -11.253  14.025  67.539  1.00  0.00    -0.328 A  
HETATM   32  C   UNL     1     -10.959  15.207  66.855  1.00  0.00    -0.323 A  
HETATM   33  N   UNL     1     -10.781  15.294  65.518  1.00  0.00    -0.347 NA 
HETATM   34  C   UNL     1     -10.899  14.145  64.824  1.00  0.00    -0.413 A  
HETATM   35  C   UNL     1     -11.177  12.912  65.401  1.00  0.00    -0.314 A  
HETATM   36  C   UNL     1     -11.360  12.837  66.790  1.00  0.00    -0.362 A  
HETATM   37  C   UNL     1     -11.640  11.624  67.461  1.00  0.00    -0.345 A  
ENDBRANCH  24  28
ENDBRANCH  12  13
ENDBRANCH  11  12
ENDBRANCH   9  11
ENDBRANCH   6   9
TORSDOF 5
ENDMDL
MODEL       47
REMARK 921   NORMALIZED FREE ENERGY PREDICTED BY IDOCK:   -6.09 KCAL/MOL
REMARK 922        TOTAL FREE ENERGY PREDICTED BY IDOCK:  -10.10 KCAL/MOL
REMARK 923 INTER-LIGAND FREE ENERGY PREDICTED BY IDOCK:   -7.51 KCAL/MOL
REMARK 924 INTRA-LIGAND FREE ENERGY PREDICTED BY IDOCK:   -2.59 KCAL/MOL
REMARK 927      BINDING AFFINITY PREDICTED BY RF-SCORE:    0.00 PKD
ROOT
HETATM    1  C   UNL     1     -10.271  12.642  67.547  1.00  0.00    -0.215 C  
HETATM    2  C   UNL     1     -10.386  11.631  68.651  1.00  0.00    -0.229 A  
HETATM    3  C   UNL     1      -9.471  10.576  68.745  1.00  0.00    -0.181 A  
HETATM    4  C   UNL     1      -9.591   9.587  69.738  1.00  0.00    -0.235 A  
HETATM    5  C   UNL     1      -8.575   8.477  69.764  1.00  0.00    -0.131 C  
HETATM    6  C   UNL     1     -10.659   9.662  70.657  1.00  0.00    -0.386 A  
HETATM    7  C   UNL     1     -11.566  10.731  70.576  1.00  0.00    -0.425 A  
HETATM    8  C   UNL     1     -11.430  11.706  69.579  1.00  0.00    -0.371 A  
ENDROOT
BRANCH   6   9
HETATM    9  C   UNL     1     -10.858   8.581  71.673  1.00  0.00    -0.286 C  
HETATM   10  O   UNL     1     -10.163   8.450  72.668  1.00  0.00    -0.302 OA 
BRANCH   9  11
HETATM   11  O   UNL     1     -11.917   7.794  71.349  1.00  0.00    -0.291 OA 
BRANCH  11  12
HETATM   12  C   UNL     1     -11.725   6.396  71.638  1.00  0.00    -0.313 C  
BRANCH  12  13
HETATM   13  C   UNL     1     -10.893   5.749  70.558  1.00  0.00    -0.348 A  
HETATM   14  C   UNL     1      -9.694   5.097  70.870  1.00  0.00    -0.252 A  
HETATM   15  C   UNL     1      -8.851   4.635  69.857  1.00  0.00    -0.129 A  
HETATM   16  C   UNL     1      -9.194   4.817  68.510  1.00  0.00    -0.165 A  
HETATM   17  C   UNL     1     -10.446   5.372  68.205  1.00  0.00    -0.191 A  
HETATM   18  C   UNL     1      -8.190   4.453  67.419  1.00  0.00    -0.100 C  
HETATM   19  C   UNL     1     -11.278   5.851  69.218  1.00  0.00    -0.255 A  
HETATM   20  C   UNL     1      -8.294   5.383  66.194  1.00  0.00    -0.117 C  
HETATM   21  C   UNL     1      -8.347   2.971  67.004  1.00  0.00    -0.091 C  
HETATM   22  O   UNL     1      -8.578   4.935  65.083  1.00  0.00    -0.132 OA 
HETATM   23  N   UNL     1      -7.331   2.527  66.037  1.00  0.00    -0.065 NA 
HETATM   24  N   UNL     1      -8.074   6.727  66.474  1.00  0.00    -0.105 N  
HETATM   25  H1  UNL     1      -7.434   1.549  65.763  1.00  0.00     0.000 HD 
HETATM   26  H2  UNL     1      -6.392   2.707  66.391  1.00  0.00     0.000 HD 
HETATM   27  H   UNL     1      -7.889   6.979  67.446  1.00  0.00     0.000 HD 
BRANCH  24  28
HETATM   28  C   UNL     1      -8.087   7.775  65.523  1.00  0.00    -0.128 A  
HETATM   29  C   UNL     1      -7.114   7.900  64.530  1.00  0.00    -0.073 A  
HETATM   30  C   UNL     1      -7.177   8.922  63.583  1.00  0.00    -0.093 A  
HETATM   31  C   UNL     1      -8.215   9.858  63.620  1.00  0.00    -0.157 A  
HETATM   32  C   UNL     1      -8.323  10.891  62.686  1.00  0.00    -0.167 A  
HETATM   33  N   UNL     1      -9.296  11.829  62.691  1.00  0.00    -0.171 NA 
HETATM   34  C   UNL     1     -10.212  11.735  63.676  1.00  0.00    -0.428 A  
HETATM   35  C   UNL     1     -10.208  10.745  64.650  1.00  0.00    -0.419 A  
HETATM   36  C   UNL     1      -9.192   9.777  64.633  1.00  0.00    -0.312 A  
HETATM   37  C   UNL     1      -9.114   8.732  65.581  1.00  0.00    -0.247 A  
ENDBRANCH  24  28
ENDBRANCH  12  13
ENDBRANCH  11  12
ENDBRANCH   9  11
ENDBRANCH   6   9
TORSDOF 5
ENDMDL
MODEL       48
REMARK 921   NORMALIZED FREE ENERGY PREDICTED BY IDOCK:   -6.05 KCAL/MOL
REMARK 922        TOTAL FREE ENERGY PREDICTED BY IDOCK:  -10.05 KCAL/MOL
REMARK 923 INTER-LIGAND FREE ENERGY PREDICTED BY IDOCK:   -9.32 KCAL/MOL
REMARK 924 INTRA-LIGAND FREE ENERGY PREDICTED BY IDOCK:   -0.73 KCAL/MOL
REMARK 927      BINDING AFFINITY PREDICTED BY RF-SCORE:    0.00 PKD
ROOT
HETATM    1  C   UNL     1     -11.287  14.903  71.346  1.00  0.00    -0.246 C  
HETATM    2  C   UNL     1     -11.006  15.322  69.932  1.00  0.00    -0.303 A  
HETATM    3  C   UNL     1      -9.695  15.332  69.442  1.00  0.00    -0.248 A  
HETATM    4  C   UNL     1      -9.402  15.772  68.138  1.00  0.00    -0.194 A  
HETATM    5  C   UNL     1      -7.965  15.765  67.690  1.00  0.00    -0.163 C  
HETATM    6  C   UNL     1     -10.455  16.214  67.309  1.00  0.00    -0.309 A  
HETATM    7  C   UNL     1     -11.773  16.186  67.793  1.00  0.00     0.208 A  
HETATM    8  C   UNL     1     -12.044  15.745  69.095  1.00  0.00    -0.217 A  
ENDROOT
BRANCH   6   9
HETATM    9  C   UNL     1     -10.164  16.763  65.947  1.00  0.00    -0.328 C  
HETATM   10  O   UNL     1      -9.731  17.888  65.749  1.00  0.00    -0.527 OA 
BRANCH   9  11
HETATM   11  O   UNL     1     -10.423  15.843  64.983  1.00  0.00    -0.518 OA 
BRANCH  11  12
HETATM   12  C   UNL     1     -11.250  14.747  65.417  1.00  0.00    -0.347 C  
BRANCH  12  13
HETATM   13  C   UNL     1     -10.572  13.432  65.123  1.00  0.00    -0.353 A  
HETATM   14  C   UNL     1     -10.802  12.760  63.916  1.00  0.00    -0.447 A  
HETATM   15  C   UNL     1     -10.296  11.474  63.710  1.00  0.00    -0.450 A  
HETATM   16  C   UNL     1      -9.551  10.835  64.711  1.00  0.00    -0.314 A  
HETATM   17  C   UNL     1      -9.233  11.555  65.874  1.00  0.00    -0.223 A  
HETATM   18  C   UNL     1      -9.146   9.374  64.536  1.00  0.00    -0.205 C  
HETATM   19  C   UNL     1      -9.754  12.832  66.086  1.00  0.00    -0.246 A  
HETATM   20  C   UNL     1      -9.109   8.612  65.875  1.00  0.00    -0.205 C  
HETATM   21  C   UNL     1      -7.790   9.267  63.801  1.00  0.00    -0.133 C  
HETATM   22  O   UNL     1      -8.064   8.106  66.286  1.00  0.00    -0.100 OA 
HETATM   23  N   UNL     1      -7.398   7.882  63.498  1.00  0.00    -0.097 NA 
HETATM   24  N   UNL     1     -10.322   8.587  66.555  1.00  0.00    -0.362 N  
HETATM   25  H1  UNL     1      -6.504   7.812  63.013  1.00  0.00     0.000 HD 
HETATM   26  H2  UNL     1      -8.133   7.405  62.976  1.00  0.00     0.000 HD 
HETATM   27  H   UNL     1     -11.107   9.081  66.129  1.00  0.00     0.000 HD 
BRANCH  24  28
HETATM   28  C   UNL     1     -10.558   7.933  67.788  1.00  0.00    -0.175 A  
HETATM   29  C   UNL     1     -10.806   6.562  67.876  1.00  0.00    -0.383 A  
HETATM   30  C   UNL     1     -10.995   5.942  69.110  1.00  0.00    -0.382 A  
HETATM   31  C   UNL     1     -10.955   6.689  70.292  1.00  0.00    -0.355 A  
HETATM   32  C   UNL     1     -11.128   6.106  71.549  1.00  0.00    -0.286 A  
HETATM   33  N   UNL     1     -11.116   6.788  72.716  1.00  0.00    -0.263 NA 
HETATM   34  C   UNL     1     -10.921   8.119  72.629  1.00  0.00    -0.370 A  
HETATM   35  C   UNL     1     -10.727   8.800  71.435  1.00  0.00    -0.356 A  
HETATM   36  C   UNL     1     -10.741   8.080  70.231  1.00  0.00    -0.239 A  
HETATM   37  C   UNL     1     -10.547   8.691  68.971  1.00  0.00    -0.179 A  
ENDBRANCH  24  28
ENDBRANCH  12  13
ENDBRANCH  11  12
ENDBRANCH   9  11
ENDBRANCH   6   9
TORSDOF 5
ENDMDL
MODEL       49
REMARK 921   NORMALIZED FREE ENERGY PREDICTED BY IDOCK:   -6.04 KCAL/MOL
REMARK 922        TOTAL FREE ENERGY PREDICTED BY IDOCK:  -10.04 KCAL/MOL
REMARK 923 INTER-LIGAND FREE ENERGY PREDICTED BY IDOCK:   -8.24 KCAL/MOL
REMARK 924 INTRA-LIGAND FREE ENERGY PREDICTED BY IDOCK:   -1.80 KCAL/MOL
REMARK 927      BINDING AFFINITY PREDICTED BY RF-SCORE:    0.00 PKD
ROOT
HETATM    1  C   UNL     1      -6.197  10.554  68.994  1.00  0.00    -0.044 C  
HETATM    2  C   UNL     1      -6.918  10.567  67.677  1.00  0.00    -0.079 A  
HETATM    3  C   UNL     1      -8.249  10.144  67.593  1.00  0.00    -0.110 A  
HETATM    4  C   UNL     1      -8.928  10.096  66.361  1.00  0.00    -0.163 A  
HETATM    5  C   UNL     1     -10.354   9.615  66.352  1.00  0.00    -0.246 C  
HETATM    6  C   UNL     1      -8.248  10.483  65.187  1.00  0.00    -0.134 A  
HETATM    7  C   UNL     1      -6.918  10.928  65.273  1.00  0.00     0.228 A  
HETATM    8  C   UNL     1      -6.260  10.967  66.509  1.00  0.00    -0.122 A  
ENDROOT
BRANCH   6   9
HETATM    9  C   UNL     1      -8.918  10.367  63.853  1.00  0.00    -0.227 C  
HETATM   10  O   UNL     1      -9.280   9.306  63.368  1.00  0.00    -0.060 OA 
BRANCH   9  11
HETATM   11  O   UNL     1      -9.084  11.587  63.280  1.00  0.00    -0.156 OA 
BRANCH  11  12
HETATM   12  C   UNL     1     -10.436  12.080  63.318  1.00  0.00    -0.359 C  
BRANCH  12  13
HETATM   13  C   UNL     1     -10.709  12.756  64.640  1.00  0.00    -0.361 A  
HETATM   14  C   UNL     1      -9.800  13.679  65.174  1.00  0.00    -0.115 A  
HETATM   15  C   UNL     1      -9.978  14.185  66.463  1.00  0.00    -0.289 A  
HETATM   16  C   UNL     1     -11.069  13.777  67.243  1.00  0.00    -0.319 A  
HETATM   17  C   UNL     1     -12.032  12.938  66.662  1.00  0.00    -0.436 A  
HETATM   18  C   UNL     1     -11.160  14.213  68.704  1.00  0.00    -0.283 C  
HETATM   19  C   UNL     1     -11.844  12.417  65.382  1.00  0.00    -0.460 A  
HETATM   20  C   UNL     1     -11.823  13.144  69.594  1.00  0.00    -0.324 C  
HETATM   21  C   UNL     1     -11.894  15.568  68.825  1.00  0.00    -0.317 C  
HETATM   22  O   UNL     1     -12.865  13.387  70.203  1.00  0.00    -0.035 OA 
HETATM   23  N   UNL     1     -11.914  16.100  70.196  1.00  0.00    -0.368 NA 
HETATM   24  N   UNL     1     -11.164  11.919  69.607  1.00  0.00    -0.455 N  
HETATM   25  H1  UNL     1     -12.398  16.994  70.276  1.00  0.00     0.000 HD 
HETATM   26  H2  UNL     1     -10.968  16.165  70.572  1.00  0.00     0.000 HD 
HETATM   27  H   UNL     1     -10.332  11.829  69.024  1.00  0.00     0.000 HD 
BRANCH  24  28
HETATM   28  C   UNL     1     -11.555  10.787  70.361  1.00  0.00    -0.339 A  
HETATM   29  C   UNL     1     -12.566  10.837  71.323  1.00  0.00    -0.532 A  
HETATM   30  C   UNL     1     -12.953   9.694  72.022  1.00  0.00    -0.518 A  
HETATM   31  C   UNL     1     -12.321   8.470  71.783  1.00  0.00    -0.388 A  
HETATM   32  C   UNL     1     -12.685   7.299  72.452  1.00  0.00     0.148 A  
HETATM   33  N   UNL     1     -12.093   6.098  72.269  1.00  0.00    -0.266 NA 
HETATM   34  C   UNL     1     -11.087   6.057  71.373  1.00  0.00    -0.274 A  
HETATM   35  C   UNL     1     -10.650   7.156  70.643  1.00  0.00    -0.243 A  
HETATM   36  C   UNL     1     -11.274   8.397  70.843  1.00  0.00    -0.294 A  
HETATM   37  C   UNL     1     -10.898   9.565  70.141  1.00  0.00    -0.300 A  
ENDBRANCH  24  28
ENDBRANCH  12  13
ENDBRANCH  11  12
ENDBRANCH   9  11
ENDBRANCH   6   9
TORSDOF 5
ENDMDL
MODEL       50
REMARK 921   NORMALIZED FREE ENERGY PREDICTED BY IDOCK:   -6.03 KCAL/MOL
REMARK 922        TOTAL FREE ENERGY PREDICTED BY IDOCK:  -10.01 KCAL/MOL
REMARK 923 INTER-LIGAND FREE ENERGY PREDICTED BY IDOCK:   -9.02 KCAL/MOL
REMARK 924 INTRA-LIGAND FREE ENERGY PREDICTED BY IDOCK:   -0.99 KCAL/MOL
REMARK 927      BINDING AFFINITY PREDICTED BY RF-SCORE:    0.00 PKD
ROOT
HETATM    1  C   UNL     1      -8.551   1.544  73.167  1.00  0.00    -0.061 C  
HETATM    2  C   UNL     1      -8.956   2.986  73.259  1.00  0.00    -0.092 A  
HETATM    3  C   UNL     1      -8.517   3.909  72.303  1.00  0.00    -0.098 A  
HETATM    4  C   UNL     1      -8.839   5.275  72.400  1.00  0.00    -0.130 A  
HETATM    5  C   UNL     1      -8.317   6.206  71.338  1.00  0.00    -0.123 C  
HETATM    6  C   UNL     1      -9.621   5.722  73.486  1.00  0.00    -0.140 A  
HETATM    7  C   UNL     1     -10.078   4.793  74.435  1.00  0.00    -0.256 A  
HETATM    8  C   UNL     1      -9.746   3.437  74.322  1.00  0.00    -0.145 A  
ENDROOT
BRANCH   6   9
HETATM    9  C   UNL     1      -9.911   7.180  73.658  1.00  0.00    -0.300 C  
HETATM   10  O   UNL     1      -9.050   8.022  73.861  1.00  0.00    -0.257 OA 
BRANCH   9  11
HETATM   11  O   UNL     1     -11.240   7.432  73.537  1.00  0.00    -0.234 OA 
BRANCH  11  12
HETATM   12  C   UNL     1     -11.718   7.445  72.179  1.00  0.00    -0.290 C  
BRANCH  12  13
HETATM   13  C   UNL     1     -11.811   8.863  71.671  1.00  0.00    -0.415 A  
HETATM   14  C   UNL     1     -13.005   9.588  71.781  1.00  0.00    -0.502 A  
HETATM   15  C   UNL     1     -13.135  10.839  71.175  1.00  0.00    -0.381 A  
HETATM   16  C   UNL     1     -12.073  11.389  70.445  1.00  0.00    -0.473 A  
HETATM   17  C   UNL     1     -10.845  10.708  70.431  1.00  0.00    -0.061 A  
HETATM   18  C   UNL     1     -12.285  12.679  69.656  1.00  0.00    -0.177 C  
HETATM   19  C   UNL     1     -10.722   9.450  71.020  1.00  0.00    -0.407 A  
HETATM   20  C   UNL     1     -11.448  12.717  68.362  1.00  0.00    -0.311 C  
HETATM   21  C   UNL     1     -11.995  13.915  70.539  1.00  0.00    -0.314 C  
HETATM   22  O   UNL     1     -10.601  13.593  68.183  1.00  0.00    -0.235 OA 
HETATM   23  N   UNL     1     -12.293  15.191  69.871  1.00  0.00    -0.493 NA 
HETATM   24  N   UNL     1     -11.719  11.682  67.473  1.00  0.00    -0.263 N  
HETATM   25  H1  UNL     1     -12.102  16.006  70.454  1.00  0.00     0.000 HD 
HETATM   26  H2  UNL     1     -13.254  15.205  69.531  1.00  0.00     0.000 HD 
HETATM   27  H   UNL     1     -12.415  10.993  67.756  1.00  0.00     0.000 HD 
BRANCH  24  28
HETATM   28  C   UNL     1     -11.108  11.508  66.208  1.00  0.00    -0.263 A  
HETATM   29  C   UNL     1     -11.481  12.249  65.085  1.00  0.00    -0.390 A  
HETATM   30  C   UNL     1     -10.832  12.080  63.862  1.00  0.00    -0.457 A  
HETATM   31  C   UNL     1      -9.798  11.148  63.732  1.00  0.00    -0.374 A  
HETATM   32  C   UNL     1      -9.113  10.955  62.530  1.00  0.00    -0.326 A  
HETATM   33  N   UNL     1      -8.121  10.055  62.350  1.00  0.00    -0.125 NA 
HETATM   34  C   UNL     1      -7.790   9.308  63.423  1.00  0.00    -0.131 A  
HETATM   35  C   UNL     1      -8.395   9.424  64.668  1.00  0.00    -0.161 A  
HETATM   36  C   UNL     1      -9.423  10.362  64.840  1.00  0.00    -0.320 A  
HETATM   37  C   UNL     1     -10.090  10.550  66.073  1.00  0.00    -0.317 A  
ENDBRANCH  24  28
ENDBRANCH  12  13
ENDBRANCH  11  12
ENDBRANCH   9  11
ENDBRANCH   6   9
TORSDOF 5
ENDMDL
MODEL       51
REMARK 921   NORMALIZED FREE ENERGY PREDICTED BY IDOCK:   -6.00 KCAL/MOL
REMARK 922        TOTAL FREE ENERGY PREDICTED BY IDOCK:   -9.98 KCAL/MOL
REMARK 923 INTER-LIGAND FREE ENERGY PREDICTED BY IDOCK:   -7.24 KCAL/MOL
REMARK 924 INTRA-LIGAND FREE ENERGY PREDICTED BY IDOCK:   -2.74 KCAL/MOL
REMARK 927      BINDING AFFINITY PREDICTED BY RF-SCORE:    0.00 PKD
ROOT
HETATM    1  C   UNL     1      -9.604   4.310  66.366  1.00  0.00    -0.209 C  
HETATM    2  C   UNL     1      -9.986   4.890  67.697  1.00  0.00    -0.192 A  
HETATM    3  C   UNL     1      -9.616   4.247  68.883  1.00  0.00    -0.227 A  
HETATM    4  C   UNL     1     -10.009   4.742  70.140  1.00  0.00    -0.321 A  
HETATM    5  C   UNL     1      -9.582   3.984  71.369  1.00  0.00    -0.241 C  
HETATM    6  C   UNL     1     -10.794   5.912  70.203  1.00  0.00    -0.402 A  
HETATM    7  C   UNL     1     -11.149   6.570  69.013  1.00  0.00    -0.375 A  
HETATM    8  C   UNL     1     -10.749   6.060  67.771  1.00  0.00    -0.369 A  
ENDROOT
BRANCH   6   9
HETATM    9  C   UNL     1     -11.294   6.417  71.520  1.00  0.00    -0.294 C  
HETATM   10  O   UNL     1     -12.405   6.168  71.963  1.00  0.00    -0.290 OA 
BRANCH   9  11
HETATM   11  O   UNL     1     -10.347   7.157  72.152  1.00  0.00    -0.193 OA 
BRANCH  11  12
HETATM   12  C   UNL     1     -10.741   8.515  72.425  1.00  0.00    -0.306 C  
BRANCH  12  13
HETATM   13  C   UNL     1     -10.491   9.384  71.217  1.00  0.00    -0.385 A  
HETATM   14  C   UNL     1     -11.535  10.101  70.620  1.00  0.00    -0.432 A  
HETATM   15  C   UNL     1     -11.335  10.780  69.416  1.00  0.00    -0.351 A  
HETATM   16  C   UNL     1     -10.083  10.753  68.785  1.00  0.00    -0.202 A  
HETATM   17  C   UNL     1      -9.014  10.125  69.443  1.00  0.00    -0.205 A  
HETATM   18  C   UNL     1      -9.925  11.361  67.394  1.00  0.00    -0.207 C  
HETATM   19  C   UNL     1      -9.220   9.431  70.635  1.00  0.00    -0.303 A  
HETATM   20  C   UNL     1      -8.890  10.604  66.538  1.00  0.00    -0.151 C  
HETATM   21  C   UNL     1      -9.569  12.863  67.492  1.00  0.00    -0.200 C  
HETATM   22  O   UNL     1      -7.881  11.171  66.118  1.00  0.00    -0.149 OA 
HETATM   23  N   UNL     1      -9.516  13.535  66.184  1.00  0.00    -0.463 NA 
HETATM   24  N   UNL     1      -9.190   9.261  66.331  1.00  0.00    -0.167 N  
HETATM   25  H1  UNL     1      -9.281  14.526  66.248  1.00  0.00     0.000 HD 
HETATM   26  H2  UNL     1     -10.388  13.401  65.673  1.00  0.00     0.000 HD 
HETATM   27  H   UNL     1     -10.037   8.898  66.769  1.00  0.00     0.000 HD 
BRANCH  24  28
HETATM   28  C   UNL     1      -8.418   8.359  65.561  1.00  0.00    -0.168 A  
HETATM   29  C   UNL     1      -8.411   8.377  64.165  1.00  0.00    -0.081 A  
HETATM   30  C   UNL     1      -7.608   7.499  63.437  1.00  0.00    -0.118 A  
HETATM   31  C   UNL     1      -6.801   6.567  64.096  1.00  0.00    -0.045 A  
HETATM   32  C   UNL     1      -5.973   5.677  63.406  1.00  0.00    -0.018 A  
HETATM   33  N   UNL     1      -5.190   4.747  63.996  1.00  0.00    -0.009 NA 
HETATM   34  C   UNL     1      -5.230   4.698  65.343  1.00  0.00    -0.009 A  
HETATM   35  C   UNL     1      -6.007   5.541  66.128  1.00  0.00    -0.022 A  
HETATM   36  C   UNL     1      -6.814   6.502  65.503  1.00  0.00    -0.048 A  
HETATM   37  C   UNL     1      -7.631   7.403  66.225  1.00  0.00    -0.088 A  
ENDBRANCH  24  28
ENDBRANCH  12  13
ENDBRANCH  11  12
ENDBRANCH   9  11
ENDBRANCH   6   9
TORSDOF 5
ENDMDL
MODEL       52
REMARK 921   NORMALIZED FREE ENERGY PREDICTED BY IDOCK:   -5.97 KCAL/MOL
REMARK 922        TOTAL FREE ENERGY PREDICTED BY IDOCK:   -9.95 KCAL/MOL
REMARK 923 INTER-LIGAND FREE ENERGY PREDICTED BY IDOCK:   -8.72 KCAL/MOL
REMARK 924 INTRA-LIGAND FREE ENERGY PREDICTED BY IDOCK:   -1.22 KCAL/MOL
REMARK 927      BINDING AFFINITY PREDICTED BY RF-SCORE:    0.00 PKD
ROOT
HETATM    1  C   UNL     1      -9.711   4.422  66.625  1.00  0.00    -0.233 C  
HETATM    2  C   UNL     1      -9.937   5.244  67.861  1.00  0.00    -0.206 A  
HETATM    3  C   UNL     1      -9.025   5.197  68.921  1.00  0.00    -0.122 A  
HETATM    4  C   UNL     1      -9.244   5.916  70.110  1.00  0.00    -0.169 A  
HETATM    5  C   UNL     1      -8.222   5.802  71.210  1.00  0.00    -0.122 C  
HETATM    6  C   UNL     1     -10.411   6.700  70.235  1.00  0.00    -0.235 A  
HETATM    7  C   UNL     1     -11.317   6.763  69.163  1.00  0.00    -0.188 A  
HETATM    8  C   UNL     1     -11.081   6.038  67.987  1.00  0.00    -0.233 A  
ENDROOT
BRANCH   6   9
HETATM    9  C   UNL     1     -10.710   7.410  71.518  1.00  0.00    -0.222 C  
HETATM   10  O   UNL     1     -11.003   6.838  72.556  1.00  0.00    -0.229 OA 
BRANCH   9  11
HETATM   11  O   UNL     1     -10.589   8.755  71.372  1.00  0.00    -0.232 OA 
BRANCH  11  12
HETATM   12  C   UNL     1      -9.321   9.181  70.840  1.00  0.00    -0.269 C  
BRANCH  12  13
HETATM   13  C   UNL     1      -9.495   9.720  69.442  1.00  0.00    -0.212 A  
HETATM   14  C   UNL     1      -8.609   9.358  68.418  1.00  0.00    -0.124 A  
HETATM   15  C   UNL     1      -8.679   9.975  67.167  1.00  0.00    -0.132 A  
HETATM   16  C   UNL     1      -9.637  10.967  66.916  1.00  0.00    -0.205 A  
HETATM   17  C   UNL     1     -10.589  11.247  67.909  1.00  0.00    -0.231 A  
HETATM   18  C   UNL     1      -9.595  11.743  65.602  1.00  0.00    -0.240 C  
HETATM   19  C   UNL     1     -10.507  10.644  69.165  1.00  0.00    -0.245 A  
HETATM   20  C   UNL     1     -10.064  13.203  65.769  1.00  0.00    -0.285 C  
HETATM   21  C   UNL     1     -10.419  11.018  64.513  1.00  0.00    -0.342 C  
HETATM   22  O   UNL     1     -11.046  13.624  65.158  1.00  0.00    -0.301 OA 
HETATM   23  N   UNL     1     -10.325  11.656  63.190  1.00  0.00    -0.637 NA 
HETATM   24  N   UNL     1      -9.311  13.947  66.671  1.00  0.00    -0.311 N  
HETATM   25  H1  UNL     1     -10.868  11.177  62.472  1.00  0.00     0.000 HD 
HETATM   26  H2  UNL     1      -9.351  11.753  62.904  1.00  0.00     0.000 HD 
HETATM   27  H   UNL     1      -8.546  13.470  67.147  1.00  0.00     0.000 HD 
BRANCH  24  28
HETATM   28  C   UNL     1      -9.520  15.313  66.980  1.00  0.00    -0.223 A  
HETATM   29  C   UNL     1     -10.494  15.737  67.886  1.00  0.00    -0.270 A  
HETATM   30  C   UNL     1     -10.647  17.088  68.199  1.00  0.00    -0.369 A  
HETATM   31  C   UNL     1      -9.833  18.051  67.595  1.00  0.00    -0.305 A  
HETATM   32  C   UNL     1      -9.945  19.412  67.888  1.00  0.00    -0.380 A  
HETATM   33  N   UNL     1      -9.195  20.381  67.318  1.00  0.00    -0.391 NA 
HETATM   34  C   UNL     1      -8.284  19.977  66.410  1.00  0.00    -0.302 A  
HETATM   35  C   UNL     1      -8.080  18.651  66.052  1.00  0.00    -0.122 A  
HETATM   36  C   UNL     1      -8.865  17.655  66.651  1.00  0.00    -0.283 A  
HETATM   37  C   UNL     1      -8.721  16.281  66.350  1.00  0.00    -0.354 A  
ENDBRANCH  24  28
ENDBRANCH  12  13
ENDBRANCH  11  12
ENDBRANCH   9  11
ENDBRANCH   6   9
TORSDOF 5
ENDMDL
MODEL       53
REMARK 921   NORMALIZED FREE ENERGY PREDICTED BY IDOCK:   -5.97 KCAL/MOL
REMARK 922        TOTAL FREE ENERGY PREDICTED BY IDOCK:   -9.94 KCAL/MOL
REMARK 923 INTER-LIGAND FREE ENERGY PREDICTED BY IDOCK:   -9.21 KCAL/MOL
REMARK 924 INTRA-LIGAND FREE ENERGY PREDICTED BY IDOCK:   -0.73 KCAL/MOL
REMARK 927      BINDING AFFINITY PREDICTED BY RF-SCORE:    0.00 PKD
ROOT
HETATM    1  C   UNL     1      -5.602   2.907  67.645  1.00  0.00    -0.018 C  
HETATM    2  C   UNL     1      -6.788   3.827  67.637  1.00  0.00    -0.050 A  
HETATM    3  C   UNL     1      -7.703   3.815  68.697  1.00  0.00    -0.056 A  
HETATM    4  C   UNL     1      -8.850   4.629  68.685  1.00  0.00    -0.125 A  
HETATM    5  C   UNL     1      -9.792   4.548  69.856  1.00  0.00    -0.298 C  
HETATM    6  C   UNL     1      -9.081   5.476  67.580  1.00  0.00    -0.107 A  
HETATM    7  C   UNL     1      -8.153   5.503  66.526  1.00  0.00    -0.105 A  
HETATM    8  C   UNL     1      -7.017   4.684  66.555  1.00  0.00    -0.066 A  
ENDROOT
BRANCH   6   9
HETATM    9  C   UNL     1     -10.333   6.293  67.503  1.00  0.00    -0.200 C  
HETATM   10  O   UNL     1     -11.251   6.054  66.735  1.00  0.00    -0.237 OA 
BRANCH   9  11
HETATM   11  O   UNL     1     -10.313   7.305  68.409  1.00  0.00    -0.176 OA 
BRANCH  11  12
HETATM   12  C   UNL     1      -9.297   8.296  68.167  1.00  0.00    -0.133 C  
BRANCH  12  13
HETATM   13  C   UNL     1      -9.829   9.378  67.259  1.00  0.00    -0.232 A  
HETATM   14  C   UNL     1      -9.608   9.327  65.877  1.00  0.00    -0.345 A  
HETATM   15  C   UNL     1      -9.965  10.402  65.060  1.00  0.00    -0.399 A  
HETATM   16  C   UNL     1     -10.550  11.550  65.612  1.00  0.00    -0.326 A  
HETATM   17  C   UNL     1     -10.868  11.550  66.979  1.00  0.00    -0.320 A  
HETATM   18  C   UNL     1     -10.784  12.777  64.733  1.00  0.00    -0.340 C  
HETATM   19  C   UNL     1     -10.493  10.484  67.798  1.00  0.00    -0.263 A  
HETATM   20  C   UNL     1     -10.628  14.096  65.516  1.00  0.00    -0.326 C  
HETATM   21  C   UNL     1     -12.167  12.701  64.047  1.00  0.00    -0.463 C  
HETATM   22  O   UNL     1     -11.570  14.882  65.623  1.00  0.00    -0.329 OA 
HETATM   23  N   UNL     1     -12.407  13.797  63.095  1.00  0.00    -1.106 NA 
HETATM   24  N   UNL     1      -9.374  14.277  66.090  1.00  0.00    -0.492 N  
HETATM   25  H1  UNL     1     -13.319  13.747  62.642  1.00  0.00     0.000 HD 
HETATM   26  H2  UNL     1     -11.660  13.844  62.403  1.00  0.00     0.000 HD 
HETATM   27  H   UNL     1      -8.690  13.532  65.964  1.00  0.00     0.000 HD 
BRANCH  24  28
HETATM   28  C   UNL     1      -8.970  15.412  66.833  1.00  0.00    -0.247 A  
HETATM   29  C   UNL     1      -8.719  15.361  68.205  1.00  0.00    -0.164 A  
HETATM   30  C   UNL     1      -8.284  16.489  68.901  1.00  0.00    -0.241 A  
HETATM   31  C   UNL     1      -8.105  17.706  68.236  1.00  0.00    -0.278 A  
HETATM   32  C   UNL     1      -7.661  18.856  68.891  1.00  0.00    -0.302 A  
HETATM   33  N   UNL     1      -7.491  20.058  68.296  1.00  0.00    -0.278 NA 
HETATM   34  C   UNL     1      -7.776  20.120  66.980  1.00  0.00    -0.315 A  
HETATM   35  C   UNL     1      -8.213  19.037  66.228  1.00  0.00    -0.294 A  
HETATM   36  C   UNL     1      -8.385  17.795  66.857  1.00  0.00    -0.257 A  
HETATM   37  C   UNL     1      -8.821  16.641  66.168  1.00  0.00    -0.323 A  
ENDBRANCH  24  28
ENDBRANCH  12  13
ENDBRANCH  11  12
ENDBRANCH   9  11
ENDBRANCH   6   9
TORSDOF 5
ENDMDL
MODEL       54
REMARK 921   NORMALIZED FREE ENERGY PREDICTED BY IDOCK:   -5.95 KCAL/MOL
REMARK 922        TOTAL FREE ENERGY PREDICTED BY IDOCK:   -9.92 KCAL/MOL
REMARK 923 INTER-LIGAND FREE ENERGY PREDICTED BY IDOCK:   -7.13 KCAL/MOL
REMARK 924 INTRA-LIGAND FREE ENERGY PREDICTED BY IDOCK:   -2.79 KCAL/MOL
REMARK 927      BINDING AFFINITY PREDICTED BY RF-SCORE:    0.00 PKD
ROOT
HETATM    1  C   UNL     1     -10.279   8.329  66.374  1.00  0.00    -0.142 C  
HETATM    2  C   UNL     1      -9.147   7.759  67.179  1.00  0.00    -0.154 A  
HETATM    3  C   UNL     1      -9.077   6.385  67.431  1.00  0.00    -0.111 A  
HETATM    4  C   UNL     1      -8.056   5.836  68.228  1.00  0.00    -0.108 A  
HETATM    5  C   UNL     1      -8.058   4.349  68.464  1.00  0.00    -0.081 C  
HETATM    6  C   UNL     1      -7.083   6.693  68.785  1.00  0.00    -0.082 A  
HETATM    7  C   UNL     1      -7.141   8.070  68.516  1.00  0.00    -0.080 A  
HETATM    8  C   UNL     1      -8.167   8.598  67.721  1.00  0.00    -0.118 A  
ENDROOT
BRANCH   6   9
HETATM    9  C   UNL     1      -6.032   6.148  69.702  1.00  0.00    -0.025 C  
HETATM   10  O   UNL     1      -5.142   5.395  69.340  1.00  0.00    -0.003 OA 
BRANCH   9  11
HETATM   11  O   UNL     1      -6.193   6.619  70.966  1.00  0.00    -0.038 OA 
BRANCH  11  12
HETATM   12  C   UNL     1      -7.125   5.866  71.764  1.00  0.00    -0.085 C  
BRANCH  12  13
HETATM   13  C   UNL     1      -8.455   6.577  71.826  1.00  0.00    -0.123 A  
HETATM   14  C   UNL     1      -9.654   5.869  71.674  1.00  0.00    -0.173 A  
HETATM   15  C   UNL     1     -10.872   6.547  71.578  1.00  0.00    -0.288 A  
HETATM   16  C   UNL     1     -10.911   7.947  71.631  1.00  0.00    -0.280 A  
HETATM   17  C   UNL     1      -9.721   8.643  71.893  1.00  0.00    -0.383 A  
HETATM   18  C   UNL     1     -12.225   8.677  71.363  1.00  0.00    -0.348 C  
HETATM   19  C   UNL     1      -8.503   7.967  71.969  1.00  0.00    -0.169 A  
HETATM   20  C   UNL     1     -12.009  10.035  70.665  1.00  0.00    -0.313 C  
HETATM   21  C   UNL     1     -13.032   8.849  72.670  1.00  0.00    -0.269 C  
HETATM   22  O   UNL     1     -12.365  11.084  71.201  1.00  0.00    -0.361 OA 
HETATM   23  N   UNL     1     -14.361   9.443  72.461  1.00  0.00    -0.632 NA 
HETATM   24  N   UNL     1     -11.366   9.951  69.434  1.00  0.00    -0.416 N  
HETATM   25  H1  UNL     1     -14.894   9.557  73.323  1.00  0.00     0.000 HD 
HETATM   26  H2  UNL     1     -14.893   8.908  71.774  1.00  0.00     0.000 HD 
HETATM   27  H   UNL     1     -11.081   9.024  69.117  1.00  0.00     0.000 HD 
BRANCH  24  28
HETATM   28  C   UNL     1     -11.074  11.046  68.586  1.00  0.00    -0.240 A  
HETATM   29  C   UNL     1     -11.892  11.403  67.512  1.00  0.00    -0.105 A  
HETATM   30  C   UNL     1     -11.597  12.512  66.719  1.00  0.00    -0.446 A  
HETATM   31  C   UNL     1     -10.460  13.284  66.977  1.00  0.00    -0.249 A  
HETATM   32  C   UNL     1     -10.133  14.409  66.216  1.00  0.00    -0.297 A  
HETATM   33  N   UNL     1      -9.038  15.175  66.414  1.00  0.00    -0.294 NA 
HETATM   34  C   UNL     1      -8.224  14.805  67.424  1.00  0.00    -0.196 A  
HETATM   35  C   UNL     1      -8.457  13.714  68.250  1.00  0.00    -0.170 A  
HETATM   36  C   UNL     1      -9.598  12.927  68.033  1.00  0.00    -0.221 A  
HETATM   37  C   UNL     1      -9.916  11.802  68.829  1.00  0.00    -0.128 A  
ENDBRANCH  24  28
ENDBRANCH  12  13
ENDBRANCH  11  12
ENDBRANCH   9  11
ENDBRANCH   6   9
TORSDOF 5
ENDMDL
MODEL       55
REMARK 921   NORMALIZED FREE ENERGY PREDICTED BY IDOCK:   -5.90 KCAL/MOL
REMARK 922        TOTAL FREE ENERGY PREDICTED BY IDOCK:   -9.85 KCAL/MOL
REMARK 923 INTER-LIGAND FREE ENERGY PREDICTED BY IDOCK:   -7.91 KCAL/MOL
REMARK 924 INTRA-LIGAND FREE ENERGY PREDICTED BY IDOCK:   -1.95 KCAL/MOL
REMARK 927      BINDING AFFINITY PREDICTED BY RF-SCORE:    0.00 PKD
ROOT
HETATM    1  C   UNL     1     -12.395  13.588  63.243  1.00  0.00    -0.150 C  
HETATM    2  C   UNL     1     -11.296  12.695  63.743  1.00  0.00    -0.529 A  
HETATM    3  C   UNL     1     -10.754  11.706  62.915  1.00  0.00     0.006 A  
HETATM    4  C   UNL     1      -9.762  10.823  63.380  1.00  0.00    -0.394 A  
HETATM    5  C   UNL     1      -9.239   9.776  62.432  1.00  0.00    -0.294 C  
HETATM    6  C   UNL     1      -9.306  10.939  64.710  1.00  0.00    -0.259 A  
HETATM    7  C   UNL     1      -9.835  11.945  65.535  1.00  0.00    -0.257 A  
HETATM    8  C   UNL     1     -10.823  12.814  65.054  1.00  0.00    -0.319 A  
ENDROOT
BRANCH   6   9
HETATM    9  C   UNL     1      -8.310   9.963  65.256  1.00  0.00    -0.149 C  
HETATM   10  O   UNL     1      -7.106  10.163  65.273  1.00  0.00    -0.127 OA 
BRANCH   9  11
HETATM   11  O   UNL     1      -8.927   8.855  65.740  1.00  0.00    -0.178 OA 
BRANCH  11  12
HETATM   12  C   UNL     1      -8.749   8.649  67.154  1.00  0.00    -0.128 C  
BRANCH  12  13
HETATM   13  C   UNL     1      -9.604   9.616  67.935  1.00  0.00    -0.159 A  
HETATM   14  C   UNL     1     -10.998   9.615  67.796  1.00  0.00    -0.203 A  
HETATM   15  C   UNL     1     -11.773  10.608  68.399  1.00  0.00    -0.168 A  
HETATM   16  C   UNL     1     -11.167  11.624  69.152  1.00  0.00    -0.325 A  
HETATM   17  C   UNL     1      -9.783  11.557  69.377  1.00  0.00     0.426 A  
HETATM   18  C   UNL     1     -12.009  12.789  69.667  1.00  0.00    -0.354 C  
HETATM   19  C   UNL     1      -9.007  10.576  68.758  1.00  0.00    -0.166 A  
HETATM   20  C   UNL     1     -11.215  14.110  69.710  1.00  0.00    -0.152 C  
HETATM   21  C   UNL     1     -12.610  12.458  71.052  1.00  0.00    -0.254 C  
HETATM   22  O   UNL     1     -11.037  14.704  70.774  1.00  0.00    -0.118 OA 
HETATM   23  N   UNL     1     -13.526  13.495  71.552  1.00  0.00    -0.288 NA 
HETATM   24  N   UNL     1     -10.717  14.520  68.478  1.00  0.00    -0.243 N  
HETATM   25  H1  UNL     1     -13.924  13.277  72.466  1.00  0.00     0.000 HD 
HETATM   26  H2  UNL     1     -14.263  13.685  70.872  1.00  0.00     0.000 HD 
HETATM   27  H   UNL     1     -10.897  13.916  67.676  1.00  0.00     0.000 HD 
BRANCH  24  28
HETATM   28  C   UNL     1      -9.981  15.707  68.247  1.00  0.00    -0.213 A  
HETATM   29  C   UNL     1      -8.591  15.764  68.366  1.00  0.00    -0.171 A  
HETATM   30  C   UNL     1      -7.892  16.940  68.093  1.00  0.00    -0.189 A  
HETATM   31  C   UNL     1      -8.576  18.097  67.707  1.00  0.00    -0.258 A  
HETATM   32  C   UNL     1      -7.915  19.292  67.413  1.00  0.00    -0.264 A  
HETATM   33  N   UNL     1      -8.533  20.439  67.054  1.00  0.00    -0.309 NA 
HETATM   34  C   UNL     1      -9.878  20.397  66.982  1.00  0.00    -0.453 A  
HETATM   35  C   UNL     1     -10.636  19.262  67.241  1.00  0.00    -0.590 A  
HETATM   36  C   UNL     1      -9.982  18.077  67.612  1.00  0.00    -0.332 A  
HETATM   37  C   UNL     1     -10.673  16.875  67.889  1.00  0.00    -0.344 A  
ENDBRANCH  24  28
ENDBRANCH  12  13
ENDBRANCH  11  12
ENDBRANCH   9  11
ENDBRANCH   6   9
TORSDOF 5
ENDMDL
MODEL       56
REMARK 921   NORMALIZED FREE ENERGY PREDICTED BY IDOCK:   -5.83 KCAL/MOL
REMARK 922        TOTAL FREE ENERGY PREDICTED BY IDOCK:   -9.76 KCAL/MOL
REMARK 923 INTER-LIGAND FREE ENERGY PREDICTED BY IDOCK:   -7.60 KCAL/MOL
REMARK 924 INTRA-LIGAND FREE ENERGY PREDICTED BY IDOCK:   -2.16 KCAL/MOL
REMARK 927      BINDING AFFINITY PREDICTED BY RF-SCORE:    0.00 PKD
ROOT
HETATM    1  C   UNL     1     -11.871   9.913  71.022  1.00  0.00    -0.463 C  
HETATM    2  C   UNL     1     -11.340   8.539  70.733  1.00  0.00    -0.296 A  
HETATM    3  C   UNL     1     -11.367   7.546  71.719  1.00  0.00    -0.289 A  
HETATM    4  C   UNL     1     -10.826   6.268  71.489  1.00  0.00    -0.303 A  
HETATM    5  C   UNL     1     -10.882   5.260  72.605  1.00  0.00    -0.307 C  
HETATM    6  C   UNL     1     -10.243   5.984  70.236  1.00  0.00    -0.266 A  
HETATM    7  C   UNL     1     -10.234   6.974  69.239  1.00  0.00    -0.193 A  
HETATM    8  C   UNL     1     -10.777   8.241  69.488  1.00  0.00    -0.179 A  
ENDROOT
BRANCH   6   9
HETATM    9  C   UNL     1      -9.589   4.660  69.990  1.00  0.00    -0.188 C  
HETATM   10  O   UNL     1      -9.909   3.904  69.087  1.00  0.00    -0.133 OA 
BRANCH   9  11
HETATM   11  O   UNL     1      -8.591   4.435  70.883  1.00  0.00    -0.089 OA 
BRANCH  11  12
HETATM   12  C   UNL     1      -7.275   4.757  70.394  1.00  0.00    -0.050 C  
BRANCH  12  13
HETATM   13  C   UNL     1      -7.066   6.251  70.402  1.00  0.00    -0.071 A  
HETATM   14  C   UNL     1      -7.307   7.004  71.558  1.00  0.00    -0.080 A  
HETATM   15  C   UNL     1      -7.262   8.399  71.521  1.00  0.00    -0.093 A  
HETATM   16  C   UNL     1      -6.976   9.069  70.323  1.00  0.00    -0.052 A  
HETATM   17  C   UNL     1      -6.629   8.309  69.195  1.00  0.00    -0.043 A  
HETATM   18  C   UNL     1      -7.090  10.590  70.261  1.00  0.00     0.018 C  
HETATM   19  C   UNL     1      -6.693   6.915  69.229  1.00  0.00    -0.050 A  
HETATM   20  C   UNL     1      -7.558  11.087  68.879  1.00  0.00    -0.134 C  
HETATM   21  C   UNL     1      -5.755  11.256  70.666  1.00  0.00    -0.123 C  
HETATM   22  O   UNL     1      -6.847  11.829  68.201  1.00  0.00    -0.061 OA 
HETATM   23  N   UNL     1      -5.833  12.723  70.738  1.00  0.00    -0.426 NA 
HETATM   24  N   UNL     1      -8.800  10.599  68.484  1.00  0.00    -0.141 N  
HETATM   25  H1  UNL     1      -4.952  13.162  71.005  1.00  0.00     0.000 HD 
HETATM   26  H2  UNL     1      -6.587  13.014  71.360  1.00  0.00     0.000 HD 
HETATM   27  H   UNL     1      -9.272   9.955  69.118  1.00  0.00     0.000 HD 
BRANCH  24  28
HETATM   28  C   UNL     1      -9.460  10.924  67.275  1.00  0.00    -0.159 A  
HETATM   29  C   UNL     1      -9.219  10.242  66.081  1.00  0.00    -0.192 A  
HETATM   30  C   UNL     1      -9.916  10.561  64.915  1.00  0.00    -0.401 A  
HETATM   31  C   UNL     1     -10.865  11.588  64.917  1.00  0.00    -0.345 A  
HETATM   32  C   UNL     1     -11.594  11.933  63.776  1.00  0.00    -0.462 A  
HETATM   33  N   UNL     1     -12.507  12.927  63.723  1.00  0.00    -0.693 NA 
HETATM   34  C   UNL     1     -12.709  13.615  64.865  1.00  0.00    -0.271 A  
HETATM   35  C   UNL     1     -12.050  13.351  66.059  1.00  0.00    -0.487 A  
HETATM   36  C   UNL     1     -11.104  12.316  66.100  1.00  0.00    -0.349 A  
HETATM   37  C   UNL     1     -10.392  11.975  67.272  1.00  0.00    -0.232 A  
ENDBRANCH  24  28
ENDBRANCH  12  13
ENDBRANCH  11  12
ENDBRANCH   9  11
ENDBRANCH   6   9
TORSDOF 5
ENDMDL
MODEL       57
REMARK 921   NORMALIZED FREE ENERGY PREDICTED BY IDOCK:   -5.82 KCAL/MOL
REMARK 922        TOTAL FREE ENERGY PREDICTED BY IDOCK:   -9.75 KCAL/MOL
REMARK 923 INTER-LIGAND FREE ENERGY PREDICTED BY IDOCK:   -8.08 KCAL/MOL
REMARK 924 INTRA-LIGAND FREE ENERGY PREDICTED BY IDOCK:   -1.67 KCAL/MOL
REMARK 927      BINDING AFFINITY PREDICTED BY RF-SCORE:    0.00 PKD
ROOT
HETATM    1  C   UNL     1     -11.788  12.202  69.004  1.00  0.00    -0.361 C  
HETATM    2  C   UNL     1     -11.288  10.898  69.554  1.00  0.00    -0.351 A  
HETATM    3  C   UNL     1     -10.123  10.313  69.045  1.00  0.00    -0.225 A  
HETATM    4  C   UNL     1      -9.666   9.066  69.507  1.00  0.00    -0.171 A  
HETATM    5  C   UNL     1      -8.412   8.496  68.899  1.00  0.00    -0.123 C  
HETATM    6  C   UNL     1     -10.401   8.391  70.506  1.00  0.00    -0.220 A  
HETATM    7  C   UNL     1     -11.559   8.987  71.032  1.00  0.00    -0.360 A  
HETATM    8  C   UNL     1     -11.998  10.230  70.557  1.00  0.00    -0.415 A  
ENDROOT
BRANCH   6   9
HETATM    9  C   UNL     1      -9.983   7.027  70.960  1.00  0.00    -0.188 C  
HETATM   10  O   UNL     1      -9.064   6.824  71.738  1.00  0.00    -0.141 OA 
BRANCH   9  11
HETATM   11  O   UNL     1     -10.771   6.067  70.412  1.00  0.00    -0.246 OA 
BRANCH  11  12
HETATM   12  C   UNL     1     -10.069   4.867  70.037  1.00  0.00    -0.266 C  
BRANCH  12  13
HETATM   13  C   UNL     1      -9.326   5.081  68.741  1.00  0.00    -0.175 A  
HETATM   14  C   UNL     1      -7.925   5.108  68.712  1.00  0.00    -0.082 A  
HETATM   15  C   UNL     1      -7.245   5.458  67.544  1.00  0.00    -0.075 A  
HETATM   16  C   UNL     1      -7.953   5.789  66.381  1.00  0.00    -0.102 A  
HETATM   17  C   UNL     1      -9.350   5.654  66.385  1.00  0.00    -0.165 A  
HETATM   18  C   UNL     1      -7.202   6.324  65.164  1.00  0.00    -0.070 C  
HETATM   19  C   UNL     1     -10.030   5.323  67.558  1.00  0.00    -0.206 A  
HETATM   20  C   UNL     1      -8.033   7.350  64.368  1.00  0.00    -0.109 C  
HETATM   21  C   UNL     1      -6.735   5.164  64.255  1.00  0.00    -0.047 C  
HETATM   22  O   UNL     1      -8.336   7.141  63.193  1.00  0.00     0.006 OA 
HETATM   23  N   UNL     1      -5.905   5.607  63.125  1.00  0.00    -0.017 NA 
HETATM   24  N   UNL     1      -8.415   8.470  65.098  1.00  0.00    -0.185 N  
HETATM   25  H1  UNL     1      -5.597   4.841  62.525  1.00  0.00     0.000 HD 
HETATM   26  H2  UNL     1      -5.109   6.153  63.453  1.00  0.00     0.000 HD 
HETATM   27  H   UNL     1      -8.138   8.506  66.079  1.00  0.00     0.000 HD 
BRANCH  24  28
HETATM   28  C   UNL     1      -9.158   9.564  64.592  1.00  0.00    -0.210 A  
HETATM   29  C   UNL     1      -9.116   9.943  63.249  1.00  0.00    -0.294 A  
HETATM   30  C   UNL     1      -9.890  11.001  62.774  1.00  0.00    -0.262 A  
HETATM   31  C   UNL     1     -10.717  11.719  63.643  1.00  0.00    -0.503 A  
HETATM   32  C   UNL     1     -11.517  12.778  63.209  1.00  0.00    -0.251 A  
HETATM   33  N   UNL     1     -12.318  13.512  64.012  1.00  0.00    -0.662 NA 
HETATM   34  C   UNL     1     -12.325  13.176  65.318  1.00  0.00    -0.481 A  
HETATM   35  C   UNL     1     -11.580  12.135  65.857  1.00  0.00    -0.425 A  
HETATM   36  C   UNL     1     -10.753  11.381  65.011  1.00  0.00    -0.340 A  
HETATM   37  C   UNL     1      -9.965  10.302  65.473  1.00  0.00    -0.364 A  
ENDBRANCH  24  28
ENDBRANCH  12  13
ENDBRANCH  11  12
ENDBRANCH   9  11
ENDBRANCH   6   9
TORSDOF 5
ENDMDL
MODEL       58
REMARK 921   NORMALIZED FREE ENERGY PREDICTED BY IDOCK:   -5.82 KCAL/MOL
REMARK 922        TOTAL FREE ENERGY PREDICTED BY IDOCK:   -9.74 KCAL/MOL
REMARK 923 INTER-LIGAND FREE ENERGY PREDICTED BY IDOCK:   -8.60 KCAL/MOL
REMARK 924 INTRA-LIGAND FREE ENERGY PREDICTED BY IDOCK:   -1.14 KCAL/MOL
REMARK 927      BINDING AFFINITY PREDICTED BY RF-SCORE:    0.00 PKD
ROOT
HETATM    1  C   UNL     1     -10.588  20.202  65.887  1.00  0.00    -0.374 C  
HETATM    2  C   UNL     1      -9.600  19.366  66.646  1.00  0.00    -0.429 A  
HETATM    3  C   UNL     1      -8.779  19.947  67.620  1.00  0.00    -0.395 A  
HETATM    4  C   UNL     1      -7.808  19.195  68.305  1.00  0.00    -0.351 A  
HETATM    5  C   UNL     1      -6.955  19.896  69.328  1.00  0.00    -0.304 C  
HETATM    6  C   UNL     1      -7.660  17.824  68.002  1.00  0.00    -0.236 A  
HETATM    7  C   UNL     1      -8.497  17.236  67.039  1.00  0.00    -0.240 A  
HETATM    8  C   UNL     1      -9.457  18.003  66.367  1.00  0.00    -0.280 A  
ENDROOT
BRANCH   6   9
HETATM    9  C   UNL     1      -6.582  17.018  68.657  1.00  0.00    -0.177 C  
HETATM   10  O   UNL     1      -5.433  16.964  68.247  1.00  0.00    -0.115 OA 
BRANCH   9  11
HETATM   11  O   UNL     1      -7.049  16.385  69.765  1.00  0.00    -0.108 OA 
BRANCH  11  12
HETATM   12  C   UNL     1      -7.044  14.948  69.672  1.00  0.00    -0.179 C  
BRANCH  12  13
HETATM   13  C   UNL     1      -8.171  14.478  68.785  1.00  0.00    -0.146 A  
HETATM   14  C   UNL     1      -9.505  14.600  69.196  1.00  0.00    -0.070 A  
HETATM   15  C   UNL     1     -10.534  14.027  68.446  1.00  0.00    -0.254 A  
HETATM   16  C   UNL     1     -10.248  13.319  67.270  1.00  0.00    -0.240 A  
HETATM   17  C   UNL     1      -8.923  13.295  66.808  1.00  0.00    -0.183 A  
HETATM   18  C   UNL     1     -11.363  12.564  66.552  1.00  0.00    -0.387 C  
HETATM   19  C   UNL     1      -7.893  13.851  67.567  1.00  0.00    -0.193 A  
HETATM   20  C   UNL     1     -10.855  11.276  65.872  1.00  0.00    -0.202 C  
HETATM   21  C   UNL     1     -12.078  13.482  65.534  1.00  0.00    -0.419 C  
HETATM   22  O   UNL     1     -10.946  11.127  64.653  1.00  0.00    -0.281 OA 
HETATM   23  N   UNL     1     -13.238  12.846  64.890  1.00  0.00    -0.728 NA 
HETATM   24  N   UNL     1     -10.277  10.358  66.743  1.00  0.00    -0.217 N  
HETATM   25  H1  UNL     1     -13.710  13.452  64.219  1.00  0.00     0.000 HD 
HETATM   26  H2  UNL     1     -13.895  12.500  65.590  1.00  0.00     0.000 HD 
HETATM   27  H   UNL     1     -10.222  10.618  67.728  1.00  0.00     0.000 HD 
BRANCH  24  28
HETATM   28  C   UNL     1      -9.759   9.094  66.374  1.00  0.00    -0.262 A  
HETATM   29  C   UNL     1      -8.695   8.948  65.481  1.00  0.00    -0.215 A  
HETATM   30  C   UNL     1      -8.184   7.689  65.168  1.00  0.00    -0.130 A  
HETATM   31  C   UNL     1      -8.740   6.538  65.735  1.00  0.00    -0.129 A  
HETATM   32  C   UNL     1      -8.252   5.259  65.458  1.00  0.00    -0.124 A  
HETATM   33  N   UNL     1      -8.767   4.117  65.966  1.00  0.00    -0.113 NA 
HETATM   34  C   UNL     1      -9.822   4.253  66.793  1.00  0.00    -0.205 A  
HETATM   35  C   UNL     1     -10.382   5.475  67.146  1.00  0.00    -0.301 A  
HETATM   36  C   UNL     1      -9.837   6.652  66.612  1.00  0.00    -0.208 A  
HETATM   37  C   UNL     1     -10.340   7.937  66.921  1.00  0.00    -0.400 A  
ENDBRANCH  24  28
ENDBRANCH  12  13
ENDBRANCH  11  12
ENDBRANCH   9  11
ENDBRANCH   6   9
TORSDOF 5
ENDMDL
MODEL       59
REMARK 921   NORMALIZED FREE ENERGY PREDICTED BY IDOCK:   -5.74 KCAL/MOL
REMARK 922        TOTAL FREE ENERGY PREDICTED BY IDOCK:   -9.64 KCAL/MOL
REMARK 923 INTER-LIGAND FREE ENERGY PREDICTED BY IDOCK:   -8.74 KCAL/MOL
REMARK 924 INTRA-LIGAND FREE ENERGY PREDICTED BY IDOCK:   -0.90 KCAL/MOL
REMARK 927      BINDING AFFINITY PREDICTED BY RF-SCORE:    0.00 PKD
ROOT
HETATM    1  C   UNL     1      -8.379  20.281  65.834  1.00  0.00    -0.026 C  
HETATM    2  C   UNL     1      -8.688  19.156  66.779  1.00  0.00    -0.322 A  
HETATM    3  C   UNL     1      -8.357  17.838  66.445  1.00  0.00    -0.281 A  
HETATM    4  C   UNL     1      -8.686  16.762  67.290  1.00  0.00    -0.214 A  
HETATM    5  C   UNL     1      -8.308  15.372  66.853  1.00  0.00    -0.290 C  
HETATM    6  C   UNL     1      -9.366  17.021  68.499  1.00  0.00    -0.265 A  
HETATM    7  C   UNL     1      -9.681  18.346  68.844  1.00  0.00    -0.318 A  
HETATM    8  C   UNL     1      -9.346  19.403  67.988  1.00  0.00    -0.402 A  
ENDROOT
BRANCH   6   9
HETATM    9  C   UNL     1      -9.800  15.890  69.378  1.00  0.00    -0.280 C  
HETATM   10  O   UNL     1      -9.046  15.283  70.122  1.00  0.00     0.058 OA 
BRANCH   9  11
HETATM   11  O   UNL     1     -11.132  15.654  69.251  1.00  0.00    -0.253 OA 
BRANCH  11  12
HETATM   12  C   UNL     1     -11.455  14.513  68.435  1.00  0.00    -0.302 C  
BRANCH  12  13
HETATM   13  C   UNL     1     -11.927  13.369  69.299  1.00  0.00    -0.367 A  
HETATM   14  C   UNL     1     -12.443  13.603  70.580  1.00  0.00    -0.417 A  
HETATM   15  C   UNL     1     -12.734  12.538  71.435  1.00  0.00    -0.345 A  
HETATM   16  C   UNL     1     -12.513  11.216  71.024  1.00  0.00    -0.506 A  
HETATM   17  C   UNL     1     -12.100  10.985  69.702  1.00  0.00    -0.411 A  
HETATM   18  C   UNL     1     -12.682  10.075  72.023  1.00  0.00    -0.439 C  
HETATM   19  C   UNL     1     -11.791  12.050  68.856  1.00  0.00    -0.356 A  
HETATM   20  C   UNL     1     -11.698   8.917  71.762  1.00  0.00    -0.362 C  
HETATM   21  C   UNL     1     -14.143   9.568  72.033  1.00  0.00    -0.108 C  
HETATM   22  O   UNL     1     -12.109   7.788  71.493  1.00  0.00    -0.290 OA 
HETATM   23  N   UNL     1     -14.398   8.545  73.059  1.00  0.00    -0.982 NA 
HETATM   24  N   UNL     1     -10.357   9.279  71.826  1.00  0.00    -0.261 N  
HETATM   25  H1  UNL     1     -15.362   8.211  73.066  1.00  0.00     0.000 HD 
HETATM   26  H2  UNL     1     -14.125   8.883  73.982  1.00  0.00     0.000 HD 
HETATM   27  H   UNL     1     -10.145  10.259  72.015  1.00  0.00     0.000 HD 
BRANCH  24  28
HETATM   28  C   UNL     1      -9.262   8.399  71.651  1.00  0.00    -0.206 A  
HETATM   29  C   UNL     1      -8.869   7.929  70.396  1.00  0.00    -0.142 A  
HETATM   30  C   UNL     1      -7.761   7.094  70.253  1.00  0.00    -0.095 A  
HETATM   31  C   UNL     1      -7.026   6.696  71.374  1.00  0.00    -0.075 A  
HETATM   32  C   UNL     1      -5.904   5.870  71.276  1.00  0.00    -0.025 A  
HETATM   33  N   UNL     1      -5.173   5.443  72.330  1.00  0.00    -0.015 NA 
HETATM   34  C   UNL     1      -5.578   5.860  73.546  1.00  0.00    -0.036 A  
HETATM   35  C   UNL     1      -6.671   6.691  73.760  1.00  0.00    -0.072 A  
HETATM   36  C   UNL     1      -7.421   7.126  72.657  1.00  0.00    -0.084 A  
HETATM   37  C   UNL     1      -8.544   7.976  72.781  1.00  0.00    -0.252 A  
ENDBRANCH  24  28
ENDBRANCH  12  13
ENDBRANCH  11  12
ENDBRANCH   9  11
ENDBRANCH   6   9
TORSDOF 5
ENDMDL
MODEL       60
REMARK 921   NORMALIZED FREE ENERGY PREDICTED BY IDOCK:   -5.73 KCAL/MOL
REMARK 922        TOTAL FREE ENERGY PREDICTED BY IDOCK:   -9.63 KCAL/MOL
REMARK 923 INTER-LIGAND FREE ENERGY PREDICTED BY IDOCK:   -8.54 KCAL/MOL
REMARK 924 INTRA-LIGAND FREE ENERGY PREDICTED BY IDOCK:   -1.08 KCAL/MOL
REMARK 927      BINDING AFFINITY PREDICTED BY RF-SCORE:    0.00 PKD
ROOT
HETATM    1  C   UNL     1     -11.707   6.531  71.550  1.00  0.00    -0.376 C  
HETATM    2  C   UNL     1     -10.570   6.709  70.586  1.00  0.00    -0.268 A  
HETATM    3  C   UNL     1     -10.750   6.454  69.222  1.00  0.00    -0.349 A  
HETATM    4  C   UNL     1      -9.685   6.561  68.309  1.00  0.00    -0.131 A  
HETATM    5  C   UNL     1      -9.956   6.257  66.860  1.00  0.00    -0.215 C  
HETATM    6  C   UNL     1      -8.408   6.932  68.782  1.00  0.00    -0.121 A  
HETATM    7  C   UNL     1      -8.232   7.207  70.148  1.00  0.00    -0.135 A  
HETATM    8  C   UNL     1      -9.305   7.094  71.042  1.00  0.00    -0.158 A  
ENDROOT
BRANCH   6   9
HETATM    9  C   UNL     1      -7.240   6.976  67.847  1.00  0.00    -0.091 C  
HETATM   10  O   UNL     1      -6.744   5.983  67.337  1.00  0.00    -0.057 OA 
BRANCH   9  11
HETATM   11  O   UNL     1      -6.832   8.253  67.633  1.00  0.00    -0.067 OA 
BRANCH  11  12
HETATM   12  C   UNL     1      -6.552   8.562  66.255  1.00  0.00    -0.061 C  
BRANCH  12  13
HETATM   13  C   UNL     1      -7.647   9.428  65.681  1.00  0.00    -0.095 A  
HETATM   14  C   UNL     1      -7.781   9.591  64.296  1.00  0.00    -0.124 A  
HETATM   15  C   UNL     1      -8.693  10.510  63.774  1.00  0.00    -0.185 A  
HETATM   16  C   UNL     1      -9.490  11.285  64.629  1.00  0.00    -0.215 A  
HETATM   17  C   UNL     1      -9.429  11.038  66.009  1.00  0.00    -0.235 A  
HETATM   18  C   UNL     1     -10.362  12.396  64.049  1.00  0.00    -0.435 C  
HETATM   19  C   UNL     1      -8.504  10.134  66.531  1.00  0.00    -0.128 A  
HETATM   20  C   UNL     1     -10.496  13.596  65.008  1.00  0.00    -0.391 C  
HETATM   21  C   UNL     1     -11.752  11.848  63.651  1.00  0.00    -0.474 C  
HETATM   22  O   UNL     1     -11.596  13.938  65.441  1.00  0.00    -0.312 OA 
HETATM   23  N   UNL     1     -12.601  12.845  62.979  1.00  0.00    -0.605 NA 
HETATM   24  N   UNL     1      -9.288  14.200  65.342  1.00  0.00    -0.330 N  
HETATM   25  H1  UNL     1     -13.517  12.483  62.716  1.00  0.00     0.000 HD 
HETATM   26  H2  UNL     1     -12.122  13.241  62.171  1.00  0.00     0.000 HD 
HETATM   27  H   UNL     1      -8.438  13.794  64.951  1.00  0.00     0.000 HD 
BRANCH  24  28
HETATM   28  C   UNL     1      -9.143  15.331  66.181  1.00  0.00    -0.279 A  
HETATM   29  C   UNL     1      -8.403  15.298  67.365  1.00  0.00    -0.202 A  
HETATM   30  C   UNL     1      -8.247  16.441  68.148  1.00  0.00    -0.170 A  
HETATM   31  C   UNL     1      -8.846  17.647  67.770  1.00  0.00    -0.240 A  
HETATM   32  C   UNL     1      -8.706  18.817  68.519  1.00  0.00    -0.346 A  
HETATM   33  N   UNL     1      -9.279  20.000  68.204  1.00  0.00    -0.277 NA 
HETATM   34  C   UNL     1     -10.030  20.021  67.085  1.00  0.00    -0.441 A  
HETATM   35  C   UNL     1     -10.228  18.922  66.260  1.00  0.00    -0.491 A  
HETATM   36  C   UNL     1      -9.627  17.700  66.598  1.00  0.00    -0.301 A  
HETATM   37  C   UNL     1      -9.770  16.532  65.814  1.00  0.00    -0.237 A  
ENDBRANCH  24  28
ENDBRANCH  12  13
ENDBRANCH  11  12
ENDBRANCH   9  11
ENDBRANCH   6   9
TORSDOF 5
ENDMDL
MODEL       61
REMARK 921   NORMALIZED FREE ENERGY PREDICTED BY IDOCK:   -5.68 KCAL/MOL
REMARK 922        TOTAL FREE ENERGY PREDICTED BY IDOCK:   -9.56 KCAL/MOL
REMARK 923 INTER-LIGAND FREE ENERGY PREDICTED BY IDOCK:   -7.99 KCAL/MOL
REMARK 924 INTRA-LIGAND FREE ENERGY PREDICTED BY IDOCK:   -1.57 KCAL/MOL
REMARK 927      BINDING AFFINITY PREDICTED BY RF-SCORE:    0.00 PKD
ROOT
HETATM    1  C   UNL     1     -12.224  14.319  69.103  1.00  0.00    -0.272 C  
HETATM    2  C   UNL     1     -11.686  13.318  68.122  1.00  0.00    -0.397 A  
HETATM    3  C   UNL     1     -11.178  13.737  66.887  1.00  0.00    -0.326 A  
HETATM    4  C   UNL     1     -10.719  12.814  65.931  1.00  0.00    -0.294 A  
HETATM    5  C   UNL     1     -10.201  13.343  64.620  1.00  0.00    -0.338 C  
HETATM    6  C   UNL     1     -10.774  11.434  66.225  1.00  0.00    -0.322 A  
HETATM    7  C   UNL     1     -11.265  11.014  67.473  1.00  0.00    -0.372 A  
HETATM    8  C   UNL     1     -11.718  11.950  68.412  1.00  0.00    -0.387 A  
ENDROOT
BRANCH   6   9
HETATM    9  C   UNL     1     -10.368  10.426  65.197  1.00  0.00    -0.190 C  
HETATM   10  O   UNL     1     -10.338  10.656  63.998  1.00  0.00    -0.339 OA 
BRANCH   9  11
HETATM   11  O   UNL     1     -10.022   9.247  65.777  1.00  0.00    -0.299 OA 
BRANCH  11  12
HETATM   12  C   UNL     1      -8.602   9.024  65.861  1.00  0.00    -0.154 C  
BRANCH  12  13
HETATM   13  C   UNL     1      -7.998   9.900  66.931  1.00  0.00    -0.109 A  
HETATM   14  C   UNL     1      -8.331   9.720  68.279  1.00  0.00    -0.106 A  
HETATM   15  C   UNL     1      -7.893  10.627  69.247  1.00  0.00    -0.140 A  
HETATM   16  C   UNL     1      -7.113  11.733  68.883  1.00  0.00    -0.114 A  
HETATM   17  C   UNL     1      -6.692  11.847  67.549  1.00  0.00    -0.111 A  
HETATM   18  C   UNL     1      -6.780  12.799  69.924  1.00  0.00     0.246 C  
HETATM   19  C   UNL     1      -7.146  10.952  66.580  1.00  0.00    -0.139 A  
HETATM   20  C   UNL     1      -6.689  14.210  69.309  1.00  0.00    -0.122 C  
HETATM   21  C   UNL     1      -5.478  12.439  70.678  1.00  0.00    -0.169 C  
HETATM   22  O   UNL     1      -5.642  14.855  69.360  1.00  0.00    -0.094 OA 
HETATM   23  N   UNL     1      -5.164  13.368  71.774  1.00  0.00    -0.240 NA 
HETATM   24  N   UNL     1      -7.857  14.641  68.689  1.00  0.00    -0.132 N  
HETATM   25  H1  UNL     1      -4.306  13.130  72.272  1.00  0.00     0.000 HD 
HETATM   26  H2  UNL     1      -5.949  13.443  72.421  1.00  0.00     0.000 HD 
HETATM   27  H   UNL     1      -8.646  13.995  68.676  1.00  0.00     0.000 HD 
BRANCH  24  28
HETATM   28  C   UNL     1      -8.040  15.903  68.074  1.00  0.00    -0.141 A  
HETATM   29  C   UNL     1      -7.435  16.243  66.863  1.00  0.00    -0.271 A  
HETATM   30  C   UNL     1      -7.667  17.481  66.264  1.00  0.00    -0.334 A  
HETATM   31  C   UNL     1      -8.504  18.418  66.877  1.00  0.00    -0.272 A  
HETATM   32  C   UNL     1      -8.773  19.665  66.307  1.00  0.00    -0.369 A  
HETATM   33  N   UNL     1      -9.559  20.609  66.870  1.00  0.00    -0.349 NA 
HETATM   34  C   UNL     1     -10.109  20.299  68.061  1.00  0.00    -0.311 A  
HETATM   35  C   UNL     1      -9.919  19.087  68.712  1.00  0.00    -0.475 A  
HETATM   36  C   UNL     1      -9.101  18.115  68.117  1.00  0.00    -0.298 A  
HETATM   37  C   UNL     1      -8.857  16.853  68.707  1.00  0.00    -0.255 A  
ENDBRANCH  24  28
ENDBRANCH  12  13
ENDBRANCH  11  12
ENDBRANCH   9  11
ENDBRANCH   6   9
TORSDOF 5
ENDMDL
MODEL       62
REMARK 921   NORMALIZED FREE ENERGY PREDICTED BY IDOCK:   -5.67 KCAL/MOL
REMARK 922        TOTAL FREE ENERGY PREDICTED BY IDOCK:   -9.56 KCAL/MOL
REMARK 923 INTER-LIGAND FREE ENERGY PREDICTED BY IDOCK:   -7.52 KCAL/MOL
REMARK 924 INTRA-LIGAND FREE ENERGY PREDICTED BY IDOCK:   -2.04 KCAL/MOL
REMARK 927      BINDING AFFINITY PREDICTED BY RF-SCORE:    0.00 PKD
ROOT
HETATM    1  C   UNL     1      -6.355   6.202  69.243  1.00  0.00    -0.041 C  
HETATM    2  C   UNL     1      -7.628   6.074  70.028  1.00  0.00    -0.087 A  
HETATM    3  C   UNL     1      -8.868   6.122  69.381  1.00  0.00    -0.126 A  
HETATM    4  C   UNL     1     -10.075   6.059  70.101  1.00  0.00    -0.249 A  
HETATM    5  C   UNL     1     -11.368   6.131  69.333  1.00  0.00    -0.401 C  
HETATM    6  C   UNL     1     -10.031   5.946  71.507  1.00  0.00    -0.221 A  
HETATM    7  C   UNL     1      -8.787   5.878  72.155  1.00  0.00    -0.136 A  
HETATM    8  C   UNL     1      -7.596   5.943  71.420  1.00  0.00    -0.098 A  
ENDROOT
BRANCH   6   9
HETATM    9  C   UNL     1     -11.297   5.958  72.306  1.00  0.00    -0.298 C  
HETATM   10  O   UNL     1     -11.561   5.135  73.169  1.00  0.00    -0.316 OA 
BRANCH   9  11
HETATM   11  O   UNL     1     -12.085   7.007  71.958  1.00  0.00    -0.302 OA 
BRANCH  11  12
HETATM   12  C   UNL     1     -11.751   8.243  72.617  1.00  0.00    -0.337 C  
BRANCH  12  13
HETATM   13  C   UNL     1     -11.461   9.317  71.597  1.00  0.00    -0.468 A  
HETATM   14  C   UNL     1     -12.471  10.186  71.164  1.00  0.00    -0.490 A  
HETATM   15  C   UNL     1     -12.241  11.076  70.112  1.00  0.00    -0.424 A  
HETATM   16  C   UNL     1     -10.994  11.111  69.471  1.00  0.00    -0.276 A  
HETATM   17  C   UNL     1      -9.955  10.316  69.981  1.00  0.00    -0.123 A  
HETATM   18  C   UNL     1     -10.810  11.970  68.223  1.00  0.00    -0.263 C  
HETATM   19  C   UNL     1     -10.192   9.414  71.019  1.00  0.00    -0.369 A  
HETATM   20  C   UNL     1      -9.818  11.343  67.223  1.00  0.00    -0.189 C  
HETATM   21  C   UNL     1     -10.379  13.405  68.605  1.00  0.00    -0.205 C  
HETATM   22  O   UNL     1      -8.783  11.931  66.907  1.00  0.00    -0.180 OA 
HETATM   23  N   UNL     1     -10.296  14.314  67.452  1.00  0.00    -0.258 NA 
HETATM   24  N   UNL     1     -10.185  10.083  66.763  1.00  0.00    -0.227 N  
HETATM   25  H1  UNL     1     -10.013  15.261  67.704  1.00  0.00     0.000 HD 
HETATM   26  H2  UNL     1     -11.176  14.325  66.936  1.00  0.00     0.000 HD 
HETATM   27  H   UNL     1     -11.048   9.683  67.133  1.00  0.00     0.000 HD 
BRANCH  24  28
HETATM   28  C   UNL     1      -9.462   9.311  65.823  1.00  0.00    -0.262 A  
HETATM   29  C   UNL     1      -9.228   9.743  64.516  1.00  0.00    -0.310 A  
HETATM   30  C   UNL     1      -8.478   8.975  63.626  1.00  0.00    -0.173 A  
HETATM   31  C   UNL     1      -7.954   7.741  64.024  1.00  0.00    -0.104 A  
HETATM   32  C   UNL     1      -7.187   6.945  63.169  1.00  0.00    -0.069 A  
HETATM   33  N   UNL     1      -6.675   5.739  63.501  1.00  0.00    -0.036 NA 
HETATM   34  C   UNL     1      -6.937   5.301  64.748  1.00  0.00    -0.050 A  
HETATM   35  C   UNL     1      -7.677   6.013  65.683  1.00  0.00    -0.094 A  
HETATM   36  C   UNL     1      -8.203   7.264  65.326  1.00  0.00    -0.126 A  
HETATM   37  C   UNL     1      -8.962   8.058  66.216  1.00  0.00    -0.208 A  
ENDBRANCH  24  28
ENDBRANCH  12  13
ENDBRANCH  11  12
ENDBRANCH   9  11
ENDBRANCH   6   9
TORSDOF 5
ENDMDL
MODEL       63
REMARK 921   NORMALIZED FREE ENERGY PREDICTED BY IDOCK:   -5.66 KCAL/MOL
REMARK 922        TOTAL FREE ENERGY PREDICTED BY IDOCK:   -9.54 KCAL/MOL
REMARK 923 INTER-LIGAND FREE ENERGY PREDICTED BY IDOCK:   -8.67 KCAL/MOL
REMARK 924 INTRA-LIGAND FREE ENERGY PREDICTED BY IDOCK:   -0.86 KCAL/MOL
REMARK 927      BINDING AFFINITY PREDICTED BY RF-SCORE:    0.00 PKD
ROOT
HETATM    1  C   UNL     1     -11.490   7.507  72.932  1.00  0.00    -0.311 C  
HETATM    2  C   UNL     1     -11.589   8.602  71.910  1.00  0.00    -0.420 A  
HETATM    3  C   UNL     1     -10.456   9.011  71.197  1.00  0.00    -0.363 A  
HETATM    4  C   UNL     1     -10.513  10.071  70.274  1.00  0.00    -0.331 A  
HETATM    5  C   UNL     1      -9.248  10.460  69.557  1.00  0.00    -0.143 C  
HETATM    6  C   UNL     1     -11.741  10.735  70.065  1.00  0.00    -0.417 A  
HETATM    7  C   UNL     1     -12.882  10.312  70.765  1.00  0.00    -0.427 A  
HETATM    8  C   UNL     1     -12.804   9.255  71.681  1.00  0.00    -0.447 A  
ENDROOT
BRANCH   6   9
HETATM    9  C   UNL     1     -11.813  11.917  69.149  1.00  0.00    -0.311 C  
HETATM   10  O   UNL     1     -11.584  13.063  69.504  1.00  0.00    -0.283 OA 
BRANCH   9  11
HETATM   11  O   UNL     1     -12.142  11.540  67.887  1.00  0.00    -0.630 OA 
BRANCH  11  12
HETATM   12  C   UNL     1     -11.512  12.319  66.853  1.00  0.00    -0.356 C  
BRANCH  12  13
HETATM   13  C   UNL     1     -10.538  11.466  66.077  1.00  0.00    -0.319 A  
HETATM   14  C   UNL     1     -10.619  11.374  64.682  1.00  0.00    -0.380 A  
HETATM   15  C   UNL     1      -9.819  10.469  63.981  1.00  0.00    -0.387 A  
HETATM   16  C   UNL     1      -8.922   9.637  64.665  1.00  0.00    -0.274 A  
HETATM   17  C   UNL     1      -8.767   9.811  66.050  1.00  0.00    -0.156 A  
HETATM   18  C   UNL     1      -8.174   8.544  63.905  1.00  0.00    -0.128 C  
HETATM   19  C   UNL     1      -9.581  10.702  66.750  1.00  0.00    -0.200 A  
HETATM   20  C   UNL     1      -7.927   7.293  64.772  1.00  0.00    -0.122 C  
HETATM   21  C   UNL     1      -6.847   9.088  63.328  1.00  0.00    -0.089 C  
HETATM   22  O   UNL     1      -6.783   6.909  65.015  1.00  0.00    -0.048 OA 
HETATM   23  N   UNL     1      -6.135   8.114  62.487  1.00  0.00    -0.085 NA 
HETATM   24  N   UNL     1      -9.085   6.692  65.255  1.00  0.00    -0.338 N  
HETATM   25  H1  UNL     1      -5.260   8.474  62.106  1.00  0.00     0.000 HD 
HETATM   26  H2  UNL     1      -6.740   7.769  61.742  1.00  0.00     0.000 HD 
HETATM   27  H   UNL     1      -9.974   7.132  65.018  1.00  0.00     0.000 HD 
BRANCH  24  28
HETATM   28  C   UNL     1      -9.130   5.521  66.049  1.00  0.00    -0.156 A  
HETATM   29  C   UNL     1      -8.941   4.244  65.515  1.00  0.00    -0.132 A  
HETATM   30  C   UNL     1      -8.953   3.113  66.331  1.00  0.00    -0.158 A  
HETATM   31  C   UNL     1      -9.171   3.235  67.707  1.00  0.00    -0.240 A  
HETATM   32  C   UNL     1      -9.180   2.131  68.562  1.00  0.00    -0.179 A  
HETATM   33  N   UNL     1      -9.404   2.196  69.893  1.00  0.00    -0.116 NA 
HETATM   34  C   UNL     1      -9.630   3.423  70.403  1.00  0.00    -0.157 A  
HETATM   35  C   UNL     1      -9.634   4.589  69.648  1.00  0.00    -0.270 A  
HETATM   36  C   UNL     1      -9.399   4.508  68.268  1.00  0.00    -0.190 A  
HETATM   37  C   UNL     1      -9.379   5.643  67.426  1.00  0.00    -0.113 A  
ENDBRANCH  24  28
ENDBRANCH  12  13
ENDBRANCH  11  12
ENDBRANCH   9  11
ENDBRANCH   6   9
TORSDOF 5
ENDMDL
MODEL       64
REMARK 921   NORMALIZED FREE ENERGY PREDICTED BY IDOCK:   -5.63 KCAL/MOL
REMARK 922        TOTAL FREE ENERGY PREDICTED BY IDOCK:   -9.50 KCAL/MOL
REMARK 923 INTER-LIGAND FREE ENERGY PREDICTED BY IDOCK:   -8.46 KCAL/MOL
REMARK 924 INTRA-LIGAND FREE ENERGY PREDICTED BY IDOCK:   -1.05 KCAL/MOL
REMARK 927      BINDING AFFINITY PREDICTED BY RF-SCORE:    0.00 PKD
ROOT
HETATM    1  C   UNL     1      -8.116   8.102  62.735  1.00  0.00    -0.151 C  
HETATM    2  C   UNL     1      -7.817   7.651  64.135  1.00  0.00    -0.133 A  
HETATM    3  C   UNL     1      -8.443   8.264  65.226  1.00  0.00    -0.179 A  
HETATM    4  C   UNL     1      -8.138   7.895  66.549  1.00  0.00    -0.107 A  
HETATM    5  C   UNL     1      -8.844   8.611  67.669  1.00  0.00    -0.138 C  
HETATM    6  C   UNL     1      -7.180   6.885  66.778  1.00  0.00    -0.076 A  
HETATM    7  C   UNL     1      -6.566   6.255  65.682  1.00  0.00    -0.047 A  
HETATM    8  C   UNL     1      -6.882   6.638  64.372  1.00  0.00    -0.046 A  
ENDROOT
BRANCH   6   9
HETATM    9  C   UNL     1      -6.777   6.528  68.175  1.00  0.00    -0.068 C  
HETATM   10  O   UNL     1      -5.890   7.099  68.790  1.00  0.00    -0.018 OA 
BRANCH   9  11
HETATM   11  O   UNL     1      -7.539   5.514  68.660  1.00  0.00    -0.078 OA 
BRANCH  11  12
HETATM   12  C   UNL     1      -7.641   5.485  70.096  1.00  0.00    -0.074 C  
BRANCH  12  13
HETATM   13  C   UNL     1      -8.879   6.222  70.546  1.00  0.00    -0.144 A  
HETATM   14  C   UNL     1     -10.137   5.609  70.496  1.00  0.00    -0.280 A  
HETATM   15  C   UNL     1     -11.296   6.341  70.767  1.00  0.00    -0.397 A  
HETATM   16  C   UNL     1     -11.216   7.702  71.091  1.00  0.00    -0.280 A  
HETATM   17  C   UNL     1      -9.948   8.283  71.246  1.00  0.00    -0.243 A  
HETATM   18  C   UNL     1     -12.497   8.524  71.224  1.00  0.00    -0.275 C  
HETATM   19  C   UNL     1      -8.792   7.556  70.957  1.00  0.00    -0.146 A  
HETATM   20  C   UNL     1     -12.305   9.984  70.768  1.00  0.00    -0.303 C  
HETATM   21  C   UNL     1     -13.038   8.462  72.671  1.00  0.00    -0.081 C  
HETATM   22  O   UNL     1     -12.476  10.918  71.552  1.00  0.00    -0.358 OA 
HETATM   23  N   UNL     1     -14.333   9.139  72.837  1.00  0.00    -1.054 NA 
HETATM   24  N   UNL     1     -11.903  10.123  69.444  1.00  0.00    -0.489 N  
HETATM   25  H1  UNL     1     -14.691   9.098  73.792  1.00  0.00     0.000 HD 
HETATM   26  H2  UNL     1     -15.020   8.774  72.177  1.00  0.00     0.000 HD 
HETATM   27  H   UNL     1     -11.754   9.268  68.907  1.00  0.00     0.000 HD 
BRANCH  24  28
HETATM   28  C   UNL     1     -11.686  11.354  68.779  1.00  0.00    -0.339 A  
HETATM   29  C   UNL     1     -11.519  11.441  67.395  1.00  0.00    -0.328 A  
HETATM   30  C   UNL     1     -11.345  12.674  66.767  1.00  0.00    -0.373 A  
HETATM   31  C   UNL     1     -11.319  13.853  67.517  1.00  0.00    -0.342 A  
HETATM   32  C   UNL     1     -11.159  15.109  66.927  1.00  0.00    -0.314 A  
HETATM   33  N   UNL     1     -11.109  16.274  67.610  1.00  0.00    -0.243 NA 
HETATM   34  C   UNL     1     -11.226  16.187  68.951  1.00  0.00    -0.351 A  
HETATM   35  C   UNL     1     -11.400  14.994  69.640  1.00  0.00    -0.309 A  
HETATM   36  C   UNL     1     -11.450  13.792  68.919  1.00  0.00    -0.344 A  
HETATM   37  C   UNL     1     -11.630  12.534  69.538  1.00  0.00    -0.348 A  
ENDBRANCH  24  28
ENDBRANCH  12  13
ENDBRANCH  11  12
ENDBRANCH   9  11
ENDBRANCH   6   9
TORSDOF 5
ENDMDL
MODEL       65
REMARK 921   NORMALIZED FREE ENERGY PREDICTED BY IDOCK:   -5.59 KCAL/MOL
REMARK 922        TOTAL FREE ENERGY PREDICTED BY IDOCK:   -9.45 KCAL/MOL
REMARK 923 INTER-LIGAND FREE ENERGY PREDICTED BY IDOCK:   -8.30 KCAL/MOL
REMARK 924 INTRA-LIGAND FREE ENERGY PREDICTED BY IDOCK:   -1.15 KCAL/MOL
REMARK 927      BINDING AFFINITY PREDICTED BY RF-SCORE:    0.00 PKD
ROOT
HETATM    1  C   UNL     1      -5.692  15.636  69.005  1.00  0.00    -0.104 C  
HETATM    2  C   UNL     1      -6.844  16.326  68.334  1.00  0.00    -0.137 A  
HETATM    3  C   UNL     1      -8.147  16.164  68.817  1.00  0.00    -0.218 A  
HETATM    4  C   UNL     1      -9.248  16.756  68.172  1.00  0.00    -0.224 A  
HETATM    5  C   UNL     1     -10.620  16.522  68.746  1.00  0.00    -0.322 C  
HETATM    6  C   UNL     1      -9.030  17.529  67.012  1.00  0.00    -0.250 A  
HETATM    7  C   UNL     1      -7.720  17.709  66.538  1.00  0.00    -0.305 A  
HETATM    8  C   UNL     1      -6.637  17.110  67.194  1.00  0.00    -0.210 A  
ENDROOT
BRANCH   6   9
HETATM    9  C   UNL     1     -10.190  18.104  66.259  1.00  0.00    -0.395 C  
HETATM   10  O   UNL     1     -10.817  19.084  66.629  1.00  0.00    -0.369 OA 
BRANCH   9  11
HETATM   11  O   UNL     1     -10.425  17.408  65.117  1.00  0.00    -0.619 OA 
BRANCH  11  12
HETATM   12  C   UNL     1     -11.578  16.548  65.175  1.00  0.00     0.514 C  
BRANCH  12  13
HETATM   13  C   UNL     1     -11.196  15.136  64.804  1.00  0.00    -0.396 A  
HETATM   14  C   UNL     1     -11.982  14.390  63.916  1.00  0.00    -0.157 A  
HETATM   15  C   UNL     1     -11.714  13.038  63.694  1.00  0.00    -0.550 A  
HETATM   16  C   UNL     1     -10.654  12.405  64.358  1.00  0.00    -0.366 A  
HETATM   17  C   UNL     1      -9.805  13.183  65.161  1.00  0.00    -0.076 A  
HETATM   18  C   UNL     1     -10.475  10.894  64.229  1.00  0.00    -0.405 C  
HETATM   19  C   UNL     1     -10.085  14.529  65.398  1.00  0.00    -0.394 A  
HETATM   20  C   UNL     1      -9.909  10.260  65.516  1.00  0.00    -0.282 C  
HETATM   21  C   UNL     1      -9.591  10.550  63.008  1.00  0.00    -0.333 C  
HETATM   22  O   UNL     1      -8.830   9.667  65.506  1.00  0.00    -0.151 OA 
HETATM   23  N   UNL     1      -9.475   9.105  62.762  1.00  0.00    -0.381 NA 
HETATM   24  N   UNL     1     -10.699  10.451  66.645  1.00  0.00    -0.174 N  
HETATM   25  H1  UNL     1      -8.893   8.878  61.955  1.00  0.00     0.000 HD 
HETATM   26  H2  UNL     1     -10.397   8.678  62.674  1.00  0.00     0.000 HD 
HETATM   27  H   UNL     1     -11.552  10.999  66.532  1.00  0.00     0.000 HD 
BRANCH  24  28
HETATM   28  C   UNL     1     -10.415   9.949  67.937  1.00  0.00    -0.236 A  
HETATM   29  C   UNL     1      -9.112   9.780  68.409  1.00  0.00    -0.123 A  
HETATM   30  C   UNL     1      -8.867   9.319  69.702  1.00  0.00    -0.159 A  
HETATM   31  C   UNL     1      -9.930   9.000  70.552  1.00  0.00    -0.263 A  
HETATM   32  C   UNL     1      -9.731   8.546  71.858  1.00  0.00    -0.287 A  
HETATM   33  N   UNL     1     -10.724   8.207  72.711  1.00  0.00    -0.354 NA 
HETATM   34  C   UNL     1     -11.982   8.328  72.241  1.00  0.00    -0.386 A  
HETATM   35  C   UNL     1     -12.296   8.779  70.966  1.00  0.00    -0.186 A  
HETATM   36  C   UNL     1     -11.256   9.127  70.091  1.00  0.00    -0.211 A  
HETATM   37  C   UNL     1     -11.485   9.600  68.779  1.00  0.00     0.209 A  
ENDBRANCH  24  28
ENDBRANCH  12  13
ENDBRANCH  11  12
ENDBRANCH   9  11
ENDBRANCH   6   9
TORSDOF 5
ENDMDL
MODEL       66
REMARK 921   NORMALIZED FREE ENERGY PREDICTED BY IDOCK:   -5.57 KCAL/MOL
REMARK 922        TOTAL FREE ENERGY PREDICTED BY IDOCK:   -9.42 KCAL/MOL
REMARK 923 INTER-LIGAND FREE ENERGY PREDICTED BY IDOCK:   -8.81 KCAL/MOL
REMARK 924 INTRA-LIGAND FREE ENERGY PREDICTED BY IDOCK:   -0.61 KCAL/MOL
REMARK 927      BINDING AFFINITY PREDICTED BY RF-SCORE:    0.00 PKD
ROOT
HETATM    1  C   UNL     1      -9.891  20.563  66.790  1.00  0.00    -0.460 C  
HETATM    2  C   UNL     1     -10.130  19.093  66.976  1.00  0.00    -0.448 A  
HETATM    3  C   UNL     1     -10.320  18.259  65.868  1.00  0.00    -0.297 A  
HETATM    4  C   UNL     1     -10.599  16.889  66.021  1.00  0.00    -0.221 A  
HETATM    5  C   UNL     1     -10.805  16.062  64.780  1.00  0.00    -0.315 C  
HETATM    6  C   UNL     1     -10.689  16.346  67.320  1.00  0.00    -0.257 A  
HETATM    7  C   UNL     1     -10.478  17.178  68.432  1.00  0.00    -0.376 A  
HETATM    8  C   UNL     1     -10.203  18.541  68.259  1.00  0.00    -0.412 A  
ENDROOT
BRANCH   6   9
HETATM    9  C   UNL     1     -11.064  14.910  67.515  1.00  0.00    -0.317 C  
HETATM   10  O   UNL     1     -12.130  14.434  67.157  1.00  0.00    -0.414 OA 
BRANCH   9  11
HETATM   11  O   UNL     1     -10.059  14.219  68.113  1.00  0.00    -0.221 OA 
BRANCH  11  12
HETATM   12  C   UNL     1      -8.991  13.840  67.225  1.00  0.00    -0.224 C  
BRANCH  12  13
HETATM   13  C   UNL     1      -9.037  12.356  66.956  1.00  0.00    -0.207 A  
HETATM   14  C   UNL     1      -9.928  11.824  66.015  1.00  0.00    -0.258 A  
HETATM   15  C   UNL     1     -10.078  10.443  65.879  1.00  0.00    -0.326 A  
HETATM   16  C   UNL     1      -9.337   9.565  66.683  1.00  0.00    -0.207 A  
HETATM   17  C   UNL     1      -8.367  10.101  67.545  1.00  0.00    -0.118 A  
HETATM   18  C   UNL     1      -9.629   8.067  66.635  1.00  0.00    -0.297 C  
HETATM   19  C   UNL     1      -8.233  11.482  67.695  1.00  0.00    -0.131 A  
HETATM   20  C   UNL     1      -9.415   7.385  68.001  1.00  0.00    -0.141 C  
HETATM   21  C   UNL     1      -8.786   7.381  65.535  1.00  0.00    -0.026 C  
HETATM   22  O   UNL     1      -8.580   6.491  68.136  1.00  0.00    -0.119 OA 
HETATM   23  N   UNL     1      -9.106   5.955  65.361  1.00  0.00    -0.358 NA 
HETATM   24  N   UNL     1     -10.208   7.892  69.025  1.00  0.00    -0.206 N  
HETATM   25  H1  UNL     1      -8.550   5.502  64.635  1.00  0.00     0.000 HD 
HETATM   26  H2  UNL     1     -10.102   5.827  65.187  1.00  0.00     0.000 HD 
HETATM   27  H   UNL     1     -10.832   8.665  68.795  1.00  0.00     0.000 HD 
BRANCH  24  28
HETATM   28  C   UNL     1     -10.220   7.422  70.360  1.00  0.00    -0.198 A  
HETATM   29  C   UNL     1     -10.122   8.278  71.459  1.00  0.00    -0.270 A  
HETATM   30  C   UNL     1     -10.177   7.786  72.763  1.00  0.00    -0.360 A  
HETATM   31  C   UNL     1     -10.315   6.414  72.997  1.00  0.00    -0.234 A  
HETATM   32  C   UNL     1     -10.386   5.880  74.286  1.00  0.00    -0.270 A  
HETATM   33  N   UNL     1     -10.501   4.562  74.563  1.00  0.00    -0.266 NA 
HETATM   34  C   UNL     1     -10.551   3.731  73.503  1.00  0.00    -0.196 A  
HETATM   35  C   UNL     1     -10.501   4.153  72.180  1.00  0.00    -0.105 A  
HETATM   36  C   UNL     1     -10.381   5.523  71.907  1.00  0.00    -0.270 A  
HETATM   37  C   UNL     1     -10.329   6.041  70.592  1.00  0.00    -0.280 A  
ENDBRANCH  24  28
ENDBRANCH  12  13
ENDBRANCH  11  12
ENDBRANCH   9  11
ENDBRANCH   6   9
TORSDOF 5
ENDMDL
MODEL       67
REMARK 921   NORMALIZED FREE ENERGY PREDICTED BY IDOCK:   -5.53 KCAL/MOL
REMARK 922        TOTAL FREE ENERGY PREDICTED BY IDOCK:   -9.38 KCAL/MOL
REMARK 923 INTER-LIGAND FREE ENERGY PREDICTED BY IDOCK:   -8.88 KCAL/MOL
REMARK 924 INTRA-LIGAND FREE ENERGY PREDICTED BY IDOCK:   -0.50 KCAL/MOL
REMARK 927      BINDING AFFINITY PREDICTED BY RF-SCORE:    0.00 PKD
ROOT
HETATM    1  C   UNL     1     -10.380  20.087  66.512  1.00  0.00    -0.572 C  
HETATM    2  C   UNL     1     -10.050  18.627  66.626  1.00  0.00    -0.418 A  
HETATM    3  C   UNL     1     -10.530  17.715  65.679  1.00  0.00    -0.150 A  
HETATM    4  C   UNL     1     -10.279  16.336  65.795  1.00  0.00    -0.390 A  
HETATM    5  C   UNL     1     -10.842  15.419  64.743  1.00  0.00    -0.385 C  
HETATM    6  C   UNL     1      -9.527  15.864  66.892  1.00  0.00    -0.242 A  
HETATM    7  C   UNL     1      -9.028  16.781  67.832  1.00  0.00    -0.219 A  
HETATM    8  C   UNL     1      -9.290  18.151  67.699  1.00  0.00    -0.260 A  
ENDROOT
BRANCH   6   9
HETATM    9  C   UNL     1      -9.312  14.395  67.085  1.00  0.00    -0.220 C  
HETATM   10  O   UNL     1      -8.212  13.867  67.091  1.00  0.00    -0.171 OA 
BRANCH   9  11
HETATM   11  O   UNL     1     -10.492  13.749  67.271  1.00  0.00    -0.261 OA 
BRANCH  11  12
HETATM   12  C   UNL     1     -10.414  12.319  67.120  1.00  0.00    -0.219 C  
BRANCH  12  13
HETATM   13  C   UNL     1     -11.068  11.634  68.295  1.00  0.00    -0.287 A  
HETATM   14  C   UNL     1     -11.564  12.376  69.374  1.00  0.00    -0.371 A  
HETATM   15  C   UNL     1     -12.028  11.735  70.525  1.00  0.00    -0.383 A  
HETATM   16  C   UNL     1     -12.002  10.337  70.618  1.00  0.00    -0.436 A  
HETATM   17  C   UNL     1     -11.606   9.596  69.493  1.00  0.00     0.092 A  
HETATM   18  C   UNL     1     -12.359   9.661  71.940  1.00  0.00    -0.437 C  
HETATM   19  C   UNL     1     -11.125  10.238  68.351  1.00  0.00    -0.302 A  
HETATM   20  C   UNL     1     -11.557   8.364  72.169  1.00  0.00    -0.374 C  
HETATM   21  C   UNL     1     -13.880   9.393  72.024  1.00  0.00    -0.340 C  
HETATM   22  O   UNL     1     -12.129   7.280  72.285  1.00  0.00    -0.269 OA 
HETATM   23  N   UNL     1     -14.304   8.847  73.322  1.00  0.00    -1.177 NA 
HETATM   24  N   UNL     1     -10.178   8.540  72.196  1.00  0.00    -0.315 N  
HETATM   25  H1  UNL     1     -15.307   8.671  73.378  1.00  0.00     0.000 HD 
HETATM   26  H2  UNL     1     -13.999   9.451  74.085  1.00  0.00     0.000 HD 
HETATM   27  H   UNL     1      -9.823   9.485  72.045  1.00  0.00     0.000 HD 
BRANCH  24  28
HETATM   28  C   UNL     1      -9.226   7.516  72.416  1.00  0.00    -0.147 A  
HETATM   29  C   UNL     1      -9.248   6.701  73.550  1.00  0.00    -0.156 A  
HETATM   30  C   UNL     1      -8.318   5.675  73.718  1.00  0.00    -0.114 A  
HETATM   31  C   UNL     1      -7.329   5.452  72.755  1.00  0.00    -0.095 A  
HETATM   32  C   UNL     1      -6.385   4.429  72.878  1.00  0.00    -0.032 A  
HETATM   33  N   UNL     1      -5.401   4.185  71.985  1.00  0.00     0.000 NA 
HETATM   34  C   UNL     1      -5.352   4.999  70.912  1.00  0.00    -0.004 A  
HETATM   35  C   UNL     1      -6.244   6.039  70.683  1.00  0.00    -0.035 A  
HETATM   36  C   UNL     1      -7.261   6.281  71.618  1.00  0.00    -0.087 A  
HETATM   37  C   UNL     1      -8.215   7.313  71.462  1.00  0.00    -0.105 A  
ENDBRANCH  24  28
ENDBRANCH  12  13
ENDBRANCH  11  12
ENDBRANCH   9  11
ENDBRANCH   6   9
TORSDOF 5
ENDMDL
MODEL       68
REMARK 921   NORMALIZED FREE ENERGY PREDICTED BY IDOCK:   -5.48 KCAL/MOL
REMARK 922        TOTAL FREE ENERGY PREDICTED BY IDOCK:   -9.30 KCAL/MOL
REMARK 923 INTER-LIGAND FREE ENERGY PREDICTED BY IDOCK:   -7.75 KCAL/MOL
REMARK 924 INTRA-LIGAND FREE ENERGY PREDICTED BY IDOCK:   -1.56 KCAL/MOL
REMARK 927      BINDING AFFINITY PREDICTED BY RF-SCORE:    0.00 PKD
ROOT
HETATM    1  C   UNL     1     -11.899  12.338  64.245  1.00  0.00    -0.482 C  
HETATM    2  C   UNL     1     -10.599  11.599  64.380  1.00  0.00    -0.377 A  
HETATM    3  C   UNL     1     -10.242  10.617  63.450  1.00  0.00    -0.182 A  
HETATM    4  C   UNL     1      -9.056   9.874  63.586  1.00  0.00    -0.294 A  
HETATM    5  C   UNL     1      -8.749   8.825  62.551  1.00  0.00    -0.124 C  
HETATM    6  C   UNL     1      -8.209  10.126  64.687  1.00  0.00    -0.165 A  
HETATM    7  C   UNL     1      -8.557  11.126  65.610  1.00  0.00    -0.083 A  
HETATM    8  C   UNL     1      -9.744  11.854  65.457  1.00  0.00    -0.237 A  
ENDROOT
BRANCH   6   9
HETATM    9  C   UNL     1      -6.981   9.297  64.902  1.00  0.00    -0.090 C  
HETATM   10  O   UNL     1      -5.858   9.658  64.589  1.00  0.00    -0.072 OA 
BRANCH   9  11
HETATM   11  O   UNL     1      -7.286   8.118  65.504  1.00  0.00    -0.069 OA 
BRANCH  11  12
HETATM   12  C   UNL     1      -7.009   8.086  66.916  1.00  0.00    -0.074 C  
BRANCH  12  13
HETATM   13  C   UNL     1      -8.244   8.458  67.699  1.00  0.00    -0.126 A  
HETATM   14  C   UNL     1      -9.474   7.843  67.434  1.00  0.00    -0.179 A  
HETATM   15  C   UNL     1     -10.643   8.295  68.051  1.00  0.00    -0.188 A  
HETATM   16  C   UNL     1     -10.603   9.374  68.945  1.00  0.00    -0.231 A  
HETATM   17  C   UNL     1      -9.354   9.914  69.289  1.00  0.00    -0.215 A  
HETATM   18  C   UNL     1     -11.906   9.959  69.484  1.00  0.00     0.108 C  
HETATM   19  C   UNL     1      -8.189   9.474  68.658  1.00  0.00    -0.112 A  
HETATM   20  C   UNL     1     -11.812  11.480  69.719  1.00  0.00    -0.357 C  
HETATM   21  C   UNL     1     -12.343   9.225  70.772  1.00  0.00    -0.087 C  
HETATM   22  O   UNL     1     -11.970  11.955  70.844  1.00  0.00    -0.248 OA 
HETATM   23  N   UNL     1     -13.653   9.665  71.277  1.00  0.00    -0.425 NA 
HETATM   24  N   UNL     1     -11.509  12.219  68.581  1.00  0.00    -0.281 N  
HETATM   25  H1  UNL     1     -13.942   9.180  72.127  1.00  0.00     0.000 HD 
HETATM   26  H2  UNL     1     -14.366   9.582  70.553  1.00  0.00     0.000 HD 
HETATM   27  H   UNL     1     -11.359  11.703  67.714  1.00  0.00     0.000 HD 
BRANCH  24  28
HETATM   28  C   UNL     1     -11.394  13.628  68.526  1.00  0.00    -0.290 A  
HETATM   29  C   UNL     1     -11.681  14.449  69.619  1.00  0.00    -0.362 A  
HETATM   30  C   UNL     1     -11.519  15.832  69.544  1.00  0.00    -0.356 A  
HETATM   31  C   UNL     1     -11.077  16.430  68.360  1.00  0.00    -0.351 A  
HETATM   32  C   UNL     1     -10.890  17.809  68.245  1.00  0.00    -0.145 A  
HETATM   33  N   UNL     1     -10.483  18.435  67.118  1.00  0.00    -0.398 NA 
HETATM   34  C   UNL     1     -10.248  17.648  66.049  1.00  0.00    -0.297 A  
HETATM   35  C   UNL     1     -10.389  16.266  66.054  1.00  0.00    -0.363 A  
HETATM   36  C   UNL     1     -10.813  15.630  67.230  1.00  0.00    -0.298 A  
HETATM   37  C   UNL     1     -10.978  14.229  67.326  1.00  0.00    -0.302 A  
ENDBRANCH  24  28
ENDBRANCH  12  13
ENDBRANCH  11  12
ENDBRANCH   9  11
ENDBRANCH   6   9
TORSDOF 5
ENDMDL
MODEL       69
REMARK 921   NORMALIZED FREE ENERGY PREDICTED BY IDOCK:   -5.46 KCAL/MOL
REMARK 922        TOTAL FREE ENERGY PREDICTED BY IDOCK:   -9.29 KCAL/MOL
REMARK 923 INTER-LIGAND FREE ENERGY PREDICTED BY IDOCK:   -8.92 KCAL/MOL
REMARK 924 INTRA-LIGAND FREE ENERGY PREDICTED BY IDOCK:   -0.36 KCAL/MOL
REMARK 927      BINDING AFFINITY PREDICTED BY RF-SCORE:    0.00 PKD
ROOT
HETATM    1  C   UNL     1      -9.224   2.127  63.583  1.00  0.00    -0.099 C  
HETATM    2  C   UNL     1      -8.961   3.355  64.406  1.00  0.00    -0.123 A  
HETATM    3  C   UNL     1      -7.666   3.874  64.512  1.00  0.00    -0.081 A  
HETATM    4  C   UNL     1      -7.387   4.991  65.321  1.00  0.00    -0.072 A  
HETATM    5  C   UNL     1      -5.965   5.480  65.394  1.00  0.00    -0.025 C  
HETATM    6  C   UNL     1      -8.439   5.600  66.039  1.00  0.00    -0.132 A  
HETATM    7  C   UNL     1      -9.743   5.092  65.916  1.00  0.00    -0.182 A  
HETATM    8  C   UNL     1      -9.999   3.977  65.107  1.00  0.00    -0.203 A  
ENDROOT
BRANCH   6   9
HETATM    9  C   UNL     1      -8.158   6.739  66.968  1.00  0.00    -0.109 C  
HETATM   10  O   UNL     1      -8.517   7.887  66.759  1.00  0.00    -0.123 OA 
BRANCH   9  11
HETATM   11  O   UNL     1      -7.481   6.318  68.068  1.00  0.00    -0.086 OA 
BRANCH  11  12
HETATM   12  C   UNL     1      -8.229   5.430  68.919  1.00  0.00    -0.100 C  
BRANCH  12  13
HETATM   13  C   UNL     1      -9.315   6.189  69.642  1.00  0.00    -0.156 A  
HETATM   14  C   UNL     1     -10.614   5.673  69.730  1.00  0.00    -0.400 A  
HETATM   15  C   UNL     1     -11.650   6.443  70.262  1.00  0.00    -0.451 A  
HETATM   16  C   UNL     1     -11.406   7.747  70.715  1.00  0.00    -0.291 A  
HETATM   17  C   UNL     1     -10.083   8.217  70.725  1.00  0.00    -0.211 A  
HETATM   18  C   UNL     1     -12.575   8.630  71.142  1.00  0.00    -0.176 C  
HETATM   19  C   UNL     1      -9.052   7.454  70.175  1.00  0.00    -0.148 A  
HETATM   20  C   UNL     1     -12.331  10.119  70.823  1.00  0.00    -0.328 C  
HETATM   21  C   UNL     1     -12.893   8.431  72.642  1.00  0.00    -0.119 C  
HETATM   22  O   UNL     1     -12.299  10.961  71.721  1.00  0.00    -0.229 OA 
HETATM   23  N   UNL     1     -14.084   9.169  73.089  1.00  0.00    -1.155 NA 
HETATM   24  N   UNL     1     -12.126  10.390  69.474  1.00  0.00    -0.522 N  
HETATM   25  H1  UNL     1     -14.294   9.037  74.078  1.00  0.00     0.000 HD 
HETATM   26  H2  UNL     1     -14.892   8.934  72.512  1.00  0.00     0.000 HD 
HETATM   27  H   UNL     1     -12.134   9.598  68.831  1.00  0.00     0.000 HD 
BRANCH  24  28
HETATM   28  C   UNL     1     -11.908  11.674  68.920  1.00  0.00    -0.329 A  
HETATM   29  C   UNL     1     -11.893  12.834  69.697  1.00  0.00    -0.384 A  
HETATM   30  C   UNL     1     -11.636  14.081  69.126  1.00  0.00    -0.356 A  
HETATM   31  C   UNL     1     -11.402  14.195  67.753  1.00  0.00    -0.330 A  
HETATM   32  C   UNL     1     -11.130  15.422  67.142  1.00  0.00    -0.291 A  
HETATM   33  N   UNL     1     -10.916  15.586  65.818  1.00  0.00    -0.313 NA 
HETATM   34  C   UNL     1     -10.973  14.472  65.060  1.00  0.00    -0.398 A  
HETATM   35  C   UNL     1     -11.225  13.202  65.562  1.00  0.00    -0.305 A  
HETATM   36  C   UNL     1     -11.445  13.046  66.939  1.00  0.00    -0.387 A  
HETATM   37  C   UNL     1     -11.703  11.790  67.536  1.00  0.00    -0.312 A  
ENDBRANCH  24  28
ENDBRANCH  12  13
ENDBRANCH  11  12
ENDBRANCH   9  11
ENDBRANCH   6   9
TORSDOF 5
ENDMDL
MODEL       70
REMARK 921   NORMALIZED FREE ENERGY PREDICTED BY IDOCK:   -5.45 KCAL/MOL
REMARK 922        TOTAL FREE ENERGY PREDICTED BY IDOCK:   -9.27 KCAL/MOL
REMARK 923 INTER-LIGAND FREE ENERGY PREDICTED BY IDOCK:   -9.14 KCAL/MOL
REMARK 924 INTRA-LIGAND FREE ENERGY PREDICTED BY IDOCK:   -0.13 KCAL/MOL
REMARK 927      BINDING AFFINITY PREDICTED BY RF-SCORE:    0.00 PKD
ROOT
HETATM    1  C   UNL     1     -12.926  15.666  73.534  1.00  0.00    -0.679 C  
HETATM    2  C   UNL     1     -12.653  15.015  72.209  1.00  0.00    -0.418 A  
HETATM    3  C   UNL     1     -12.792  13.631  72.057  1.00  0.00    -0.367 A  
HETATM    4  C   UNL     1     -12.489  12.992  70.841  1.00  0.00    -0.396 A  
HETATM    5  C   UNL     1     -12.651  11.497  70.762  1.00  0.00    -0.390 C  
HETATM    6  C   UNL     1     -12.034  13.766  69.752  1.00  0.00    -0.406 A  
HETATM    7  C   UNL     1     -11.914  15.158  69.898  1.00  0.00    -0.372 A  
HETATM    8  C   UNL     1     -12.219  15.775  71.119  1.00  0.00    -0.473 A  
ENDROOT
BRANCH   6   9
HETATM    9  C   UNL     1     -11.628  13.105  68.473  1.00  0.00    -0.326 C  
HETATM   10  O   UNL     1     -12.152  12.091  68.038  1.00  0.00    -0.514 OA 
BRANCH   9  11
HETATM   11  O   UNL     1     -10.628  13.792  67.863  1.00  0.00    -0.245 OA 
BRANCH  11  12
HETATM   12  C   UNL     1     -10.783  13.923  66.437  1.00  0.00    -0.281 C  
BRANCH  12  13
HETATM   13  C   UNL     1     -10.167  12.738  65.734  1.00  0.00    -0.302 A  
HETATM   14  C   UNL     1     -10.642  12.319  64.484  1.00  0.00    -0.346 A  
HETATM   15  C   UNL     1     -10.177  11.135  63.908  1.00  0.00    -0.420 A  
HETATM   16  C   UNL     1      -9.228  10.346  64.572  1.00  0.00    -0.287 A  
HETATM   17  C   UNL     1      -8.677  10.826  65.771  1.00  0.00    -0.194 A  
HETATM   18  C   UNL     1      -8.852   8.978  64.007  1.00  0.00    -0.052 C  
HETATM   19  C   UNL     1      -9.156  11.999  66.355  1.00  0.00    -0.193 A  
HETATM   20  C   UNL     1      -8.521   7.958  65.114  1.00  0.00    -0.079 C  
HETATM   21  C   UNL     1      -7.683   9.104  63.003  1.00  0.00    -0.110 C  
HETATM   22  O   UNL     1      -7.407   7.439  65.182  1.00  0.00    -0.070 OA 
HETATM   23  N   UNL     1      -7.350   7.836  62.336  1.00  0.00    -0.091 NA 
HETATM   24  N   UNL     1      -9.561   7.724  66.008  1.00  0.00    -0.433 N  
HETATM   25  H1  UNL     1      -6.579   7.919  61.673  1.00  0.00     0.000 HD 
HETATM   26  H2  UNL     1      -8.173   7.437  61.886  1.00  0.00     0.000 HD 
HETATM   27  H   UNL     1     -10.424   8.250  65.870  1.00  0.00     0.000 HD 
BRANCH  24  28
HETATM   28  C   UNL     1      -9.519   6.816  67.093  1.00  0.00    -0.142 A  
HETATM   29  C   UNL     1      -9.543   7.235  68.425  1.00  0.00    -0.139 A  
HETATM   30  C   UNL     1      -9.540   6.313  69.471  1.00  0.00    -0.163 A  
HETATM   31  C   UNL     1      -9.498   4.941  69.205  1.00  0.00    -0.205 A  
HETATM   32  C   UNL     1      -9.505   3.983  70.221  1.00  0.00    -0.185 A  
HETATM   33  N   UNL     1      -9.447   2.648  70.015  1.00  0.00    -0.115 NA 
HETATM   34  C   UNL     1      -9.380   2.244  68.731  1.00  0.00    -0.158 A  
HETATM   35  C   UNL     1      -9.378   3.107  67.643  1.00  0.00    -0.247 A  
HETATM   36  C   UNL     1      -9.438   4.490  67.871  1.00  0.00    -0.200 A  
HETATM   37  C   UNL     1      -9.446   5.439  66.823  1.00  0.00    -0.144 A  
ENDBRANCH  24  28
ENDBRANCH  12  13
ENDBRANCH  11  12
ENDBRANCH   9  11
ENDBRANCH   6   9
TORSDOF 5
ENDMDL
MODEL       71
REMARK 921   NORMALIZED FREE ENERGY PREDICTED BY IDOCK:   -5.41 KCAL/MOL
REMARK 922        TOTAL FREE ENERGY PREDICTED BY IDOCK:   -9.22 KCAL/MOL
REMARK 923 INTER-LIGAND FREE ENERGY PREDICTED BY IDOCK:   -9.13 KCAL/MOL
REMARK 924 INTRA-LIGAND FREE ENERGY PREDICTED BY IDOCK:   -0.09 KCAL/MOL
REMARK 927      BINDING AFFINITY PREDICTED BY RF-SCORE:    0.00 PKD
ROOT
HETATM    1  C   UNL     1      -5.150  14.318  67.719  1.00  0.00     0.020 C  
HETATM    2  C   UNL     1      -5.294  15.793  67.955  1.00  0.00    -0.142 A  
HETATM    3  C   UNL     1      -5.228  16.314  69.252  1.00  0.00    -0.112 A  
HETATM    4  C   UNL     1      -5.414  17.686  69.502  1.00  0.00    -0.203 A  
HETATM    5  C   UNL     1      -5.342  18.166  70.927  1.00  0.00    -0.236 C  
HETATM    6  C   UNL     1      -5.674  18.553  68.419  1.00  0.00    -0.180 A  
HETATM    7  C   UNL     1      -5.721  18.034  67.115  1.00  0.00    -0.153 A  
HETATM    8  C   UNL     1      -5.534  16.664  66.887  1.00  0.00    -0.091 A  
ENDROOT
BRANCH   6   9
HETATM    9  C   UNL     1      -5.956  20.003  68.664  1.00  0.00    -0.265 C  
HETATM   10  O   UNL     1      -5.143  20.780  69.140  1.00  0.00    -0.256 OA 
BRANCH   9  11
HETATM   11  O   UNL     1      -7.213  20.331  68.267  1.00  0.00    -0.275 OA 
BRANCH  11  12
HETATM   12  C   UNL     1      -8.258  19.685  69.018  1.00  0.00    -0.147 C  
BRANCH  12  13
HETATM   13  C   UNL     1      -8.927  18.626  68.178  1.00  0.00    -0.335 A  
HETATM   14  C   UNL     1      -9.919  18.967  67.250  1.00  0.00    -0.386 A  
HETATM   15  C   UNL     1     -10.644  17.974  66.586  1.00  0.00    -0.268 A  
HETATM   16  C   UNL     1     -10.389  16.619  66.840  1.00  0.00    -0.299 A  
HETATM   17  C   UNL     1      -9.321  16.284  67.687  1.00  0.00    -0.218 A  
HETATM   18  C   UNL     1     -11.295  15.552  66.231  1.00  0.00    -0.004 C  
HETATM   19  C   UNL     1      -8.611  17.276  68.365  1.00  0.00    -0.251 A  
HETATM   20  C   UNL     1     -11.455  14.325  67.151  1.00  0.00    -0.359 C  
HETATM   21  C   UNL     1     -10.784  15.133  64.833  1.00  0.00    -0.398 C  
HETATM   22  O   UNL     1     -11.094  13.208  66.781  1.00  0.00    -0.278 OA 
HETATM   23  N   UNL     1     -11.679  14.191  64.144  1.00  0.00    -0.624 NA 
HETATM   24  N   UNL     1     -11.996  14.611  68.400  1.00  0.00    -0.525 N  
HETATM   25  H1  UNL     1     -11.342  13.915  63.221  1.00  0.00     0.000 HD 
HETATM   26  H2  UNL     1     -12.626  14.568  64.086  1.00  0.00     0.000 HD 
HETATM   27  H   UNL     1     -12.215  15.586  68.602  1.00  0.00     0.000 HD 
BRANCH  24  28
HETATM   28  C   UNL     1     -12.267  13.660  69.412  1.00  0.00    -0.259 A  
HETATM   29  C   UNL     1     -12.875  14.002  70.622  1.00  0.00    -0.320 A  
HETATM   30  C   UNL     1     -13.163  13.034  71.583  1.00  0.00    -0.426 A  
HETATM   31  C   UNL     1     -12.833  11.694  71.359  1.00  0.00    -0.461 A  
HETATM   32  C   UNL     1     -13.114  10.690  72.289  1.00  0.00    -0.096 A  
HETATM   33  N   UNL     1     -12.798   9.386  72.126  1.00  0.00    -0.399 NA 
HETATM   34  C   UNL     1     -12.171   9.061  70.978  1.00  0.00    -0.223 A  
HETATM   35  C   UNL     1     -11.854   9.974  69.980  1.00  0.00    -0.196 A  
HETATM   36  C   UNL     1     -12.187  11.325  70.162  1.00  0.00    -0.410 A  
HETATM   37  C   UNL     1     -11.907  12.319  69.197  1.00  0.00    -0.355 A  
ENDBRANCH  24  28
ENDBRANCH  12  13
ENDBRANCH  11  12
ENDBRANCH   9  11
ENDBRANCH   6   9
TORSDOF 5
ENDMDL
MODEL       72
REMARK 921   NORMALIZED FREE ENERGY PREDICTED BY IDOCK:   -5.41 KCAL/MOL
REMARK 922        TOTAL FREE ENERGY PREDICTED BY IDOCK:   -9.22 KCAL/MOL
REMARK 923 INTER-LIGAND FREE ENERGY PREDICTED BY IDOCK:   -9.10 KCAL/MOL
REMARK 924 INTRA-LIGAND FREE ENERGY PREDICTED BY IDOCK:   -0.12 KCAL/MOL
REMARK 927      BINDING AFFINITY PREDICTED BY RF-SCORE:    0.00 PKD
ROOT
HETATM    1  C   UNL     1     -14.390   7.982  72.310  1.00  0.00    -0.360 C  
HETATM    2  C   UNL     1     -13.016   8.367  71.842  1.00  0.00    -0.381 A  
HETATM    3  C   UNL     1     -11.955   7.459  71.935  1.00  0.00    -0.337 A  
HETATM    4  C   UNL     1     -10.649   7.815  71.553  1.00  0.00    -0.247 A  
HETATM    5  C   UNL     1      -9.560   6.786  71.696  1.00  0.00    -0.163 C  
HETATM    6  C   UNL     1     -10.406   9.118  71.067  1.00  0.00    -0.363 A  
HETATM    7  C   UNL     1     -11.474  10.023  70.955  1.00  0.00    -0.463 A  
HETATM    8  C   UNL     1     -12.768   9.649  71.342  1.00  0.00    -0.466 A  
ENDROOT
BRANCH   6   9
HETATM    9  C   UNL     1      -9.013   9.550  70.730  1.00  0.00    -0.087 C  
HETATM   10  O   UNL     1      -8.017   9.127  71.296  1.00  0.00    -0.280 OA 
BRANCH   9  11
HETATM   11  O   UNL     1      -9.013  10.446  69.709  1.00  0.00    -0.118 OA 
BRANCH  11  12
HETATM   12  C   UNL     1      -9.608   9.957  68.492  1.00  0.00    -0.153 C  
BRANCH  12  13
HETATM   13  C   UNL     1     -10.039  11.111  67.621  1.00  0.00    -0.203 A  
HETATM   14  C   UNL     1     -10.161  10.956  66.234  1.00  0.00    -0.300 A  
HETATM   15  C   UNL     1     -10.409  12.060  65.415  1.00  0.00    -0.301 A  
HETATM   16  C   UNL     1     -10.538  13.341  65.968  1.00  0.00    -0.292 A  
HETATM   17  C   UNL     1     -10.523  13.473  67.366  1.00  0.00    -0.247 A  
HETATM   18  C   UNL     1     -10.646  14.555  65.049  1.00  0.00    -0.458 C  
HETATM   19  C   UNL     1     -10.256  12.373  68.182  1.00  0.00    -0.225 A  
HETATM   20  C   UNL     1      -9.982  15.809  65.653  1.00  0.00    -0.345 C  
HETATM   21  C   UNL     1     -12.122  14.833  64.681  1.00  0.00    -0.427 C  
HETATM   22  O   UNL     1     -10.641  16.823  65.884  1.00  0.00    -0.324 OA 
HETATM   23  N   UNL     1     -12.284  15.921  63.704  1.00  0.00    -1.015 NA 
HETATM   24  N   UNL     1      -8.626  15.663  65.928  1.00  0.00    -0.234 N  
HETATM   25  H1  UNL     1     -13.258  16.104  63.462  1.00  0.00     0.000 HD 
HETATM   26  H2  UNL     1     -11.729  15.741  62.867  1.00  0.00     0.000 HD 
HETATM   27  H   UNL     1      -8.203  14.756  65.731  1.00  0.00     0.000 HD 
BRANCH  24  28
HETATM   28  C   UNL     1      -7.786  16.671  66.459  1.00  0.00    -0.302 A  
HETATM   29  C   UNL     1      -6.746  17.245  65.726  1.00  0.00     0.190 A  
HETATM   30  C   UNL     1      -5.961  18.264  66.265  1.00  0.00    -0.212 A  
HETATM   31  C   UNL     1      -6.191  18.722  67.566  1.00  0.00    -0.183 A  
HETATM   32  C   UNL     1      -5.437  19.748  68.141  1.00  0.00    -0.198 A  
HETATM   33  N   UNL     1      -5.609  20.212  69.398  1.00  0.00    -0.247 NA 
HETATM   34  C   UNL     1      -6.584  19.628  70.123  1.00  0.00    -0.152 A  
HETATM   35  C   UNL     1      -7.402  18.609  69.649  1.00  0.00     0.246 A  
HETATM   36  C   UNL     1      -7.212  18.137  68.341  1.00  0.00    -0.264 A  
HETATM   37  C   UNL     1      -8.000  17.109  67.777  1.00  0.00    -0.190 A  
ENDBRANCH  24  28
ENDBRANCH  12  13
ENDBRANCH  11  12
ENDBRANCH   9  11
ENDBRANCH   6   9
TORSDOF 5
ENDMDL
MODEL       73
REMARK 921   NORMALIZED FREE ENERGY PREDICTED BY IDOCK:   -5.39 KCAL/MOL
REMARK 922        TOTAL FREE ENERGY PREDICTED BY IDOCK:   -9.19 KCAL/MOL
REMARK 923 INTER-LIGAND FREE ENERGY PREDICTED BY IDOCK:   -7.07 KCAL/MOL
REMARK 924 INTRA-LIGAND FREE ENERGY PREDICTED BY IDOCK:   -2.11 KCAL/MOL
REMARK 927      BINDING AFFINITY PREDICTED BY RF-SCORE:    0.00 PKD
ROOT
HETATM    1  C   UNL     1     -11.240   6.020  69.540  1.00  0.00    -0.416 C  
HETATM    2  C   UNL     1      -9.899   6.134  68.875  1.00  0.00    -0.167 A  
HETATM    3  C   UNL     1      -9.555   5.281  67.821  1.00  0.00    -0.157 A  
HETATM    4  C   UNL     1      -8.284   5.334  67.219  1.00  0.00    -0.104 A  
HETATM    5  C   UNL     1      -7.986   4.372  66.100  1.00  0.00    -0.099 C  
HETATM    6  C   UNL     1      -7.338   6.269  67.690  1.00  0.00    -0.084 A  
HETATM    7  C   UNL     1      -7.690   7.139  68.735  1.00  0.00    -0.116 A  
HETATM    8  C   UNL     1      -8.960   7.070  69.322  1.00  0.00    -0.138 A  
ENDROOT
BRANCH   6   9
HETATM    9  C   UNL     1      -5.953   6.294  67.123  1.00  0.00    -0.021 C  
HETATM   10  O   UNL     1      -5.151   5.382  67.255  1.00  0.00    -0.004 OA 
BRANCH   9  11
HETATM   11  O   UNL     1      -5.727   7.442  66.435  1.00  0.00    -0.030 OA 
BRANCH  11  12
HETATM   12  C   UNL     1      -6.120   7.390  65.051  1.00  0.00    -0.038 C  
BRANCH  12  13
HETATM   13  C   UNL     1      -7.147   8.456  64.758  1.00  0.00    -0.080 A  
HETATM   14  C   UNL     1      -6.781   9.650  64.125  1.00  0.00    -0.113 A  
HETATM   15  C   UNL     1      -7.698  10.695  63.995  1.00  0.00     0.166 A  
HETATM   16  C   UNL     1      -9.001  10.565  64.497  1.00  0.00    -0.231 A  
HETATM   17  C   UNL     1      -9.393   9.327  65.031  1.00  0.00    -0.196 A  
HETATM   18  C   UNL     1      -9.938  11.770  64.491  1.00  0.00    -0.273 C  
HETATM   19  C   UNL     1      -8.470   8.291  65.178  1.00  0.00    -0.164 A  
HETATM   20  C   UNL     1     -10.897  11.771  65.698  1.00  0.00    -0.292 C  
HETATM   21  C   UNL     1     -10.722  11.847  63.161  1.00  0.00    -0.244 C  
HETATM   22  O   UNL     1     -12.117  11.726  65.535  1.00  0.00    -0.316 OA 
HETATM   23  N   UNL     1     -11.558  13.052  63.046  1.00  0.00    -0.716 NA 
HETATM   24  N   UNL     1     -10.263  11.792  66.935  1.00  0.00    -0.206 N  
HETATM   25  H1  UNL     1     -12.075  13.103  62.168  1.00  0.00     0.000 HD 
HETATM   26  H2  UNL     1     -11.000  13.894  63.188  1.00  0.00     0.000 HD 
HETATM   27  H   UNL     1      -9.243  11.785  66.938  1.00  0.00     0.000 HD 
BRANCH  24  28
HETATM   28  C   UNL     1     -10.916  11.824  68.191  1.00  0.00    -0.228 A  
HETATM   29  C   UNL     1     -11.306  13.016  68.804  1.00  0.00    -0.332 A  
HETATM   30  C   UNL     1     -11.984  13.011  70.024  1.00  0.00    -0.383 A  
HETATM   31  C   UNL     1     -12.273  11.803  70.667  1.00  0.00    -0.443 A  
HETATM   32  C   UNL     1     -12.959  11.752  71.883  1.00  0.00    -0.330 A  
HETATM   33  N   UNL     1     -13.245  10.613  72.552  1.00  0.00     0.098 NA 
HETATM   34  C   UNL     1     -12.830   9.464  71.982  1.00  0.00    -0.414 A  
HETATM   35  C   UNL     1     -12.151   9.397  70.772  1.00  0.00    -0.270 A  
HETATM   36  C   UNL     1     -11.860  10.587  70.088  1.00  0.00    -0.404 A  
HETATM   37  C   UNL     1     -11.179  10.612  68.849  1.00  0.00    -0.333 A  
ENDBRANCH  24  28
ENDBRANCH  12  13
ENDBRANCH  11  12
ENDBRANCH   9  11
ENDBRANCH   6   9
TORSDOF 5
ENDMDL
MODEL       74
REMARK 921   NORMALIZED FREE ENERGY PREDICTED BY IDOCK:   -5.36 KCAL/MOL
REMARK 922        TOTAL FREE ENERGY PREDICTED BY IDOCK:   -9.15 KCAL/MOL
REMARK 923 INTER-LIGAND FREE ENERGY PREDICTED BY IDOCK:   -9.08 KCAL/MOL
REMARK 924 INTRA-LIGAND FREE ENERGY PREDICTED BY IDOCK:   -0.07 KCAL/MOL
REMARK 927      BINDING AFFINITY PREDICTED BY RF-SCORE:    0.00 PKD
ROOT
HETATM    1  C   UNL     1     -13.671  16.012  72.786  1.00  0.00    -0.436 C  
HETATM    2  C   UNL     1     -13.201  14.755  72.113  1.00  0.00    -0.452 A  
HETATM    3  C   UNL     1     -12.355  14.819  71.001  1.00  0.00    -0.397 A  
HETATM    4  C   UNL     1     -11.946  13.657  70.322  1.00  0.00    -0.397 A  
HETATM    5  C   UNL     1     -11.046  13.812  69.125  1.00  0.00    -0.282 C  
HETATM    6  C   UNL     1     -12.401  12.400  70.773  1.00  0.00    -0.377 A  
HETATM    7  C   UNL     1     -13.235  12.334  71.902  1.00  0.00    -0.481 A  
HETATM    8  C   UNL     1     -13.632  13.503  72.564  1.00  0.00    -0.674 A  
ENDROOT
BRANCH   6   9
HETATM    9  C   UNL     1     -12.048  11.154  70.023  1.00  0.00    -0.359 C  
HETATM   10  O   UNL     1     -12.307  10.979  68.842  1.00  0.00    -0.516 OA 
BRANCH   9  11
HETATM   11  O   UNL     1     -11.391  10.273  70.820  1.00  0.00    -0.328 OA 
BRANCH  11  12
HETATM   12  C   UNL     1     -12.251   9.473  71.653  1.00  0.00    -0.398 C  
BRANCH  12  13
HETATM   13  C   UNL     1     -11.588   8.157  71.978  1.00  0.00    -0.389 A  
HETATM   14  C   UNL     1     -10.460   8.107  72.807  1.00  0.00    -0.385 A  
HETATM   15  C   UNL     1      -9.758   6.913  72.981  1.00  0.00    -0.190 A  
HETATM   16  C   UNL     1     -10.172   5.743  72.328  1.00  0.00    -0.233 A  
HETATM   17  C   UNL     1     -11.364   5.775  71.587  1.00  0.00    -0.216 A  
HETATM   18  C   UNL     1      -9.305   4.489  72.399  1.00  0.00    -0.159 C  
HETATM   19  C   UNL     1     -12.054   6.973  71.398  1.00  0.00    -0.396 A  
HETATM   20  C   UNL     1      -9.380   3.651  71.108  1.00  0.00    -0.148 C  
HETATM   21  C   UNL     1      -9.676   3.637  73.635  1.00  0.00    -0.107 C  
HETATM   22  O   UNL     1      -9.799   2.493  71.130  1.00  0.00    -0.142 OA 
HETATM   23  N   UNL     1      -8.797   2.473  73.825  1.00  0.00    -0.074 NA 
HETATM   24  N   UNL     1      -8.973   4.326  69.961  1.00  0.00    -0.087 N  
HETATM   25  H1  UNL     1      -9.042   1.911  74.640  1.00  0.00     0.000 HD 
HETATM   26  H2  UNL     1      -7.820   2.760  73.863  1.00  0.00     0.000 HD 
HETATM   27  H   UNL     1      -8.687   5.299  70.068  1.00  0.00     0.000 HD 
BRANCH  24  28
HETATM   28  C   UNL     1      -8.924   3.773  68.659  1.00  0.00    -0.124 A  
HETATM   29  C   UNL     1      -8.115   2.681  68.337  1.00  0.00    -0.068 A  
HETATM   30  C   UNL     1      -8.118   2.135  67.054  1.00  0.00    -0.076 A  
HETATM   31  C   UNL     1      -8.926   2.684  66.054  1.00  0.00    -0.133 A  
HETATM   32  C   UNL     1      -8.969   2.162  64.759  1.00  0.00    -0.123 A  
HETATM   33  N   UNL     1      -9.719   2.668  63.754  1.00  0.00    -0.130 NA 
HETATM   34  C   UNL     1     -10.467   3.749  64.052  1.00  0.00    -0.261 A  
HETATM   35  C   UNL     1     -10.510   4.343  65.307  1.00  0.00    -0.204 A  
HETATM   36  C   UNL     1      -9.727   3.808  66.341  1.00  0.00    -0.142 A  
HETATM   37  C   UNL     1      -9.714   4.345  67.649  1.00  0.00    -0.198 A  
ENDBRANCH  24  28
ENDBRANCH  12  13
ENDBRANCH  11  12
ENDBRANCH   9  11
ENDBRANCH   6   9
TORSDOF 5
ENDMDL
MODEL       75
REMARK 921   NORMALIZED FREE ENERGY PREDICTED BY IDOCK:   -5.36 KCAL/MOL
REMARK 922        TOTAL FREE ENERGY PREDICTED BY IDOCK:   -9.15 KCAL/MOL
REMARK 923 INTER-LIGAND FREE ENERGY PREDICTED BY IDOCK:   -7.34 KCAL/MOL
REMARK 924 INTRA-LIGAND FREE ENERGY PREDICTED BY IDOCK:   -1.81 KCAL/MOL
REMARK 927      BINDING AFFINITY PREDICTED BY RF-SCORE:    0.00 PKD
ROOT
HETATM    1  C   UNL     1      -9.861  10.666  64.499  1.00  0.00    -0.388 C  
HETATM    2  C   UNL     1     -10.397  10.858  65.888  1.00  0.00    -0.310 A  
HETATM    3  C   UNL     1      -9.975  10.027  66.932  1.00  0.00    -0.263 A  
HETATM    4  C   UNL     1     -10.504  10.153  68.229  1.00  0.00    -0.244 A  
HETATM    5  C   UNL     1     -10.009   9.212  69.295  1.00  0.00    -0.187 C  
HETATM    6  C   UNL     1     -11.482  11.140  68.481  1.00  0.00    -0.371 A  
HETATM    7  C   UNL     1     -11.891  11.987  67.437  1.00  0.00    -0.268 A  
HETATM    8  C   UNL     1     -11.353  11.844  66.152  1.00  0.00    -0.383 A  
ENDROOT
BRANCH   6   9
HETATM    9  C   UNL     1     -12.120  11.244  69.830  1.00  0.00    -0.341 C  
HETATM   10  O   UNL     1     -11.861  12.124  70.636  1.00  0.00    -0.241 OA 
BRANCH   9  11
HETATM   11  O   UNL     1     -13.029  10.253  70.020  1.00  0.00    -0.084 OA 
BRANCH  11  12
HETATM   12  C   UNL     1     -13.237   9.896  71.399  1.00  0.00    -0.400 C  
BRANCH  12  13
HETATM   13  C   UNL     1     -12.465   8.644  71.737  1.00  0.00    -0.397 A  
HETATM   14  C   UNL     1     -11.441   8.667  72.692  1.00  0.00    -0.147 A  
HETATM   15  C   UNL     1     -10.629   7.549  72.892  1.00  0.00    -0.390 A  
HETATM   16  C   UNL     1     -10.825   6.384  72.137  1.00  0.00    -0.272 A  
HETATM   17  C   UNL     1     -11.920   6.330  71.260  1.00  0.00    -0.178 A  
HETATM   18  C   UNL     1      -9.830   5.232  72.251  1.00  0.00    -0.209 C  
HETATM   19  C   UNL     1     -12.719   7.454  71.048  1.00  0.00    -0.247 A  
HETATM   20  C   UNL     1      -9.658   4.473  70.921  1.00  0.00    -0.180 C  
HETATM   21  C   UNL     1     -10.238   4.269  73.390  1.00  0.00    -0.159 C  
HETATM   22  O   UNL     1      -9.938   3.277  70.835  1.00  0.00    -0.096 OA 
HETATM   23  N   UNL     1      -9.256   3.199  73.627  1.00  0.00    -0.085 NA 
HETATM   24  N   UNL     1      -9.206   5.259  69.866  1.00  0.00    -0.132 N  
HETATM   25  H1  UNL     1      -9.525   2.564  74.378  1.00  0.00     0.000 HD 
HETATM   26  H2  UNL     1      -8.330   3.590  73.797  1.00  0.00     0.000 HD 
HETATM   27  H   UNL     1      -9.050   6.249  70.054  1.00  0.00     0.000 HD 
BRANCH  24  28
HETATM   28  C   UNL     1      -8.943   4.797  68.554  1.00  0.00    -0.111 A  
HETATM   29  C   UNL     1      -7.702   4.283  68.173  1.00  0.00    -0.075 A  
HETATM   30  C   UNL     1      -7.487   3.800  66.883  1.00  0.00    -0.079 A  
HETATM   31  C   UNL     1      -8.514   3.835  65.934  1.00  0.00    -0.110 A  
HETATM   32  C   UNL     1      -8.346   3.351  64.634  1.00  0.00    -0.093 A  
HETATM   33  N   UNL     1      -9.300   3.380  63.678  1.00  0.00    -0.104 NA 
HETATM   34  C   UNL     1     -10.485   3.917  64.032  1.00  0.00    -0.224 A  
HETATM   35  C   UNL     1     -10.766   4.417  65.297  1.00  0.00    -0.150 A  
HETATM   36  C   UNL     1      -9.766   4.380  66.280  1.00  0.00    -0.224 A  
HETATM   37  C   UNL     1      -9.966   4.861  67.595  1.00  0.00    -0.192 A  
ENDBRANCH  24  28
ENDBRANCH  12  13
ENDBRANCH  11  12
ENDBRANCH   9  11
ENDBRANCH   6   9
TORSDOF 5
ENDMDL
MODEL       76
REMARK 921   NORMALIZED FREE ENERGY PREDICTED BY IDOCK:   -5.35 KCAL/MOL
REMARK 922        TOTAL FREE ENERGY PREDICTED BY IDOCK:   -9.14 KCAL/MOL
REMARK 923 INTER-LIGAND FREE ENERGY PREDICTED BY IDOCK:   -7.39 KCAL/MOL
REMARK 924 INTRA-LIGAND FREE ENERGY PREDICTED BY IDOCK:   -1.75 KCAL/MOL
REMARK 927      BINDING AFFINITY PREDICTED BY RF-SCORE:    0.00 PKD
ROOT
HETATM    1  C   UNL     1      -8.022   8.251  64.182  1.00  0.00    -0.148 C  
HETATM    2  C   UNL     1      -7.915   7.323  65.357  1.00  0.00    -0.125 A  
HETATM    3  C   UNL     1      -6.727   6.626  65.605  1.00  0.00    -0.051 A  
HETATM    4  C   UNL     1      -6.621   5.710  66.668  1.00  0.00    -0.056 A  
HETATM    5  C   UNL     1      -5.314   4.989  66.860  1.00  0.00    -0.012 C  
HETATM    6  C   UNL     1      -7.739   5.492  67.501  1.00  0.00    -0.096 A  
HETATM    7  C   UNL     1      -8.926   6.206  67.265  1.00  0.00    -0.112 A  
HETATM    8  C   UNL     1      -9.011   7.113  66.200  1.00  0.00    -0.168 A  
ENDROOT
BRANCH   6   9
HETATM    9  C   UNL     1      -7.682   4.465  68.589  1.00  0.00    -0.071 C  
HETATM   10  O   UNL     1      -7.931   3.282  68.417  1.00  0.00    -0.058 OA 
BRANCH   9  11
HETATM   11  O   UNL     1      -7.297   5.022  69.766  1.00  0.00    -0.054 OA 
BRANCH  11  12
HETATM   12  C   UNL     1      -8.150   4.698  70.880  1.00  0.00    -0.082 C  
BRANCH  12  13
HETATM   13  C   UNL     1      -9.193   5.772  71.069  1.00  0.00    -0.166 A  
HETATM   14  C   UNL     1     -10.545   5.440  71.228  1.00  0.00    -0.276 A  
HETATM   15  C   UNL     1     -11.524   6.435  71.247  1.00  0.00    -0.371 A  
HETATM   16  C   UNL     1     -11.169   7.784  71.106  1.00  0.00    -0.285 A  
HETATM   17  C   UNL     1      -9.807   8.118  71.057  1.00  0.00    -0.212 A  
HETATM   18  C   UNL     1     -12.261   8.842  70.967  1.00  0.00    -0.248 C  
HETATM   19  C   UNL     1      -8.831   7.122  71.018  1.00  0.00    -0.145 A  
HETATM   20  C   UNL     1     -11.832  10.009  70.056  1.00  0.00    -0.126 C  
HETATM   21  C   UNL     1     -12.703   9.358  72.356  1.00  0.00    -0.278 C  
HETATM   22  O   UNL     1     -11.770  11.160  70.490  1.00  0.00    -0.333 OA 
HETATM   23  N   UNL     1     -13.834  10.297  72.296  1.00  0.00    -0.380 NA 
HETATM   24  N   UNL     1     -11.504   9.633  68.758  1.00  0.00    -0.434 N  
HETATM   25  H1  UNL     1     -14.126  10.636  73.212  1.00  0.00     0.000 HD 
HETATM   26  H2  UNL     1     -14.621   9.883  71.795  1.00  0.00     0.000 HD 
HETATM   27  H   UNL     1     -11.554   8.639  68.532  1.00  0.00     0.000 HD 
BRANCH  24  28
HETATM   28  C   UNL     1     -11.106  10.515  67.725  1.00  0.00    -0.317 A  
HETATM   29  C   UNL     1     -10.003  10.265  66.906  1.00  0.00    -0.259 A  
HETATM   30  C   UNL     1      -9.662  11.135  65.871  1.00  0.00    -0.268 A  
HETATM   31  C   UNL     1     -10.413  12.292  65.642  1.00  0.00    -0.293 A  
HETATM   32  C   UNL     1     -10.113  13.185  64.611  1.00  0.00    -0.226 A  
HETATM   33  N   UNL     1     -10.796  14.324  64.362  1.00  0.00    -0.262 NA 
HETATM   34  C   UNL     1     -11.835  14.589  65.180  1.00  0.00    -0.374 A  
HETATM   35  C   UNL     1     -12.229  13.767  66.228  1.00  0.00    -0.489 A  
HETATM   36  C   UNL     1     -11.510  12.588  66.475  1.00  0.00    -0.418 A  
HETATM   37  C   UNL     1     -11.844  11.692  67.516  1.00  0.00    -0.196 A  
ENDBRANCH  24  28
ENDBRANCH  12  13
ENDBRANCH  11  12
ENDBRANCH   9  11
ENDBRANCH   6   9
TORSDOF 5
ENDMDL
MODEL       77
REMARK 921   NORMALIZED FREE ENERGY PREDICTED BY IDOCK:   -5.21 KCAL/MOL
REMARK 922        TOTAL FREE ENERGY PREDICTED BY IDOCK:   -8.96 KCAL/MOL
REMARK 923 INTER-LIGAND FREE ENERGY PREDICTED BY IDOCK:   -7.97 KCAL/MOL
REMARK 924 INTRA-LIGAND FREE ENERGY PREDICTED BY IDOCK:   -0.99 KCAL/MOL
REMARK 927      BINDING AFFINITY PREDICTED BY RF-SCORE:    0.00 PKD
ROOT
HETATM    1  C   UNL     1     -12.346  14.481  64.688  1.00  0.00    -0.419 C  
HETATM    2  C   UNL     1     -11.990  13.561  65.820  1.00  0.00    -0.439 A  
HETATM    3  C   UNL     1     -12.089  13.996  67.146  1.00  0.00    -0.436 A  
HETATM    4  C   UNL     1     -11.709  13.170  68.219  1.00  0.00    -0.384 A  
HETATM    5  C   UNL     1     -11.832  13.716  69.617  1.00  0.00    -0.396 C  
HETATM    6  C   UNL     1     -11.216  11.875  67.950  1.00  0.00    -0.325 A  
HETATM    7  C   UNL     1     -11.135  11.431  66.620  1.00  0.00    -0.333 A  
HETATM    8  C   UNL     1     -11.517  12.269  65.565  1.00  0.00    -0.408 A  
ENDROOT
BRANCH   6   9
HETATM    9  C   UNL     1     -10.729  11.005  69.066  1.00  0.00    -0.219 C  
HETATM   10  O   UNL     1      -9.561  10.948  69.420  1.00  0.00    -0.114 OA 
BRANCH   9  11
HETATM   11  O   UNL     1     -11.753  10.318  69.634  1.00  0.00    -0.227 OA 
BRANCH  11  12
HETATM   12  C   UNL     1     -11.666  10.201  71.066  1.00  0.00    -0.382 C  
BRANCH  12  13
HETATM   13  C   UNL     1     -11.164   8.830  71.449  1.00  0.00    -0.362 A  
HETATM   14  C   UNL     1     -10.114   8.680  72.364  1.00  0.00    -0.321 A  
HETATM   15  C   UNL     1      -9.550   7.424  72.600  1.00  0.00    -0.204 A  
HETATM   16  C   UNL     1     -10.026   6.293  71.922  1.00  0.00    -0.193 A  
HETATM   17  C   UNL     1     -11.147   6.432  71.089  1.00  0.00    -0.344 A  
HETATM   18  C   UNL     1      -9.295   4.961  72.068  1.00  0.00    -0.175 C  
HETATM   19  C   UNL     1     -11.697   7.690  70.840  1.00  0.00    -0.291 A  
HETATM   20  C   UNL     1      -9.351   4.118  70.778  1.00  0.00    -0.153 C  
HETATM   21  C   UNL     1      -9.844   4.165  73.274  1.00  0.00    -0.128 C  
HETATM   22  O   UNL     1      -9.883   3.007  70.773  1.00  0.00    -0.128 OA 
HETATM   23  N   UNL     1      -9.103   2.923  73.539  1.00  0.00    -0.084 NA 
HETATM   24  N   UNL     1      -8.792   4.735  69.664  1.00  0.00    -0.085 N  
HETATM   25  H1  UNL     1      -9.465   2.398  74.335  1.00  0.00     0.000 HD 
HETATM   26  H2  UNL     1      -8.107   3.113  73.652  1.00  0.00     0.000 HD 
HETATM   27  H   UNL     1      -8.420   5.676  69.788  1.00  0.00     0.000 HD 
BRANCH  24  28
HETATM   28  C   UNL     1      -8.696   4.162  68.373  1.00  0.00    -0.099 A  
HETATM   29  C   UNL     1      -7.707   3.237  68.034  1.00  0.00    -0.063 A  
HETATM   30  C   UNL     1      -7.663   2.663  66.763  1.00  0.00    -0.071 A  
HETATM   31  C   UNL     1      -8.607   3.016  65.794  1.00  0.00    -0.116 A  
HETATM   32  C   UNL     1      -8.607   2.457  64.514  1.00  0.00    -0.091 A  
HETATM   33  N   UNL     1      -9.485   2.780  63.538  1.00  0.00    -0.097 NA 
HETATM   34  C   UNL     1     -10.413   3.706  63.851  1.00  0.00    -0.270 A  
HETATM   35  C   UNL     1     -10.513   4.318  65.094  1.00  0.00    -0.195 A  
HETATM   36  C   UNL     1      -9.595   3.974  66.098  1.00  0.00    -0.205 A  
HETATM   37  C   UNL     1      -9.626   4.542  67.392  1.00  0.00    -0.209 A  
ENDBRANCH  24  28
ENDBRANCH  12  13
ENDBRANCH  11  12
ENDBRANCH   9  11
ENDBRANCH   6   9
TORSDOF 5
ENDMDL
MODEL       78
REMARK 921   NORMALIZED FREE ENERGY PREDICTED BY IDOCK:   -5.20 KCAL/MOL
REMARK 922        TOTAL FREE ENERGY PREDICTED BY IDOCK:   -8.95 KCAL/MOL
REMARK 923 INTER-LIGAND FREE ENERGY PREDICTED BY IDOCK:   -8.33 KCAL/MOL
REMARK 924 INTRA-LIGAND FREE ENERGY PREDICTED BY IDOCK:   -0.61 KCAL/MOL
REMARK 927      BINDING AFFINITY PREDICTED BY RF-SCORE:    0.00 PKD
ROOT
HETATM    1  C   UNL     1     -12.674  14.729  71.885  1.00  0.00    -0.396 C  
HETATM    2  C   UNL     1     -12.085  14.945  70.521  1.00  0.00    -0.378 A  
HETATM    3  C   UNL     1     -11.216  16.016  70.285  1.00  0.00    -0.397 A  
HETATM    4  C   UNL     1     -10.696  16.270  69.003  1.00  0.00    -0.300 A  
HETATM    5  C   UNL     1      -9.778  17.451  68.827  1.00  0.00    -0.282 C  
HETATM    6  C   UNL     1     -11.060  15.424  67.933  1.00  0.00    -0.323 A  
HETATM    7  C   UNL     1     -11.916  14.337  68.174  1.00  0.00    -0.343 A  
HETATM    8  C   UNL     1     -12.425  14.102  69.458  1.00  0.00    -0.165 A  
ENDROOT
BRANCH   6   9
HETATM    9  C   UNL     1     -10.586  15.717  66.544  1.00  0.00    -0.306 C  
HETATM   10  O   UNL     1     -10.715  16.802  65.999  1.00  0.00    -0.257 OA 
BRANCH   9  11
HETATM   11  O   UNL     1      -9.983  14.632  65.994  1.00  0.00    -0.284 OA 
BRANCH  11  12
HETATM   12  C   UNL     1      -9.064  13.956  66.872  1.00  0.00    -0.245 C  
BRANCH  12  13
HETATM   13  C   UNL     1      -9.009  12.485  66.540  1.00  0.00    -0.133 A  
HETATM   14  C   UNL     1      -9.761  11.960  65.482  1.00  0.00    -0.237 A  
HETATM   15  C   UNL     1      -9.830  10.581  65.273  1.00  0.00    -0.345 A  
HETATM   16  C   UNL     1      -9.146   9.699  66.123  1.00  0.00    -0.201 A  
HETATM   17  C   UNL     1      -8.308  10.236  67.113  1.00  0.00    -0.122 A  
HETATM   18  C   UNL     1      -9.360   8.194  65.981  1.00  0.00    -0.184 C  
HETATM   19  C   UNL     1      -8.256  11.613  67.332  1.00  0.00    -0.153 A  
HETATM   20  C   UNL     1      -9.273   7.461  67.335  1.00  0.00    -0.132 C  
HETATM   21  C   UNL     1      -8.366   7.594  64.961  1.00  0.00    -0.071 C  
HETATM   22  O   UNL     1      -8.418   6.597  67.531  1.00  0.00    -0.120 OA 
HETATM   23  N   UNL     1      -8.597   6.166  64.694  1.00  0.00    -0.345 NA 
HETATM   24  N   UNL     1     -10.201   7.888  68.279  1.00  0.00    -0.199 N  
HETATM   25  H1  UNL     1      -7.941   5.769  64.021  1.00  0.00     0.000 HD 
HETATM   26  H2  UNL     1      -9.560   6.004  64.400  1.00  0.00     0.000 HD 
HETATM   27  H   UNL     1     -10.830   8.644  68.009  1.00  0.00     0.000 HD 
BRANCH  24  28
HETATM   28  C   UNL     1     -10.345   7.358  69.584  1.00  0.00    -0.223 A  
HETATM   29  C   UNL     1     -11.272   6.360  69.892  1.00  0.00    -0.485 A  
HETATM   30  C   UNL     1     -11.361   5.832  71.180  1.00  0.00    -0.138 A  
HETATM   31  C   UNL     1     -10.528   6.306  72.198  1.00  0.00    -0.228 A  
HETATM   32  C   UNL     1     -10.576   5.798  73.498  1.00  0.00    -0.269 A  
HETATM   33  N   UNL     1      -9.806   6.235  74.519  1.00  0.00    -0.290 NA 
HETATM   34  C   UNL     1      -8.941   7.229  74.234  1.00  0.00    -0.208 A  
HETATM   35  C   UNL     1      -8.802   7.800  72.975  1.00  0.00    -0.247 A  
HETATM   36  C   UNL     1      -9.607   7.337  71.924  1.00  0.00    -0.164 A  
HETATM   37  C   UNL     1      -9.528   7.857  70.612  1.00  0.00    -0.162 A  
ENDBRANCH  24  28
ENDBRANCH  12  13
ENDBRANCH  11  12
ENDBRANCH   9  11
ENDBRANCH   6   9
TORSDOF 5
ENDMDL
MODEL       79
REMARK 921   NORMALIZED FREE ENERGY PREDICTED BY IDOCK:   -5.17 KCAL/MOL
REMARK 922        TOTAL FREE ENERGY PREDICTED BY IDOCK:   -8.91 KCAL/MOL
REMARK 923 INTER-LIGAND FREE ENERGY PREDICTED BY IDOCK:   -8.43 KCAL/MOL
REMARK 924 INTRA-LIGAND FREE ENERGY PREDICTED BY IDOCK:   -0.48 KCAL/MOL
REMARK 927      BINDING AFFINITY PREDICTED BY RF-SCORE:    0.00 PKD
ROOT
HETATM    1  C   UNL     1      -5.400  20.337  65.049  1.00  0.00    -0.197 C  
HETATM    2  C   UNL     1      -6.487  20.110  66.058  1.00  0.00    -0.233 A  
HETATM    3  C   UNL     1      -6.179  19.980  67.417  1.00  0.00    -0.211 A  
HETATM    4  C   UNL     1      -7.175  19.712  68.373  1.00  0.00    -0.355 A  
HETATM    5  C   UNL     1      -6.761  19.573  69.813  1.00  0.00    -0.265 C  
HETATM    6  C   UNL     1      -8.514  19.571  67.950  1.00  0.00    -0.353 A  
HETATM    7  C   UNL     1      -8.827  19.721  66.589  1.00  0.00    -0.418 A  
HETATM    8  C   UNL     1      -7.820  19.987  65.652  1.00  0.00    -0.113 A  
ENDROOT
BRANCH   6   9
HETATM    9  C   UNL     1      -9.583  19.207  68.933  1.00  0.00    -0.390 C  
HETATM   10  O   UNL     1     -10.069  19.996  69.728  1.00  0.00    -0.182 OA 
BRANCH   9  11
HETATM   11  O   UNL     1      -9.945  17.905  68.802  1.00  0.00    -0.359 OA 
BRANCH  11  12
HETATM   12  C   UNL     1      -8.948  17.073  68.178  1.00  0.00    -0.227 C  
BRANCH  12  13
HETATM   13  C   UNL     1      -9.607  16.037  67.302  1.00  0.00    -0.227 A  
HETATM   14  C   UNL     1     -10.993  16.044  67.099  1.00  0.00    -0.183 A  
HETATM   15  C   UNL     1     -11.618  14.998  66.416  1.00  0.00    -0.172 A  
HETATM   16  C   UNL     1     -10.866  13.923  65.923  1.00  0.00    -0.287 A  
HETATM   17  C   UNL     1      -9.468  13.975  66.033  1.00  0.00    -0.164 A  
HETATM   18  C   UNL     1     -11.580  12.713  65.324  1.00  0.00    -0.389 C  
HETATM   19  C   UNL     1      -8.847  15.011  66.733  1.00  0.00    -0.299 A  
HETATM   20  C   UNL     1     -10.822  11.397  65.588  1.00  0.00    -0.218 C  
HETATM   21  C   UNL     1     -11.825  12.917  63.811  1.00  0.00    -0.504 C  
HETATM   22  O   UNL     1     -10.404  10.711  64.655  1.00  0.00    -0.345 OA 
HETATM   23  N   UNL     1     -12.611  11.836  63.198  1.00  0.00    -0.905 NA 
HETATM   24  N   UNL     1     -10.641  11.099  66.935  1.00  0.00    -0.246 N  
HETATM   25  H1  UNL     1     -12.773  11.971  62.200  1.00  0.00     0.000 HD 
HETATM   26  H2  UNL     1     -13.493  11.704  63.693  1.00  0.00     0.000 HD 
HETATM   27  H   UNL     1     -10.998  11.771  67.614  1.00  0.00     0.000 HD 
BRANCH  24  28
HETATM   28  C   UNL     1     -10.003   9.941  67.439  1.00  0.00    -0.189 A  
HETATM   29  C   UNL     1     -10.667   8.721  67.583  1.00  0.00    -0.206 A  
HETATM   30  C   UNL     1      -9.998   7.587  68.046  1.00  0.00    -0.204 A  
HETATM   31  C   UNL     1      -8.645   7.656  68.394  1.00  0.00    -0.124 A  
HETATM   32  C   UNL     1      -7.935   6.544  68.851  1.00  0.00    -0.111 A  
HETATM   33  N   UNL     1      -6.634   6.564  69.215  1.00  0.00    -0.042 NA 
HETATM   34  C   UNL     1      -6.004   7.753  69.119  1.00  0.00    -0.034 A  
HETATM   35  C   UNL     1      -6.609   8.918  68.667  1.00  0.00    -0.054 A  
HETATM   36  C   UNL     1      -7.960   8.883  68.292  1.00  0.00    -0.105 A  
HETATM   37  C   UNL     1      -8.653  10.020  67.816  1.00  0.00    -0.118 A  
ENDBRANCH  24  28
ENDBRANCH  12  13
ENDBRANCH  11  12
ENDBRANCH   9  11
ENDBRANCH   6   9
TORSDOF 5
ENDMDL
MODEL       80
REMARK 921   NORMALIZED FREE ENERGY PREDICTED BY IDOCK:   -5.16 KCAL/MOL
REMARK 922        TOTAL FREE ENERGY PREDICTED BY IDOCK:   -8.89 KCAL/MOL
REMARK 923 INTER-LIGAND FREE ENERGY PREDICTED BY IDOCK:   -7.84 KCAL/MOL
REMARK 924 INTRA-LIGAND FREE ENERGY PREDICTED BY IDOCK:   -1.06 KCAL/MOL
REMARK 927      BINDING AFFINITY PREDICTED BY RF-SCORE:    0.00 PKD
ROOT
HETATM    1  C   UNL     1     -13.084  12.838  71.417  1.00  0.00    -0.318 C  
HETATM    2  C   UNL     1     -12.404  13.924  70.634  1.00  0.00    -0.451 A  
HETATM    3  C   UNL     1     -11.129  13.720  70.097  1.00  0.00     0.231 A  
HETATM    4  C   UNL     1     -10.451  14.741  69.407  1.00  0.00    -0.210 A  
HETATM    5  C   UNL     1      -9.075  14.448  68.871  1.00  0.00    -0.069 C  
HETATM    6  C   UNL     1     -11.073  15.999  69.256  1.00  0.00    -0.331 A  
HETATM    7  C   UNL     1     -12.362  16.198  69.777  1.00  0.00     0.288 A  
HETATM    8  C   UNL     1     -13.020  15.168  70.462  1.00  0.00    -0.366 A  
ENDROOT
BRANCH   6   9
HETATM    9  C   UNL     1     -10.344  17.128  68.597  1.00  0.00    -0.359 C  
HETATM   10  O   UNL     1      -9.225  17.492  68.922  1.00  0.00    -0.245 OA 
BRANCH   9  11
HETATM   11  O   UNL     1     -11.081  17.666  67.591  1.00  0.00    -0.208 OA 
BRANCH  11  12
HETATM   12  C   UNL     1     -10.421  17.670  66.311  1.00  0.00    -0.292 C  
BRANCH  12  13
HETATM   13  C   UNL     1     -10.373  16.272  65.743  1.00  0.00    -0.393 A  
HETATM   14  C   UNL     1     -11.399  15.799  64.916  1.00  0.00    -0.284 A  
HETATM   15  C   UNL     1     -11.432  14.460  64.518  1.00  0.00    -0.352 A  
HETATM   16  C   UNL     1     -10.436  13.569  64.943  1.00  0.00    -0.417 A  
HETATM   17  C   UNL     1      -9.354  14.074  65.680  1.00  0.00     0.186 A  
HETATM   18  C   UNL     1     -10.573  12.080  64.634  1.00  0.00    -0.351 C  
HETATM   19  C   UNL     1      -9.333  15.406  66.093  1.00  0.00    -0.367 A  
HETATM   20  C   UNL     1      -9.976  11.195  65.746  1.00  0.00    -0.245 C  
HETATM   21  C   UNL     1      -9.944  11.745  63.262  1.00  0.00    -0.410 C  
HETATM   22  O   UNL     1      -9.044  10.426  65.509  1.00  0.00    -0.160 OA 
HETATM   23  N   UNL     1     -10.145  10.346  62.855  1.00  0.00    -0.604 NA 
HETATM   24  N   UNL     1     -10.556  11.376  66.997  1.00  0.00    -0.236 N  
HETATM   25  H1  UNL     1      -9.730  10.126  61.950  1.00  0.00     0.000 HD 
HETATM   26  H2  UNL     1     -11.136  10.105  62.868  1.00  0.00     0.000 HD 
HETATM   27  H   UNL     1     -11.294  12.076  67.074  1.00  0.00     0.000 HD 
BRANCH  24  28
HETATM   28  C   UNL     1     -10.207  10.668  68.172  1.00  0.00    -0.168 A  
HETATM   29  C   UNL     1     -11.152  10.008  68.960  1.00  0.00    -0.221 A  
HETATM   30  C   UNL     1     -10.770   9.286  70.091  1.00  0.00    -0.269 A  
HETATM   31  C   UNL     1      -9.425   9.223  70.469  1.00  0.00    -0.317 A  
HETATM   32  C   UNL     1      -8.997   8.503  71.587  1.00  0.00    -0.219 A  
HETATM   33  N   UNL     1      -7.714   8.428  72.003  1.00  0.00    -0.132 NA 
HETATM   34  C   UNL     1      -6.806   9.102  71.269  1.00  0.00    -0.063 A  
HETATM   35  C   UNL     1      -7.118   9.839  70.134  1.00  0.00    -0.130 A  
HETATM   36  C   UNL     1      -8.454   9.909  69.713  1.00  0.00    -0.206 A  
HETATM   37  C   UNL     1      -8.860  10.632  68.567  1.00  0.00    -0.148 A  
ENDBRANCH  24  28
ENDBRANCH  12  13
ENDBRANCH  11  12
ENDBRANCH   9  11
ENDBRANCH   6   9
TORSDOF 5
ENDMDL
MODEL       81
REMARK 921   NORMALIZED FREE ENERGY PREDICTED BY IDOCK:   -5.14 KCAL/MOL
REMARK 922        TOTAL FREE ENERGY PREDICTED BY IDOCK:   -8.87 KCAL/MOL
REMARK 923 INTER-LIGAND FREE ENERGY PREDICTED BY IDOCK:   -8.81 KCAL/MOL
REMARK 924 INTRA-LIGAND FREE ENERGY PREDICTED BY IDOCK:   -0.07 KCAL/MOL
REMARK 927      BINDING AFFINITY PREDICTED BY RF-SCORE:    0.00 PKD
ROOT
HETATM    1  C   UNL     1     -10.581  20.408  65.467  1.00  0.00     0.051 C  
HETATM    2  C   UNL     1      -9.507  19.670  66.211  1.00  0.00    -0.474 A  
HETATM    3  C   UNL     1      -8.557  20.369  66.964  1.00  0.00    -0.370 A  
HETATM    4  C   UNL     1      -7.509  19.702  67.625  1.00  0.00    -0.304 A  
HETATM    5  C   UNL     1      -6.519  20.526  68.403  1.00  0.00    -0.324 C  
HETATM    6  C   UNL     1      -7.416  18.297  67.524  1.00  0.00    -0.216 A  
HETATM    7  C   UNL     1      -8.381  17.593  66.784  1.00  0.00    -0.276 A  
HETATM    8  C   UNL     1      -9.416  18.276  66.133  1.00  0.00    -0.165 A  
ENDROOT
BRANCH   6   9
HETATM    9  C   UNL     1      -6.267  17.569  68.149  1.00  0.00    -0.165 C  
HETATM   10  O   UNL     1      -5.259  17.246  67.540  1.00  0.00    -0.106 OA 
BRANCH   9  11
HETATM   11  O   UNL     1      -6.491  17.344  69.469  1.00  0.00    -0.249 OA 
BRANCH  11  12
HETATM   12  C   UNL     1      -6.725  15.963  69.803  1.00  0.00    -0.126 C  
BRANCH  12  13
HETATM   13  C   UNL     1      -7.975  15.465  69.119  1.00  0.00    -0.222 A  
HETATM   14  C   UNL     1      -9.200  16.120  69.296  1.00  0.00    -0.223 A  
HETATM   15  C   UNL     1     -10.380  15.571  68.789  1.00  0.00    -0.217 A  
HETATM   16  C   UNL     1     -10.355  14.354  68.094  1.00  0.00    -0.231 A  
HETATM   17  C   UNL     1      -9.113  13.760  67.825  1.00  0.00    -0.193 A  
HETATM   18  C   UNL     1     -11.668  13.689  67.688  1.00  0.00    -0.398 C  
HETATM   19  C   UNL     1      -7.937  14.298  68.349  1.00  0.00    -0.143 A  
HETATM   20  C   UNL     1     -11.578  12.150  67.717  1.00  0.00    -0.342 C  
HETATM   21  C   UNL     1     -12.130  14.191  66.301  1.00  0.00    -0.442 C  
HETATM   22  O   UNL     1     -11.757  11.488  66.694  1.00  0.00    -0.486 OA 
HETATM   23  N   UNL     1     -13.449  13.674  65.903  1.00  0.00    -0.200 NA 
HETATM   24  N   UNL     1     -11.254  11.618  68.960  1.00  0.00    -0.242 N  
HETATM   25  H1  UNL     1     -13.753  14.005  64.988  1.00  0.00     0.000 HD 
HETATM   26  H2  UNL     1     -14.148  13.882  66.616  1.00  0.00     0.000 HD 
HETATM   27  H   UNL     1     -11.087  12.275  69.722  1.00  0.00     0.000 HD 
BRANCH  24  28
HETATM   28  C   UNL     1     -11.136  10.238  69.255  1.00  0.00    -0.245 A  
HETATM   29  C   UNL     1     -10.656   9.310  68.329  1.00  0.00    -0.237 A  
HETATM   30  C   UNL     1     -10.515   7.964  68.664  1.00  0.00    -0.196 A  
HETATM   31  C   UNL     1     -10.870   7.511  69.938  1.00  0.00    -0.250 A  
HETATM   32  C   UNL     1     -10.735   6.174  70.320  1.00  0.00    -0.291 A  
HETATM   33  N   UNL     1     -11.081   5.685  71.531  1.00  0.00    -0.213 NA 
HETATM   34  C   UNL     1     -11.587   6.572  72.412  1.00  0.00    -0.255 A  
HETATM   35  C   UNL     1     -11.754   7.925  72.144  1.00  0.00    -0.385 A  
HETATM   36  C   UNL     1     -11.391   8.419  70.882  1.00  0.00    -0.298 A  
HETATM   37  C   UNL     1     -11.522   9.781  70.526  1.00  0.00    -0.370 A  
ENDBRANCH  24  28
ENDBRANCH  12  13
ENDBRANCH  11  12
ENDBRANCH   9  11
ENDBRANCH   6   9
TORSDOF 5
ENDMDL
MODEL       82
REMARK 921   NORMALIZED FREE ENERGY PREDICTED BY IDOCK:   -5.14 KCAL/MOL
REMARK 922        TOTAL FREE ENERGY PREDICTED BY IDOCK:   -8.87 KCAL/MOL
REMARK 923 INTER-LIGAND FREE ENERGY PREDICTED BY IDOCK:   -6.64 KCAL/MOL
REMARK 924 INTRA-LIGAND FREE ENERGY PREDICTED BY IDOCK:   -2.22 KCAL/MOL
REMARK 927      BINDING AFFINITY PREDICTED BY RF-SCORE:    0.00 PKD
ROOT
HETATM    1  C   UNL     1      -8.261  10.599  69.141  1.00  0.00    -0.142 C  
HETATM    2  C   UNL     1      -8.812   9.592  70.109  1.00  0.00    -0.266 A  
HETATM    3  C   UNL     1     -10.192   9.386  70.209  1.00  0.00    -0.295 A  
HETATM    4  C   UNL     1     -10.734   8.488  71.146  1.00  0.00    -0.290 A  
HETATM    5  C   UNL     1     -12.230   8.332  71.201  1.00  0.00    -0.253 C  
HETATM    6  C   UNL     1      -9.864   7.781  72.003  1.00  0.00    -0.226 A  
HETATM    7  C   UNL     1      -8.477   7.972  71.889  1.00  0.00    -0.176 A  
HETATM    8  C   UNL     1      -7.957   8.873  70.950  1.00  0.00    -0.173 A  
ENDROOT
BRANCH   6   9
HETATM    9  C   UNL     1     -10.416   6.879  73.063  1.00  0.00    -0.264 C  
HETATM   10  O   UNL     1     -10.522   7.201  74.236  1.00  0.00    -0.236 OA 
BRANCH   9  11
HETATM   11  O   UNL     1     -10.795   5.684  72.541  1.00  0.00    -0.224 OA 
BRANCH  11  12
HETATM   12  C   UNL     1      -9.742   4.704  72.480  1.00  0.00    -0.153 C  
BRANCH  12  13
HETATM   13  C   UNL     1      -9.315   4.484  71.050  1.00  0.00    -0.214 A  
HETATM   14  C   UNL     1      -8.013   4.066  70.746  1.00  0.00    -0.059 A  
HETATM   15  C   UNL     1      -7.575   4.012  69.421  1.00  0.00    -0.053 A  
HETATM   16  C   UNL     1      -8.433   4.375  68.374  1.00  0.00    -0.101 A  
HETATM   17  C   UNL     1      -9.767   4.687  68.677  1.00  0.00    -0.217 A  
HETATM   18  C   UNL     1      -7.891   4.466  66.949  1.00  0.00    -0.098 C  
HETATM   19  C   UNL     1     -10.198   4.760  70.002  1.00  0.00    -0.251 A  
HETATM   20  C   UNL     1      -8.583   5.573  66.129  1.00  0.00    -0.129 C  
HETATM   21  C   UNL     1      -7.999   3.098  66.235  1.00  0.00    -0.081 C  
HETATM   22  O   UNL     1      -9.213   5.301  65.107  1.00  0.00    -0.116 OA 
HETATM   23  N   UNL     1      -7.387   3.090  64.897  1.00  0.00    -0.069 NA 
HETATM   24  N   UNL     1      -8.452   6.850  66.664  1.00  0.00    -0.117 N  
HETATM   25  H1  UNL     1      -7.458   2.188  64.427  1.00  0.00     0.000 HD 
HETATM   26  H2  UNL     1      -6.417   3.401  64.942  1.00  0.00     0.000 HD 
HETATM   27  H   UNL     1      -7.940   6.939  67.542  1.00  0.00     0.000 HD 
BRANCH  24  28
HETATM   28  C   UNL     1      -8.970   8.035  66.090  1.00  0.00    -0.175 A  
HETATM   29  C   UNL     1     -10.034   8.741  66.656  1.00  0.00    -0.355 A  
HETATM   30  C   UNL     1     -10.495   9.928  66.086  1.00  0.00    -0.144 A  
HETATM   31  C   UNL     1      -9.908  10.429  64.921  1.00  0.00    -0.400 A  
HETATM   32  C   UNL     1     -10.331  11.619  64.324  1.00  0.00    -0.322 A  
HETATM   33  N   UNL     1      -9.808  12.133  63.189  1.00  0.00    -0.345 NA 
HETATM   34  C   UNL     1      -8.810  11.430  62.617  1.00  0.00    -0.107 A  
HETATM   35  C   UNL     1      -8.303  10.242  63.130  1.00  0.00    -0.167 A  
HETATM   36  C   UNL     1      -8.855   9.719  64.309  1.00  0.00    -0.258 A  
HETATM   37  C   UNL     1      -8.398   8.521  64.903  1.00  0.00    -0.171 A  
ENDBRANCH  24  28
ENDBRANCH  12  13
ENDBRANCH  11  12
ENDBRANCH   9  11
ENDBRANCH   6   9
TORSDOF 5
ENDMDL
MODEL       83
REMARK 921   NORMALIZED FREE ENERGY PREDICTED BY IDOCK:   -5.10 KCAL/MOL
REMARK 922        TOTAL FREE ENERGY PREDICTED BY IDOCK:   -8.82 KCAL/MOL
REMARK 923 INTER-LIGAND FREE ENERGY PREDICTED BY IDOCK:   -6.18 KCAL/MOL
REMARK 924 INTRA-LIGAND FREE ENERGY PREDICTED BY IDOCK:   -2.64 KCAL/MOL
REMARK 927      BINDING AFFINITY PREDICTED BY RF-SCORE:    0.00 PKD
ROOT
HETATM    1  C   UNL     1      -6.369   6.809  70.548  1.00  0.00    -0.039 C  
HETATM    2  C   UNL     1      -6.489   7.090  69.078  1.00  0.00    -0.036 A  
HETATM    3  C   UNL     1      -7.327   6.310  68.272  1.00  0.00    -0.086 A  
HETATM    4  C   UNL     1      -7.413   6.520  66.884  1.00  0.00    -0.084 A  
HETATM    5  C   UNL     1      -8.327   5.630  66.085  1.00  0.00    -0.120 C  
HETATM    6  C   UNL     1      -6.636   7.539  66.293  1.00  0.00    -0.049 A  
HETATM    7  C   UNL     1      -5.810   8.336  67.104  1.00  0.00    -0.043 A  
HETATM    8  C   UNL     1      -5.738   8.110  68.485  1.00  0.00    -0.037 A  
ENDROOT
BRANCH   6   9
HETATM    9  C   UNL     1      -6.647   7.733  64.809  1.00  0.00    -0.044 C  
HETATM   10  O   UNL     1      -6.284   6.881  64.013  1.00  0.00    -0.035 OA 
BRANCH   9  11
HETATM   11  O   UNL     1      -7.129   8.958  64.478  1.00  0.00    -0.087 OA 
BRANCH  11  12
HETATM   12  C   UNL     1      -8.559   9.009  64.319  1.00  0.00    -0.148 C  
BRANCH  12  13
HETATM   13  C   UNL     1      -9.196   9.662  65.521  1.00  0.00    -0.291 A  
HETATM   14  C   UNL     1      -8.793  10.936  65.943  1.00  0.00    -0.197 A  
HETATM   15  C   UNL     1      -9.271  11.472  67.140  1.00  0.00    -0.171 A  
HETATM   16  C   UNL     1     -10.163  10.743  67.939  1.00  0.00    -0.203 A  
HETATM   17  C   UNL     1     -10.647   9.517  67.457  1.00  0.00    -0.338 A  
HETATM   18  C   UNL     1     -10.549  11.273  69.318  1.00  0.00    -0.187 C  
HETATM   19  C   UNL     1     -10.153   8.973  66.271  1.00  0.00    -0.311 A  
HETATM   20  C   UNL     1     -10.792  10.139  70.334  1.00  0.00    -0.301 C  
HETATM   21  C   UNL     1     -11.780  12.203  69.222  1.00  0.00    -0.328 C  
HETATM   22  O   UNL     1     -11.891   9.997  70.871  1.00  0.00    -0.311 OA 
HETATM   23  N   UNL     1     -12.132  12.838  70.501  1.00  0.00    -0.508 NA 
HETATM   24  N   UNL     1      -9.695   9.310  70.542  1.00  0.00    -0.240 N  
HETATM   25  H1  UNL     1     -12.944  13.452  70.438  1.00  0.00     0.000 HD 
HETATM   26  H2  UNL     1     -11.332  13.335  70.891  1.00  0.00     0.000 HD 
HETATM   27  H   UNL     1      -8.852   9.506  70.002  1.00  0.00     0.000 HD 
BRANCH  24  28
HETATM   28  C   UNL     1      -9.653   8.217  71.440  1.00  0.00    -0.177 A  
HETATM   29  C   UNL     1      -9.443   8.379  72.811  1.00  0.00    -0.312 A  
HETATM   30  C   UNL     1      -9.446   7.284  73.675  1.00  0.00    -0.293 A  
HETATM   31  C   UNL     1      -9.645   5.992  73.179  1.00  0.00    -0.143 A  
HETATM   32  C   UNL     1      -9.667   4.869  74.010  1.00  0.00    -0.141 A  
HETATM   33  N   UNL     1      -9.837   3.600  73.577  1.00  0.00    -0.107 NA 
HETATM   34  C   UNL     1      -9.995   3.438  72.248  1.00  0.00    -0.163 A  
HETATM   35  C   UNL     1     -10.002   4.483  71.332  1.00  0.00    -0.259 A  
HETATM   36  C   UNL     1      -9.824   5.795  71.795  1.00  0.00    -0.200 A  
HETATM   37  C   UNL     1      -9.823   6.917  70.935  1.00  0.00    -0.193 A  
ENDBRANCH  24  28
ENDBRANCH  12  13
ENDBRANCH  11  12
ENDBRANCH   9  11
ENDBRANCH   6   9
TORSDOF 5
ENDMDL
MODEL       84
REMARK 921   NORMALIZED FREE ENERGY PREDICTED BY IDOCK:   -5.09 KCAL/MOL
REMARK 922        TOTAL FREE ENERGY PREDICTED BY IDOCK:   -8.81 KCAL/MOL
REMARK 923 INTER-LIGAND FREE ENERGY PREDICTED BY IDOCK:   -6.68 KCAL/MOL
REMARK 924 INTRA-LIGAND FREE ENERGY PREDICTED BY IDOCK:   -2.12 KCAL/MOL
REMARK 927      BINDING AFFINITY PREDICTED BY RF-SCORE:    0.00 PKD
ROOT
HETATM    1  C   UNL     1     -10.879   7.078  66.988  1.00  0.00    -0.413 C  
HETATM    2  C   UNL     1     -10.494   6.003  67.962  1.00  0.00    -0.291 A  
HETATM    3  C   UNL     1     -10.731   6.168  69.331  1.00  0.00    -0.385 A  
HETATM    4  C   UNL     1     -10.331   5.198  70.268  1.00  0.00    -0.331 A  
HETATM    5  C   UNL     1     -10.609   5.457  71.724  1.00  0.00    -0.286 C  
HETATM    6  C   UNL     1      -9.675   4.034  69.814  1.00  0.00    -0.254 A  
HETATM    7  C   UNL     1      -9.455   3.858  68.438  1.00  0.00    -0.210 A  
HETATM    8  C   UNL     1      -9.861   4.837  67.521  1.00  0.00    -0.206 A  
ENDROOT
BRANCH   6   9
HETATM    9  C   UNL     1      -9.166   3.023  70.794  1.00  0.00    -0.135 C  
HETATM   10  O   UNL     1      -9.670   1.922  70.954  1.00  0.00    -0.128 OA 
BRANCH   9  11
HETATM   11  O   UNL     1      -8.072   3.486  71.451  1.00  0.00    -0.059 OA 
BRANCH  11  12
HETATM   12  C   UNL     1      -6.991   3.892  70.589  1.00  0.00    -0.033 C  
BRANCH  12  13
HETATM   13  C   UNL     1      -6.715   5.366  70.756  1.00  0.00    -0.047 A  
HETATM   14  C   UNL     1      -6.719   5.957  72.026  1.00  0.00    -0.064 A  
HETATM   15  C   UNL     1      -6.616   7.343  72.165  1.00  0.00    -0.051 A  
HETATM   16  C   UNL     1      -6.508   8.164  71.035  1.00  0.00    -0.038 A  
HETATM   17  C   UNL     1      -6.394   7.558  69.773  1.00  0.00    -0.031 A  
HETATM   18  C   UNL     1      -6.560   9.682  71.195  1.00  0.00     0.016 C  
HETATM   19  C   UNL     1      -6.517   6.176  69.634  1.00  0.00    -0.039 A  
HETATM   20  C   UNL     1      -7.233  10.374  69.993  1.00  0.00    -0.135 C  
HETATM   21  C   UNL     1      -5.145  10.254  71.443  1.00  0.00    -0.081 C  
HETATM   22  O   UNL     1      -6.614  11.186  69.305  1.00  0.00    -0.074 OA 
HETATM   23  N   UNL     1      -5.141  11.699  71.720  1.00  0.00    -0.325 NA 
HETATM   24  N   UNL     1      -8.544   9.975  69.761  1.00  0.00    -0.266 N  
HETATM   25  H1  UNL     1      -4.208  12.076  71.884  1.00  0.00     0.000 HD 
HETATM   26  H2  UNL     1      -5.763  11.919  72.498  1.00  0.00     0.000 HD 
HETATM   27  H   UNL     1      -8.932   9.260  70.378  1.00  0.00     0.000 HD 
BRANCH  24  28
HETATM   28  C   UNL     1      -9.386  10.478  68.741  1.00  0.00    -0.180 A  
HETATM   29  C   UNL     1     -10.540  11.215  69.014  1.00  0.00    -0.251 A  
HETATM   30  C   UNL     1     -11.326  11.731  67.983  1.00  0.00    -0.355 A  
HETATM   31  C   UNL     1     -10.981  11.503  66.648  1.00  0.00    -0.349 A  
HETATM   32  C   UNL     1     -11.733  12.010  65.585  1.00  0.00    -0.246 A  
HETATM   33  N   UNL     1     -11.451  11.803  64.280  1.00  0.00    -0.332 NA 
HETATM   34  C   UNL     1     -10.362  11.053  64.016  1.00  0.00    -0.371 A  
HETATM   35  C   UNL     1      -9.536  10.510  64.992  1.00  0.00    -0.331 A  
HETATM   36  C   UNL     1      -9.841  10.733  66.343  1.00  0.00    -0.254 A  
HETATM   37  C   UNL     1      -9.053  10.223  67.400  1.00  0.00    -0.148 A  
ENDBRANCH  24  28
ENDBRANCH  12  13
ENDBRANCH  11  12
ENDBRANCH   9  11
ENDBRANCH   6   9
TORSDOF 5
ENDMDL
MODEL       85
REMARK 921   NORMALIZED FREE ENERGY PREDICTED BY IDOCK:   -5.09 KCAL/MOL
REMARK 922        TOTAL FREE ENERGY PREDICTED BY IDOCK:   -8.80 KCAL/MOL
REMARK 923 INTER-LIGAND FREE ENERGY PREDICTED BY IDOCK:   -7.96 KCAL/MOL
REMARK 924 INTRA-LIGAND FREE ENERGY PREDICTED BY IDOCK:   -0.84 KCAL/MOL
REMARK 927      BINDING AFFINITY PREDICTED BY RF-SCORE:    0.00 PKD
ROOT
HETATM    1  C   UNL     1     -11.108  15.562  71.207  1.00  0.00    -0.343 C  
HETATM    2  C   UNL     1     -11.314  15.031  69.818  1.00  0.00    -0.310 A  
HETATM    3  C   UNL     1     -10.938  15.790  68.704  1.00  0.00    -0.307 A  
HETATM    4  C   UNL     1     -11.171  15.336  67.394  1.00  0.00    -0.311 A  
HETATM    5  C   UNL     1     -10.750  16.217  66.249  1.00  0.00    -0.185 C  
HETATM    6  C   UNL     1     -11.800  14.087  67.200  1.00  0.00    -0.444 A  
HETATM    7  C   UNL     1     -12.160  13.315  68.318  1.00  0.00    -0.246 A  
HETATM    8  C   UNL     1     -11.920  13.786  69.615  1.00  0.00    -0.399 A  
ENDROOT
BRANCH   6   9
HETATM    9  C   UNL     1     -12.133  13.615  65.820  1.00  0.00    -0.428 C  
HETATM   10  O   UNL     1     -12.981  14.136  65.112  1.00  0.00    -0.729 OA 
BRANCH   9  11
HETATM   11  O   UNL     1     -11.358  12.558  65.463  1.00  0.00    -0.305 OA 
BRANCH  11  12
HETATM   12  C   UNL     1      -9.943  12.803  65.559  1.00  0.00    -0.221 C  
BRANCH  12  13
HETATM   13  C   UNL     1      -9.197  11.502  65.730  1.00  0.00    -0.210 A  
HETATM   14  C   UNL     1      -9.347  10.462  64.803  1.00  0.00    -0.301 A  
HETATM   15  C   UNL     1      -8.780   9.209  65.043  1.00  0.00    -0.222 A  
HETATM   16  C   UNL     1      -8.051   8.972  66.217  1.00  0.00    -0.110 A  
HETATM   17  C   UNL     1      -7.813  10.047  67.088  1.00  0.00    -0.099 A  
HETATM   18  C   UNL     1      -7.577   7.557  66.541  1.00  0.00    -0.089 C  
HETATM   19  C   UNL     1      -8.397  11.294  66.856  1.00  0.00    -0.155 A  
HETATM   20  C   UNL     1      -7.565   7.276  68.056  1.00  0.00    -0.115 C  
HETATM   21  C   UNL     1      -6.188   7.290  65.917  1.00  0.00    -0.038 C  
HETATM   22  O   UNL     1      -6.518   6.989  68.637  1.00  0.00    -0.033 OA 
HETATM   23  N   UNL     1      -5.726   5.905  66.095  1.00  0.00    -0.013 NA 
HETATM   24  N   UNL     1      -8.804   7.409  68.674  1.00  0.00    -0.127 N  
HETATM   25  H1  UNL     1      -4.810   5.729  65.683  1.00  0.00     0.000 HD 
HETATM   26  H2  UNL     1      -6.417   5.245  65.738  1.00  0.00     0.000 HD 
HETATM   27  H   UNL     1      -9.590   7.694  68.090  1.00  0.00     0.000 HD 
BRANCH  24  28
HETATM   28  C   UNL     1      -9.063   7.181  70.047  1.00  0.00    -0.145 A  
HETATM   29  C   UNL     1      -8.788   8.132  71.032  1.00  0.00    -0.163 A  
HETATM   30  C   UNL     1      -9.092   7.890  72.371  1.00  0.00    -0.229 A  
HETATM   31  C   UNL     1      -9.668   6.676  72.759  1.00  0.00    -0.166 A  
HETATM   32  C   UNL     1      -9.998   6.398  74.087  1.00  0.00    -0.309 A  
HETATM   33  N   UNL     1     -10.538   5.234  74.513  1.00  0.00    -0.329 NA 
HETATM   34  C   UNL     1     -10.763   4.298  73.569  1.00  0.00    -0.242 A  
HETATM   35  C   UNL     1     -10.484   4.472  72.220  1.00  0.00    -0.215 A  
HETATM   36  C   UNL     1      -9.924   5.685  71.791  1.00  0.00    -0.222 A  
HETATM   37  C   UNL     1      -9.614   5.949  70.438  1.00  0.00    -0.204 A  
ENDBRANCH  24  28
ENDBRANCH  12  13
ENDBRANCH  11  12
ENDBRANCH   9  11
ENDBRANCH   6   9
TORSDOF 5
ENDMDL
MODEL       86
REMARK 921   NORMALIZED FREE ENERGY PREDICTED BY IDOCK:   -5.09 KCAL/MOL
REMARK 922        TOTAL FREE ENERGY PREDICTED BY IDOCK:   -8.80 KCAL/MOL
REMARK 923 INTER-LIGAND FREE ENERGY PREDICTED BY IDOCK:   -7.95 KCAL/MOL
REMARK 924 INTRA-LIGAND FREE ENERGY PREDICTED BY IDOCK:   -0.84 KCAL/MOL
REMARK 927      BINDING AFFINITY PREDICTED BY RF-SCORE:    0.00 PKD
ROOT
HETATM    1  C   UNL     1     -10.154  20.149  67.065  1.00  0.00    -0.599 C  
HETATM    2  C   UNL     1     -10.277  18.653  67.081  1.00  0.00    -0.415 A  
HETATM    3  C   UNL     1     -10.522  17.948  65.897  1.00  0.00    -0.253 A  
HETATM    4  C   UNL     1     -10.695  16.553  65.896  1.00  0.00    -0.194 A  
HETATM    5  C   UNL     1     -10.969  15.869  64.583  1.00  0.00    -0.323 C  
HETATM    6  C   UNL     1     -10.620  15.850  67.118  1.00  0.00    -0.316 A  
HETATM    7  C   UNL     1     -10.354  16.554  68.304  1.00  0.00    -0.293 A  
HETATM    8  C   UNL     1     -10.186  17.945  68.284  1.00  0.00    -0.391 A  
ENDROOT
BRANCH   6   9
HETATM    9  C   UNL     1     -10.880  14.376  67.159  1.00  0.00    -0.292 C  
HETATM   10  O   UNL     1     -11.997  13.885  67.144  1.00  0.00    -0.392 OA 
BRANCH   9  11
HETATM   11  O   UNL     1      -9.717  13.675  67.191  1.00  0.00    -0.232 OA 
BRANCH  11  12
HETATM   12  C   UNL     1      -9.772  12.405  66.514  1.00  0.00    -0.240 C  
BRANCH  12  13
HETATM   13  C   UNL     1      -9.939  11.287  67.514  1.00  0.00    -0.203 A  
HETATM   14  C   UNL     1      -9.206  11.276  68.707  1.00  0.00    -0.133 A  
HETATM   15  C   UNL     1      -9.247  10.168  69.556  1.00  0.00    -0.223 A  
HETATM   16  C   UNL     1     -10.023   9.048  69.226  1.00  0.00    -0.188 A  
HETATM   17  C   UNL     1     -10.839   9.110  68.086  1.00  0.00    -0.118 A  
HETATM   18  C   UNL     1      -9.930   7.785  70.079  1.00  0.00    -0.187 C  
HETATM   19  C   UNL     1     -10.783  10.209  67.228  1.00  0.00    -0.316 A  
HETATM   20  C   UNL     1     -10.113   6.501  69.246  1.00  0.00    -0.168 C  
HETATM   21  C   UNL     1     -10.944   7.838  71.245  1.00  0.00    -0.234 C  
HETATM   22  O   UNL     1     -11.042   5.726  69.477  1.00  0.00    -0.366 OA 
HETATM   23  N   UNL     1     -10.825   6.702  72.172  1.00  0.00    -0.222 NA 
HETATM   24  N   UNL     1      -9.178   6.339  68.229  1.00  0.00    -0.113 N  
HETATM   25  H1  UNL     1     -11.494   6.737  72.942  1.00  0.00     0.000 HD 
HETATM   26  H2  UNL     1      -9.871   6.621  72.524  1.00  0.00     0.000 HD 
HETATM   27  H   UNL     1      -8.482   7.075  68.112  1.00  0.00     0.000 HD 
BRANCH  24  28
HETATM   28  C   UNL     1      -9.113   5.236  67.345  1.00  0.00    -0.112 A  
HETATM   29  C   UNL     1      -8.232   4.170  67.537  1.00  0.00    -0.098 A  
HETATM   30  C   UNL     1      -8.221   3.079  66.667  1.00  0.00    -0.090 A  
HETATM   31  C   UNL     1      -9.087   3.039  65.570  1.00  0.00    -0.150 A  
HETATM   32  C   UNL     1      -9.117   1.961  64.682  1.00  0.00    -0.128 A  
HETATM   33  N   UNL     1      -9.921   1.885  63.599  1.00  0.00    -0.128 NA 
HETATM   34  C   UNL     1     -10.741   2.934  63.387  1.00  0.00    -0.242 A  
HETATM   35  C   UNL     1     -10.803   4.051  64.211  1.00  0.00    -0.149 A  
HETATM   36  C   UNL     1      -9.963   4.117  65.332  1.00  0.00    -0.211 A  
HETATM   37  C   UNL     1      -9.963   5.212  66.227  1.00  0.00    -0.232 A  
ENDBRANCH  24  28
ENDBRANCH  12  13
ENDBRANCH  11  12
ENDBRANCH   9  11
ENDBRANCH   6   9
TORSDOF 5
ENDMDL
MODEL       87
REMARK 921   NORMALIZED FREE ENERGY PREDICTED BY IDOCK:   -5.08 KCAL/MOL
REMARK 922        TOTAL FREE ENERGY PREDICTED BY IDOCK:   -8.79 KCAL/MOL
REMARK 923 INTER-LIGAND FREE ENERGY PREDICTED BY IDOCK:   -7.29 KCAL/MOL
REMARK 924 INTRA-LIGAND FREE ENERGY PREDICTED BY IDOCK:   -1.51 KCAL/MOL
REMARK 927      BINDING AFFINITY PREDICTED BY RF-SCORE:    0.00 PKD
ROOT
HETATM    1  C   UNL     1     -13.623   9.431  72.200  1.00  0.00    -0.528 C  
HETATM    2  C   UNL     1     -12.607   8.422  71.749  1.00  0.00    -0.378 A  
HETATM    3  C   UNL     1     -11.260   8.565  72.102  1.00  0.00    -0.432 A  
HETATM    4  C   UNL     1     -10.283   7.663  71.646  1.00  0.00    -0.217 A  
HETATM    5  C   UNL     1      -8.853   7.892  72.059  1.00  0.00    -0.187 C  
HETATM    6  C   UNL     1     -10.670   6.591  70.814  1.00  0.00    -0.290 A  
HETATM    7  C   UNL     1     -12.025   6.436  70.475  1.00  0.00    -0.217 A  
HETATM    8  C   UNL     1     -12.984   7.346  70.939  1.00  0.00    -0.103 A  
ENDROOT
BRANCH   6   9
HETATM    9  C   UNL     1      -9.641   5.663  70.248  1.00  0.00    -0.168 C  
HETATM   10  O   UNL     1      -9.047   4.826  70.911  1.00  0.00    -0.126 OA 
BRANCH   9  11
HETATM   11  O   UNL     1      -9.481   5.863  68.915  1.00  0.00    -0.124 OA 
BRANCH  11  12
HETATM   12  C   UNL     1      -8.430   6.787  68.577  1.00  0.00    -0.123 C  
BRANCH  12  13
HETATM   13  C   UNL     1      -8.952   7.856  67.648  1.00  0.00    -0.133 A  
HETATM   14  C   UNL     1      -8.655   7.824  66.279  1.00  0.00    -0.161 A  
HETATM   15  C   UNL     1      -9.008   8.891  65.451  1.00  0.00    -0.232 A  
HETATM   16  C   UNL     1      -9.665  10.013  65.977  1.00  0.00    -0.301 A  
HETATM   17  C   UNL     1     -10.056   9.990  67.325  1.00  0.00    -0.259 A  
HETATM   18  C   UNL     1      -9.897  11.236  65.094  1.00  0.00    -0.298 C  
HETATM   19  C   UNL     1      -9.686   8.932  68.156  1.00  0.00    -0.180 A  
HETATM   20  C   UNL     1      -9.834  12.554  65.891  1.00  0.00    -0.247 C  
HETATM   21  C   UNL     1     -11.238  11.114  64.333  1.00  0.00     0.006 C  
HETATM   22  O   UNL     1     -10.809  13.303  65.952  1.00  0.00    -0.275 OA 
HETATM   23  N   UNL     1     -11.466  12.208  63.376  1.00  0.00    -0.652 NA 
HETATM   24  N   UNL     1      -8.620  12.778  66.533  1.00  0.00    -0.427 N  
HETATM   25  H1  UNL     1     -12.350  12.127  62.874  1.00  0.00     0.000 HD 
HETATM   26  H2  UNL     1     -10.685  12.288  62.725  1.00  0.00     0.000 HD 
HETATM   27  H   UNL     1      -7.902  12.059  66.441  1.00  0.00     0.000 HD 
BRANCH  24  28
HETATM   28  C   UNL     1      -8.300  13.921  67.304  1.00  0.00    -0.185 A  
HETATM   29  C   UNL     1      -8.376  13.933  68.698  1.00  0.00    -0.088 A  
HETATM   30  C   UNL     1      -8.016  15.064  69.430  1.00  0.00    -0.170 A  
HETATM   31  C   UNL     1      -7.583  16.222  68.776  1.00  0.00    -0.199 A  
HETATM   32  C   UNL     1      -7.202  17.373  69.470  1.00  0.00     0.136 A  
HETATM   33  N   UNL     1      -6.795  18.520  68.883  1.00  0.00    -0.272 NA 
HETATM   34  C   UNL     1      -6.764  18.525  67.535  1.00  0.00    -0.202 A  
HETATM   35  C   UNL     1      -7.110  17.436  66.746  1.00  0.00    -0.245 A  
HETATM   36  C   UNL     1      -7.530  16.250  67.368  1.00  0.00    -0.190 A  
HETATM   37  C   UNL     1      -7.895  15.093  66.643  1.00  0.00     0.178 A  
ENDBRANCH  24  28
ENDBRANCH  12  13
ENDBRANCH  11  12
ENDBRANCH   9  11
ENDBRANCH   6   9
TORSDOF 5
ENDMDL
MODEL       88
REMARK 921   NORMALIZED FREE ENERGY PREDICTED BY IDOCK:   -5.07 KCAL/MOL
REMARK 922        TOTAL FREE ENERGY PREDICTED BY IDOCK:   -8.77 KCAL/MOL
REMARK 923 INTER-LIGAND FREE ENERGY PREDICTED BY IDOCK:   -6.70 KCAL/MOL
REMARK 924 INTRA-LIGAND FREE ENERGY PREDICTED BY IDOCK:   -2.08 KCAL/MOL
REMARK 927      BINDING AFFINITY PREDICTED BY RF-SCORE:    0.00 PKD
ROOT
HETATM    1  C   UNL     1     -11.959  10.307  69.300  1.00  0.00    -0.005 C  
HETATM    2  C   UNL     1     -11.343  11.676  69.269  1.00  0.00    -0.353 A  
HETATM    3  C   UNL     1     -10.092  11.878  68.676  1.00  0.00    -0.186 A  
HETATM    4  C   UNL     1      -9.472  13.141  68.684  1.00  0.00    -0.012 A  
HETATM    5  C   UNL     1      -8.119  13.274  68.038  1.00  0.00    -0.157 C  
HETATM    6  C   UNL     1     -10.128  14.225  69.304  1.00  0.00     0.014 A  
HETATM    7  C   UNL     1     -11.393  14.028  69.882  1.00  0.00    -0.208 A  
HETATM    8  C   UNL     1     -11.993  12.762  69.865  1.00  0.00    -0.368 A  
ENDROOT
BRANCH   6   9
HETATM    9  C   UNL     1      -9.457  15.560  69.398  1.00  0.00    -0.278 C  
HETATM   10  O   UNL     1      -8.317  15.718  69.806  1.00  0.00    -0.121 OA 
BRANCH   9  11
HETATM   11  O   UNL     1     -10.272  16.550  68.952  1.00  0.00    -0.235 OA 
BRANCH  11  12
HETATM   12  C   UNL     1     -10.073  16.904  67.571  1.00  0.00    -0.282 C  
BRANCH  12  13
HETATM   13  C   UNL     1     -10.563  15.796  66.671  1.00  0.00    -0.307 A  
HETATM   14  C   UNL     1     -11.855  15.275  66.813  1.00  0.00     0.127 A  
HETATM   15  C   UNL     1     -12.252  14.151  66.086  1.00  0.00    -0.465 A  
HETATM   16  C   UNL     1     -11.361  13.524  65.204  1.00  0.00    -0.315 A  
HETATM   17  C   UNL     1     -10.107  14.114  64.986  1.00  0.00    -0.326 A  
HETATM   18  C   UNL     1     -11.754  12.206  64.542  1.00  0.00    -0.410 C  
HETATM   19  C   UNL     1      -9.704  15.226  65.726  1.00  0.00    -0.385 A  
HETATM   20  C   UNL     1     -10.544  11.277  64.322  1.00  0.00    -0.358 C  
HETATM   21  C   UNL     1     -12.504  12.462  63.214  1.00  0.00    -0.337 C  
HETATM   22  O   UNL     1     -10.218  10.922  63.189  1.00  0.00    -0.320 OA 
HETATM   23  N   UNL     1     -13.011  11.234  62.584  1.00  0.00    -0.220 NA 
HETATM   24  N   UNL     1      -9.869  10.928  65.487  1.00  0.00    -0.231 N  
HETATM   25  H1  UNL     1     -13.506  11.403  61.709  1.00  0.00     0.000 HD 
HETATM   26  H2  UNL     1     -13.595  10.709  63.235  1.00  0.00     0.000 HD 
HETATM   27  H   UNL     1     -10.213  11.322  66.363  1.00  0.00     0.000 HD 
BRANCH  24  28
HETATM   28  C   UNL     1      -8.746  10.069  65.557  1.00  0.00    -0.155 A  
HETATM   29  C   UNL     1      -7.434  10.544  65.516  1.00  0.00    -0.111 A  
HETATM   30  C   UNL     1      -6.349   9.674  65.627  1.00  0.00    -0.069 A  
HETATM   31  C   UNL     1      -6.556   8.299  65.767  1.00  0.00    -0.052 A  
HETATM   32  C   UNL     1      -5.499   7.394  65.893  1.00  0.00    -0.028 A  
HETATM   33  N   UNL     1      -5.648   6.056  66.012  1.00  0.00    -0.016 NA 
HETATM   34  C   UNL     1      -6.913   5.592  66.008  1.00  0.00    -0.066 A  
HETATM   35  C   UNL     1      -8.038   6.400  65.900  1.00  0.00    -0.124 A  
HETATM   36  C   UNL     1      -7.869   7.788  65.777  1.00  0.00    -0.104 A  
HETATM   37  C   UNL     1      -8.957   8.685  65.668  1.00  0.00    -0.231 A  
ENDBRANCH  24  28
ENDBRANCH  12  13
ENDBRANCH  11  12
ENDBRANCH   9  11
ENDBRANCH   6   9
TORSDOF 5
ENDMDL
MODEL       89
REMARK 921   NORMALIZED FREE ENERGY PREDICTED BY IDOCK:   -5.02 KCAL/MOL
REMARK 922        TOTAL FREE ENERGY PREDICTED BY IDOCK:   -8.71 KCAL/MOL
REMARK 923 INTER-LIGAND FREE ENERGY PREDICTED BY IDOCK:   -7.96 KCAL/MOL
REMARK 924 INTRA-LIGAND FREE ENERGY PREDICTED BY IDOCK:   -0.75 KCAL/MOL
REMARK 927      BINDING AFFINITY PREDICTED BY RF-SCORE:    0.00 PKD
ROOT
HETATM    1  C   UNL     1     -10.578  17.249  68.461  1.00  0.00    -0.350 C  
HETATM    2  C   UNL     1     -10.871  15.808  68.761  1.00  0.00    -0.274 A  
HETATM    3  C   UNL     1     -10.046  14.796  68.258  1.00  0.00    -0.221 A  
HETATM    4  C   UNL     1     -10.332  13.437  68.480  1.00  0.00    -0.240 A  
HETATM    5  C   UNL     1      -9.403  12.408  67.894  1.00  0.00    -0.195 C  
HETATM    6  C   UNL     1     -11.477  13.089  69.228  1.00  0.00    -0.348 A  
HETATM    7  C   UNL     1     -12.295  14.104  69.750  1.00  0.00    -0.350 A  
HETATM    8  C   UNL     1     -11.994  15.453  69.516  1.00  0.00    -0.358 A  
ENDROOT
BRANCH   6   9
HETATM    9  C   UNL     1     -11.851  11.651  69.412  1.00  0.00    -0.342 C  
HETATM   10  O   UNL     1     -12.244  10.932  68.507  1.00  0.00    -0.535 OA 
BRANCH   9  11
HETATM   11  O   UNL     1     -11.672  11.260  70.701  1.00  0.00    -0.318 OA 
BRANCH  11  12
HETATM   12  C   UNL     1     -12.533  10.185  71.118  1.00  0.00    -0.387 C  
BRANCH  12  13
HETATM   13  C   UNL     1     -11.732   8.921  71.316  1.00  0.00    -0.370 A  
HETATM   14  C   UNL     1     -10.470   8.959  71.923  1.00  0.00    -0.415 A  
HETATM   15  C   UNL     1      -9.667   7.817  71.967  1.00  0.00    -0.224 A  
HETATM   16  C   UNL     1     -10.113   6.614  71.402  1.00  0.00    -0.209 A  
HETATM   17  C   UNL     1     -11.420   6.554  70.894  1.00  0.00    -0.408 A  
HETATM   18  C   UNL     1      -9.162   5.423  71.314  1.00  0.00    -0.173 C  
HETATM   19  C   UNL     1     -12.213   7.701  70.833  1.00  0.00    -0.194 A  
HETATM   20  C   UNL     1      -9.415   4.563  70.059  1.00  0.00    -0.177 C  
HETATM   21  C   UNL     1      -9.240   4.564  72.597  1.00  0.00    -0.126 C  
HETATM   22  O   UNL     1      -9.742   3.380  70.159  1.00  0.00    -0.168 OA 
HETATM   23  N   UNL     1      -8.264   3.464  72.623  1.00  0.00    -0.079 NA 
HETATM   24  N   UNL     1      -9.274   5.248  68.857  1.00  0.00    -0.115 N  
HETATM   25  H1  UNL     1      -8.315   2.898  73.470  1.00  0.00     0.000 HD 
HETATM   26  H2  UNL     1      -7.318   3.818  72.480  1.00  0.00     0.000 HD 
HETATM   27  H   UNL     1      -9.041   6.240  68.908  1.00  0.00     0.000 HD 
BRANCH  24  28
HETATM   28  C   UNL     1      -9.426   4.682  67.568  1.00  0.00    -0.153 A  
HETATM   29  C   UNL     1     -10.459   5.049  66.704  1.00  0.00    -0.301 A  
HETATM   30  C   UNL     1     -10.558   4.500  65.425  1.00  0.00    -0.195 A  
HETATM   31  C   UNL     1      -9.628   3.553  64.988  1.00  0.00    -0.160 A  
HETATM   32  C   UNL     1      -9.683   2.986  63.712  1.00  0.00    -0.136 A  
HETATM   33  N   UNL     1      -8.819   2.055  63.251  1.00  0.00    -0.084 NA 
HETATM   34  C   UNL     1      -7.847   1.667  64.101  1.00  0.00    -0.061 A  
HETATM   35  C   UNL     1      -7.691   2.171  65.386  1.00  0.00    -0.072 A  
HETATM   36  C   UNL     1      -8.595   3.138  65.852  1.00  0.00    -0.118 A  
HETATM   37  C   UNL     1      -8.508   3.708  67.143  1.00  0.00    -0.103 A  
ENDBRANCH  24  28
ENDBRANCH  12  13
ENDBRANCH  11  12
ENDBRANCH   9  11
ENDBRANCH   6   9
TORSDOF 5
ENDMDL
MODEL       90
REMARK 921   NORMALIZED FREE ENERGY PREDICTED BY IDOCK:   -4.95 KCAL/MOL
REMARK 922        TOTAL FREE ENERGY PREDICTED BY IDOCK:   -8.62 KCAL/MOL
REMARK 923 INTER-LIGAND FREE ENERGY PREDICTED BY IDOCK:   -8.62 KCAL/MOL
REMARK 924 INTRA-LIGAND FREE ENERGY PREDICTED BY IDOCK:   -0.01 KCAL/MOL
REMARK 927      BINDING AFFINITY PREDICTED BY RF-SCORE:    0.00 PKD
ROOT
HETATM    1  C   UNL     1      -6.755  18.999  68.517  1.00  0.00    -0.293 C  
HETATM    2  C   UNL     1      -7.781  18.122  67.860  1.00  0.00    -0.237 A  
HETATM    3  C   UNL     1      -8.989  17.835  68.507  1.00  0.00    -0.288 A  
HETATM    4  C   UNL     1      -9.941  16.973  67.934  1.00  0.00    -0.281 A  
HETATM    5  C   UNL     1     -11.209  16.703  68.699  1.00  0.00    -0.235 C  
HETATM    6  C   UNL     1      -9.670  16.385  66.680  1.00  0.00    -0.272 A  
HETATM    7  C   UNL     1      -8.467  16.689  66.021  1.00  0.00    -0.198 A  
HETATM    8  C   UNL     1      -7.531  17.550  66.609  1.00  0.00    -0.280 A  
ENDROOT
BRANCH   6   9
HETATM    9  C   UNL     1     -10.628  15.402  66.084  1.00  0.00    -0.316 C  
HETATM   10  O   UNL     1     -10.916  15.371  64.897  1.00  0.00    -0.417 OA 
BRANCH   9  11
HETATM   11  O   UNL     1     -11.106  14.550  67.028  1.00  0.00    -0.304 OA 
BRANCH  11  12
HETATM   12  C   UNL     1     -10.664  13.189  66.874  1.00  0.00    -0.263 C  
BRANCH  12  13
HETATM   13  C   UNL     1     -11.231  12.328  67.977  1.00  0.00    -0.321 A  
HETATM   14  C   UNL     1     -11.458  12.856  69.254  1.00  0.00    -0.341 A  
HETATM   15  C   UNL     1     -11.836  12.024  70.310  1.00  0.00    -0.356 A  
HETATM   16  C   UNL     1     -11.993  10.646  70.108  1.00  0.00    -0.417 A  
HETATM   17  C   UNL     1     -11.871  10.141  68.804  1.00  0.00     0.225 A  
HETATM   18  C   UNL     1     -12.246   9.730  71.303  1.00  0.00    -0.465 C  
HETATM   19  C   UNL     1     -11.475  10.970  67.753  1.00  0.00    -0.339 A  
HETATM   20  C   UNL     1     -11.609   8.338  71.119  1.00  0.00    -0.279 C  
HETATM   21  C   UNL     1     -13.761   9.612  71.589  1.00  0.00    -0.253 C  
HETATM   22  O   UNL     1     -12.305   7.322  71.105  1.00  0.00    -0.341 OA 
HETATM   23  N   UNL     1     -14.066   8.834  72.801  1.00  0.00    -0.979 NA 
HETATM   24  N   UNL     1     -10.229   8.357  70.945  1.00  0.00    -0.190 N  
HETATM   25  H1  UNL     1     -15.065   8.757  72.990  1.00  0.00     0.000 HD 
HETATM   26  H2  UNL     1     -13.572   9.215  73.608  1.00  0.00     0.000 HD 
HETATM   27  H   UNL     1      -9.772   9.269  70.933  1.00  0.00     0.000 HD 
BRANCH  24  28
HETATM   28  C   UNL     1      -9.408   7.216  70.783  1.00  0.00    -0.160 A  
HETATM   29  C   UNL     1      -8.178   7.078  71.428  1.00  0.00    -0.109 A  
HETATM   30  C   UNL     1      -7.411   5.923  71.278  1.00  0.00    -0.080 A  
HETATM   31  C   UNL     1      -7.855   4.880  70.460  1.00  0.00    -0.066 A  
HETATM   32  C   UNL     1      -7.124   3.701  70.290  1.00  0.00    -0.041 A  
HETATM   33  N   UNL     1      -7.502   2.674  69.498  1.00  0.00    -0.044 NA 
HETATM   34  C   UNL     1      -8.669   2.825  68.839  1.00  0.00    -0.085 A  
HETATM   35  C   UNL     1      -9.480   3.947  68.942  1.00  0.00    -0.234 A  
HETATM   36  C   UNL     1      -9.076   5.006  69.769  1.00  0.00    -0.155 A  
HETATM   37  C   UNL     1      -9.843   6.182  69.937  1.00  0.00    -0.205 A  
ENDBRANCH  24  28
ENDBRANCH  12  13
ENDBRANCH  11  12
ENDBRANCH   9  11
ENDBRANCH   6   9
TORSDOF 5
ENDMDL
MODEL       91
REMARK 921   NORMALIZED FREE ENERGY PREDICTED BY IDOCK:   -4.94 KCAL/MOL
REMARK 922        TOTAL FREE ENERGY PREDICTED BY IDOCK:   -8.62 KCAL/MOL
REMARK 923 INTER-LIGAND FREE ENERGY PREDICTED BY IDOCK:   -7.48 KCAL/MOL
REMARK 924 INTRA-LIGAND FREE ENERGY PREDICTED BY IDOCK:   -1.14 KCAL/MOL
REMARK 927      BINDING AFFINITY PREDICTED BY RF-SCORE:    0.00 PKD
ROOT
HETATM    1  C   UNL     1     -12.687  11.921  63.581  1.00  0.00    -0.509 C  
HETATM    2  C   UNL     1     -11.961  12.813  64.546  1.00  0.00    -0.454 A  
HETATM    3  C   UNL     1     -12.156  12.674  65.925  1.00  0.00    -0.459 A  
HETATM    4  C   UNL     1     -11.529  13.533  66.845  1.00  0.00    -0.374 A  
HETATM    5  C   UNL     1     -11.801  13.328  68.311  1.00  0.00    -0.389 C  
HETATM    6  C   UNL     1     -10.686  14.558  66.365  1.00  0.00    -0.309 A  
HETATM    7  C   UNL     1     -10.474  14.685  64.982  1.00  0.00    -0.447 A  
HETATM    8  C   UNL     1     -11.109  13.819  64.081  1.00  0.00    -0.192 A  
ENDROOT
BRANCH   6   9
HETATM    9  C   UNL     1     -10.069  15.536  67.315  1.00  0.00    -0.250 C  
HETATM   10  O   UNL     1     -10.713  16.342  67.969  1.00  0.00    -0.308 OA 
BRANCH   9  11
HETATM   11  O   UNL     1      -8.720  15.389  67.362  1.00  0.00    -0.164 OA 
BRANCH  11  12
HETATM   12  C   UNL     1      -8.237  14.738  68.552  1.00  0.00    -0.153 C  
BRANCH  12  13
HETATM   13  C   UNL     1      -7.845  13.313  68.246  1.00  0.00    -0.143 A  
HETATM   14  C   UNL     1      -8.220  12.710  67.038  1.00  0.00    -0.110 A  
HETATM   15  C   UNL     1      -7.991  11.349  66.822  1.00  0.00    -0.160 A  
HETATM   16  C   UNL     1      -7.384  10.565  67.813  1.00  0.00    -0.086 A  
HETATM   17  C   UNL     1      -6.913  11.197  68.974  1.00  0.00    -0.101 A  
HETATM   18  C   UNL     1      -7.289   9.053  67.627  1.00  0.00    -0.084 C  
HETATM   19  C   UNL     1      -7.159  12.553  69.197  1.00  0.00     0.020 A  
HETATM   20  C   UNL     1      -7.396   8.291  68.964  1.00  0.00    -0.089 C  
HETATM   21  C   UNL     1      -5.990   8.674  66.878  1.00  0.00    -0.057 C  
HETATM   22  O   UNL     1      -6.474   7.580  69.361  1.00  0.00    -0.035 OA 
HETATM   23  N   UNL     1      -5.895   7.240  66.566  1.00  0.00    -0.034 NA 
HETATM   24  N   UNL     1      -8.582   8.512  69.656  1.00  0.00    -0.129 N  
HETATM   25  H1  UNL     1      -5.038   6.990  66.071  1.00  0.00     0.000 HD 
HETATM   26  H2  UNL     1      -6.716   6.927  66.049  1.00  0.00     0.000 HD 
HETATM   27  H   UNL     1      -9.253   9.159  69.240  1.00  0.00     0.000 HD 
BRANCH  24  28
HETATM   28  C   UNL     1      -8.935   7.913  70.889  1.00  0.00    -0.143 A  
HETATM   29  C   UNL     1      -8.672   8.517  72.120  1.00  0.00    -0.267 A  
HETATM   30  C   UNL     1      -9.068   7.918  73.315  1.00  0.00    -0.341 A  
HETATM   31  C   UNL     1      -9.727   6.685  73.305  1.00  0.00    -0.189 A  
HETATM   32  C   UNL     1     -10.150   6.055  74.478  1.00  0.00    -0.314 A  
HETATM   33  N   UNL     1     -10.774   4.857  74.521  1.00  0.00    -0.350 NA 
HETATM   34  C   UNL     1     -10.989   4.252  73.335  1.00  0.00    -0.278 A  
HETATM   35  C   UNL     1     -10.620   4.791  72.109  1.00  0.00    -0.204 A  
HETATM   36  C   UNL     1      -9.974   6.036  72.079  1.00  0.00    -0.195 A  
HETATM   37  C   UNL     1      -9.570   6.660  70.877  1.00  0.00    -0.183 A  
ENDBRANCH  24  28
ENDBRANCH  12  13
ENDBRANCH  11  12
ENDBRANCH   9  11
ENDBRANCH   6   9
TORSDOF 5
ENDMDL
MODEL       92
REMARK 921   NORMALIZED FREE ENERGY PREDICTED BY IDOCK:   -4.94 KCAL/MOL
REMARK 922        TOTAL FREE ENERGY PREDICTED BY IDOCK:   -8.61 KCAL/MOL
REMARK 923 INTER-LIGAND FREE ENERGY PREDICTED BY IDOCK:   -7.27 KCAL/MOL
REMARK 924 INTRA-LIGAND FREE ENERGY PREDICTED BY IDOCK:   -1.34 KCAL/MOL
REMARK 927      BINDING AFFINITY PREDICTED BY RF-SCORE:    0.00 PKD
ROOT
HETATM    1  C   UNL     1     -10.054   5.141  66.393  1.00  0.00    -0.268 C  
HETATM    2  C   UNL     1      -9.316   5.087  67.699  1.00  0.00    -0.141 A  
HETATM    3  C   UNL     1      -8.105   5.772  67.858  1.00  0.00    -0.098 A  
HETATM    4  C   UNL     1      -7.369   5.692  69.054  1.00  0.00    -0.082 A  
HETATM    5  C   UNL     1      -6.069   6.446  69.142  1.00  0.00    -0.029 C  
HETATM    6  C   UNL     1      -7.864   4.903  70.115  1.00  0.00    -0.066 A  
HETATM    7  C   UNL     1      -9.088   4.232  69.963  1.00  0.00    -0.175 A  
HETATM    8  C   UNL     1      -9.806   4.323  68.763  1.00  0.00    -0.120 A  
ENDROOT
BRANCH   6   9
HETATM    9  C   UNL     1      -7.063   4.736  71.368  1.00  0.00    -0.051 C  
HETATM   10  O   UNL     1      -6.495   3.699  71.675  1.00  0.00    -0.014 OA 
BRANCH   9  11
HETATM   11  O   UNL     1      -7.039   5.885  72.092  1.00  0.00    -0.083 OA 
BRANCH  11  12
HETATM   12  C   UNL     1      -8.027   5.946  73.138  1.00  0.00    -0.110 C  
BRANCH  12  13
HETATM   13  C   UNL     1      -9.077   6.978  72.806  1.00  0.00    -0.155 A  
HETATM   14  C   UNL     1     -10.435   6.714  73.023  1.00  0.00    -0.268 A  
HETATM   15  C   UNL     1     -11.413   7.604  72.573  1.00  0.00    -0.405 A  
HETATM   16  C   UNL     1     -11.049   8.777  71.897  1.00  0.00    -0.434 A  
HETATM   17  C   UNL     1      -9.685   9.088  71.779  1.00  0.00    -0.311 A  
HETATM   18  C   UNL     1     -12.130   9.656  71.272  1.00  0.00    -0.457 C  
HETATM   19  C   UNL     1      -8.710   8.189  72.211  1.00  0.00    -0.243 A  
HETATM   20  C   UNL     1     -11.650  10.342  69.977  1.00  0.00    -0.276 C  
HETATM   21  C   UNL     1     -12.646  10.697  72.292  1.00  0.00     0.381 C  
HETATM   22  O   UNL     1     -11.610  11.569  69.890  1.00  0.00    -0.297 OA 
HETATM   23  N   UNL     1     -13.770  11.500  71.787  1.00  0.00     0.133 NA 
HETATM   24  N   UNL     1     -11.253   9.462  68.975  1.00  0.00    -0.446 N  
HETATM   25  H1  UNL     1     -14.111  12.186  72.460  1.00  0.00     0.000 HD 
HETATM   26  H2  UNL     1     -14.529  10.898  71.467  1.00  0.00     0.000 HD 
HETATM   27  H   UNL     1     -11.293   8.465  69.185  1.00  0.00     0.000 HD 
BRANCH  24  28
HETATM   28  C   UNL     1     -10.799   9.838  67.688  1.00  0.00    -0.239 A  
HETATM   29  C   UNL     1     -10.069   8.976  66.868  1.00  0.00    -0.338 A  
HETATM   30  C   UNL     1      -9.670   9.364  65.589  1.00  0.00    -0.336 A  
HETATM   31  C   UNL     1      -9.982  10.639  65.106  1.00  0.00    -0.366 A  
HETATM   32  C   UNL     1      -9.612  11.064  63.828  1.00  0.00    -0.286 A  
HETATM   33  N   UNL     1      -9.874  12.290  63.324  1.00  0.00    -0.328 NA 
HETATM   34  C   UNL     1     -10.540  13.139  64.132  1.00  0.00    -0.361 A  
HETATM   35  C   UNL     1     -10.966  12.819  65.415  1.00  0.00    -0.313 A  
HETATM   36  C   UNL     1     -10.687  11.542  65.926  1.00  0.00    -0.325 A  
HETATM   37  C   UNL     1     -11.087  11.130  67.218  1.00  0.00    -0.366 A  
ENDBRANCH  24  28
ENDBRANCH  12  13
ENDBRANCH  11  12
ENDBRANCH   9  11
ENDBRANCH   6   9
TORSDOF 5
ENDMDL
MODEL       93
REMARK 921   NORMALIZED FREE ENERGY PREDICTED BY IDOCK:   -4.92 KCAL/MOL
REMARK 922        TOTAL FREE ENERGY PREDICTED BY IDOCK:   -8.58 KCAL/MOL
REMARK 923 INTER-LIGAND FREE ENERGY PREDICTED BY IDOCK:   -6.85 KCAL/MOL
REMARK 924 INTRA-LIGAND FREE ENERGY PREDICTED BY IDOCK:   -1.74 KCAL/MOL
REMARK 927      BINDING AFFINITY PREDICTED BY RF-SCORE:    0.00 PKD
ROOT
HETATM    1  C   UNL     1     -11.259   6.439  69.353  1.00  0.00    -0.459 C  
HETATM    2  C   UNL     1     -10.182   6.271  68.321  1.00  0.00    -0.198 A  
HETATM    3  C   UNL     1      -9.951   7.268  67.367  1.00  0.00    -0.228 A  
HETATM    4  C   UNL     1      -8.985   7.109  66.357  1.00  0.00    -0.178 A  
HETATM    5  C   UNL     1      -8.807   8.222  65.360  1.00  0.00    -0.116 C  
HETATM    6  C   UNL     1      -8.233   5.916  66.308  1.00  0.00    -0.114 A  
HETATM    7  C   UNL     1      -8.450   4.923  67.277  1.00  0.00    -0.105 A  
HETATM    8  C   UNL     1      -9.418   5.100  68.274  1.00  0.00    -0.164 A  
ENDROOT
BRANCH   6   9
HETATM    9  C   UNL     1      -7.255   5.685  65.198  1.00  0.00    -0.070 C  
HETATM   10  O   UNL     1      -7.403   4.839  64.330  1.00  0.00    -0.064 OA 
BRANCH   9  11
HETATM   11  O   UNL     1      -6.211   6.550  65.278  1.00  0.00    -0.032 OA 
BRANCH  11  12
HETATM   12  C   UNL     1      -5.423   6.417  66.476  1.00  0.00    -0.013 C  
BRANCH  12  13
HETATM   13  C   UNL     1      -5.566   7.649  67.335  1.00  0.00    -0.035 A  
HETATM   14  C   UNL     1      -5.776   7.540  68.716  1.00  0.00    -0.023 A  
HETATM   15  C   UNL     1      -6.061   8.672  69.483  1.00  0.00    -0.033 A  
HETATM   16  C   UNL     1      -6.143   9.936  68.881  1.00  0.00    -0.041 A  
HETATM   17  C   UNL     1      -5.825  10.052  67.519  1.00  0.00    -0.049 A  
HETATM   18  C   UNL     1      -6.614  11.134  69.701  1.00  0.00    -0.139 C  
HETATM   19  C   UNL     1      -5.559   8.919  66.750  1.00  0.00    -0.040 A  
HETATM   20  C   UNL     1      -7.409  12.148  68.854  1.00  0.00    -0.054 C  
HETATM   21  C   UNL     1      -5.420  11.818  70.405  1.00  0.00    -0.139 C  
HETATM   22  O   UNL     1      -7.013  13.305  68.718  1.00  0.00    -0.097 OA 
HETATM   23  N   UNL     1      -5.821  12.912  71.304  1.00  0.00    -0.547 NA 
HETATM   24  N   UNL     1      -8.553  11.625  68.259  1.00  0.00    -0.157 N  
HETATM   25  H1  UNL     1      -5.033  13.363  71.769  1.00  0.00     0.000 HD 
HETATM   26  H2  UNL     1      -6.506  12.586  71.986  1.00  0.00     0.000 HD 
HETATM   27  H   UNL     1      -8.751  10.636  68.413  1.00  0.00     0.000 HD 
BRANCH  24  28
HETATM   28  C   UNL     1      -9.464  12.353  67.457  1.00  0.00    -0.187 A  
HETATM   29  C   UNL     1      -9.934  13.618  67.813  1.00  0.00    -0.235 A  
HETATM   30  C   UNL     1     -10.802  14.326  66.981  1.00  0.00    -0.297 A  
HETATM   31  C   UNL     1     -11.233  13.771  65.772  1.00  0.00    -0.300 A  
HETATM   32  C   UNL     1     -12.092  14.449  64.904  1.00  0.00    -0.436 A  
HETATM   33  N   UNL     1     -12.550  13.948  63.735  1.00  0.00    -0.763 NA 
HETATM   34  C   UNL     1     -12.131  12.708  63.411  1.00  0.00    -0.525 A  
HETATM   35  C   UNL     1     -11.270  11.949  64.192  1.00  0.00    -0.446 A  
HETATM   36  C   UNL     1     -10.802  12.481  65.403  1.00  0.00    -0.316 A  
HETATM   37  C   UNL     1      -9.919  11.781  66.257  1.00  0.00    -0.246 A  
ENDBRANCH  24  28
ENDBRANCH  12  13
ENDBRANCH  11  12
ENDBRANCH   9  11
ENDBRANCH   6   9
TORSDOF 5
ENDMDL
MODEL       94
REMARK 921   NORMALIZED FREE ENERGY PREDICTED BY IDOCK:   -4.92 KCAL/MOL
REMARK 922        TOTAL FREE ENERGY PREDICTED BY IDOCK:   -8.58 KCAL/MOL
REMARK 923 INTER-LIGAND FREE ENERGY PREDICTED BY IDOCK:   -7.77 KCAL/MOL
REMARK 924 INTRA-LIGAND FREE ENERGY PREDICTED BY IDOCK:   -0.81 KCAL/MOL
REMARK 927      BINDING AFFINITY PREDICTED BY RF-SCORE:    0.00 PKD
ROOT
HETATM    1  C   UNL     1     -12.509  15.631  70.627  1.00  0.00    -0.463 C  
HETATM    2  C   UNL     1     -12.562  14.151  70.870  1.00  0.00    -0.433 A  
HETATM    3  C   UNL     1     -11.985  13.261  69.957  1.00  0.00    -0.399 A  
HETATM    4  C   UNL     1     -12.071  11.869  70.136  1.00  0.00    -0.382 A  
HETATM    5  C   UNL     1     -11.436  10.977  69.102  1.00  0.00    -0.370 C  
HETATM    6  C   UNL     1     -12.754  11.360  71.262  1.00  0.00    -0.498 A  
HETATM    7  C   UNL     1     -13.315  12.254  72.189  1.00  0.00    -0.473 A  
HETATM    8  C   UNL     1     -13.221  13.637  71.992  1.00  0.00    -0.522 A  
ENDROOT
BRANCH   6   9
HETATM    9  C   UNL     1     -12.929   9.884  71.436  1.00  0.00    -0.407 C  
HETATM   10  O   UNL     1     -13.947   9.283  71.129  1.00  0.00    -0.238 OA 
BRANCH   9  11
HETATM   11  O   UNL     1     -11.810   9.316  71.953  1.00  0.00    -0.365 OA 
BRANCH  11  12
HETATM   12  C   UNL     1     -12.034   8.049  72.600  1.00  0.00    -0.277 C  
BRANCH  12  13
HETATM   13  C   UNL     1     -10.880   7.114  72.332  1.00  0.00    -0.280 A  
HETATM   14  C   UNL     1      -9.610   7.369  72.865  1.00  0.00    -0.224 A  
HETATM   15  C   UNL     1      -8.513   6.591  72.492  1.00  0.00    -0.121 A  
HETATM   16  C   UNL     1      -8.665   5.541  71.575  1.00  0.00    -0.138 A  
HETATM   17  C   UNL     1      -9.957   5.222  71.129  1.00  0.00    -0.265 A  
HETATM   18  C   UNL     1      -7.432   4.806  71.055  1.00  0.00    -0.068 C  
HETATM   19  C   UNL     1     -11.050   6.012  71.488  1.00  0.00    -0.336 A  
HETATM   20  C   UNL     1      -7.602   4.337  69.596  1.00  0.00    -0.054 C  
HETATM   21  C   UNL     1      -7.072   3.620  71.979  1.00  0.00    -0.048 C  
HETATM   22  O   UNL     1      -7.553   3.141  69.307  1.00  0.00    -0.048 OA 
HETATM   23  N   UNL     1      -5.824   2.941  71.596  1.00  0.00    -0.012 NA 
HETATM   24  N   UNL     1      -7.841   5.363  68.688  1.00  0.00    -0.087 N  
HETATM   25  H1  UNL     1      -5.587   2.159  72.206  1.00  0.00     0.000 HD 
HETATM   26  H2  UNL     1      -5.053   3.606  71.542  1.00  0.00     0.000 HD 
HETATM   27  H   UNL     1      -7.902   6.312  69.059  1.00  0.00     0.000 HD 
BRANCH  24  28
HETATM   28  C   UNL     1      -8.005   5.199  67.292  1.00  0.00    -0.100 A  
HETATM   29  C   UNL     1      -7.000   5.512  66.375  1.00  0.00    -0.064 A  
HETATM   30  C   UNL     1      -7.180   5.302  65.008  1.00  0.00    -0.066 A  
HETATM   31  C   UNL     1      -8.386   4.785  64.524  1.00  0.00    -0.128 A  
HETATM   32  C   UNL     1      -8.605   4.548  63.165  1.00  0.00    -0.113 A  
HETATM   33  N   UNL     1      -9.757   4.067  62.648  1.00  0.00    -0.133 NA 
HETATM   34  C   UNL     1     -10.744   3.806  63.528  1.00  0.00    -0.205 A  
HETATM   35  C   UNL     1     -10.633   3.993  64.900  1.00  0.00    -0.148 A  
HETATM   36  C   UNL     1      -9.431   4.492  65.423  1.00  0.00    -0.175 A  
HETATM   37  C   UNL     1      -9.228   4.708  66.806  1.00  0.00    -0.130 A  
ENDBRANCH  24  28
ENDBRANCH  12  13
ENDBRANCH  11  12
ENDBRANCH   9  11
ENDBRANCH   6   9
TORSDOF 5
ENDMDL
MODEL       95
REMARK 921   NORMALIZED FREE ENERGY PREDICTED BY IDOCK:   -4.91 KCAL/MOL
REMARK 922        TOTAL FREE ENERGY PREDICTED BY IDOCK:   -8.58 KCAL/MOL
REMARK 923 INTER-LIGAND FREE ENERGY PREDICTED BY IDOCK:   -7.32 KCAL/MOL
REMARK 924 INTRA-LIGAND FREE ENERGY PREDICTED BY IDOCK:   -1.25 KCAL/MOL
REMARK 927      BINDING AFFINITY PREDICTED BY RF-SCORE:    0.00 PKD
ROOT
HETATM    1  C   UNL     1     -10.754  12.565  63.537  1.00  0.00    -0.417 C  
HETATM    2  C   UNL     1     -10.099  11.222  63.684  1.00  0.00    -0.432 A  
HETATM    3  C   UNL     1     -10.255  10.481  64.861  1.00  0.00    -0.371 A  
HETATM    4  C   UNL     1      -9.606   9.246  65.041  1.00  0.00    -0.020 A  
HETATM    5  C   UNL     1      -9.813   8.517  66.342  1.00  0.00    -0.327 C  
HETATM    6  C   UNL     1      -8.781   8.746  64.012  1.00  0.00    -0.006 A  
HETATM    7  C   UNL     1      -8.640   9.479  62.822  1.00  0.00    -0.215 A  
HETATM    8  C   UNL     1      -9.294  10.708  62.662  1.00  0.00    -0.332 A  
ENDROOT
BRANCH   6   9
HETATM    9  C   UNL     1      -8.015   7.475  64.208  1.00  0.00    -0.109 C  
HETATM   10  O   UNL     1      -8.310   6.417  63.673  1.00  0.00    -0.011 OA 
BRANCH   9  11
HETATM   11  O   UNL     1      -6.952   7.665  65.032  1.00  0.00    -0.056 OA 
BRANCH  11  12
HETATM   12  C   UNL     1      -6.304   6.451  65.453  1.00  0.00    -0.038 C  
BRANCH  12  13
HETATM   13  C   UNL     1      -7.043   5.841  66.619  1.00  0.00    -0.069 A  
HETATM   14  C   UNL     1      -7.819   4.688  66.453  1.00  0.00    -0.099 A  
HETATM   15  C   UNL     1      -8.622   4.215  67.493  1.00  0.00    -0.107 A  
HETATM   16  C   UNL     1      -8.664   4.890  68.721  1.00  0.00    -0.105 A  
HETATM   17  C   UNL     1      -7.802   5.980  68.917  1.00  0.00    -0.096 A  
HETATM   18  C   UNL     1      -9.666   4.456  69.789  1.00  0.00    -0.291 C  
HETATM   19  C   UNL     1      -7.015   6.463  67.871  1.00  0.00    -0.076 A  
HETATM   20  C   UNL     1     -10.176   5.644  70.630  1.00  0.00    -0.227 C  
HETATM   21  C   UNL     1      -9.060   3.357  70.692  1.00  0.00    -0.115 C  
HETATM   22  O   UNL     1      -9.985   5.684  71.845  1.00  0.00    -0.173 OA 
HETATM   23  N   UNL     1     -10.016   2.815  71.670  1.00  0.00    -0.142 NA 
HETATM   24  N   UNL     1     -10.815   6.635  69.893  1.00  0.00    -0.254 N  
HETATM   25  H1  UNL     1      -9.617   2.089  72.266  1.00  0.00     0.000 HD 
HETATM   26  H2  UNL     1     -10.858   2.478  71.203  1.00  0.00     0.000 HD 
HETATM   27  H   UNL     1     -10.872   6.505  68.883  1.00  0.00     0.000 HD 
BRANCH  24  28
HETATM   28  C   UNL     1     -11.393   7.810  70.431  1.00  0.00    -0.207 A  
HETATM   29  C   UNL     1     -12.223   7.793  71.554  1.00  0.00    -0.344 A  
HETATM   30  C   UNL     1     -12.745   8.973  72.082  1.00  0.00    -0.470 A  
HETATM   31  C   UNL     1     -12.460  10.204  71.483  1.00  0.00    -0.526 A  
HETATM   32  C   UNL     1     -12.953  11.411  71.985  1.00  0.00    -0.273 A  
HETATM   33  N   UNL     1     -12.720  12.621  71.431  1.00  0.00    -0.315 NA 
HETATM   34  C   UNL     1     -11.956  12.635  70.321  1.00  0.00    -0.284 A  
HETATM   35  C   UNL     1     -11.405  11.498  69.742  1.00  0.00    -0.303 A  
HETATM   36  C   UNL     1     -11.654  10.248  70.327  1.00  0.00    -0.396 A  
HETATM   37  C   UNL     1     -11.130   9.042  69.809  1.00  0.00    -0.117 A  
ENDBRANCH  24  28
ENDBRANCH  12  13
ENDBRANCH  11  12
ENDBRANCH   9  11
ENDBRANCH   6   9
TORSDOF 5
ENDMDL
MODEL       96
REMARK 921   NORMALIZED FREE ENERGY PREDICTED BY IDOCK:   -4.90 KCAL/MOL
REMARK 922        TOTAL FREE ENERGY PREDICTED BY IDOCK:   -8.56 KCAL/MOL
REMARK 923 INTER-LIGAND FREE ENERGY PREDICTED BY IDOCK:   -7.63 KCAL/MOL
REMARK 924 INTRA-LIGAND FREE ENERGY PREDICTED BY IDOCK:   -0.93 KCAL/MOL
REMARK 927      BINDING AFFINITY PREDICTED BY RF-SCORE:    0.00 PKD
ROOT
HETATM    1  C   UNL     1      -5.364  18.644  67.884  1.00  0.00    -0.170 C  
HETATM    2  C   UNL     1      -6.395  17.588  67.606  1.00  0.00    -0.163 A  
HETATM    3  C   UNL     1      -7.729  17.942  67.376  1.00  0.00    -0.217 A  
HETATM    4  C   UNL     1      -8.721  16.967  67.168  1.00  0.00    -0.226 A  
HETATM    5  C   UNL     1     -10.136  17.428  66.941  1.00  0.00    -0.314 C  
HETATM    6  C   UNL     1      -8.361  15.603  67.193  1.00  0.00    -0.237 A  
HETATM    7  C   UNL     1      -7.018  15.247  67.404  1.00  0.00    -0.212 A  
HETATM    8  C   UNL     1      -6.045  16.234  67.611  1.00  0.00    -0.173 A  
ENDROOT
BRANCH   6   9
HETATM    9  C   UNL     1      -9.408  14.542  67.055  1.00  0.00    -0.238 C  
HETATM   10  O   UNL     1      -9.742  14.055  65.986  1.00  0.00    -0.294 OA 
BRANCH   9  11
HETATM   11  O   UNL     1      -9.909  14.189  68.267  1.00  0.00    -0.221 OA 
BRANCH  11  12
HETATM   12  C   UNL     1     -11.347  14.150  68.325  1.00  0.00    -0.291 C  
BRANCH  12  13
HETATM   13  C   UNL     1     -11.807  12.951  69.117  1.00  0.00    -0.353 A  
HETATM   14  C   UNL     1     -12.191  13.081  70.457  1.00  0.00    -0.392 A  
HETATM   15  C   UNL     1     -12.468  11.951  71.231  1.00  0.00    -0.319 A  
HETATM   16  C   UNL     1     -12.363  10.668  70.676  1.00  0.00    -0.462 A  
HETATM   17  C   UNL     1     -12.084  10.550  69.306  1.00  0.00    -0.120 A  
HETATM   18  C   UNL     1     -12.510   9.442  71.575  1.00  0.00    -0.450 C  
HETATM   19  C   UNL     1     -11.789  11.678  68.539  1.00  0.00    -0.357 A  
HETATM   20  C   UNL     1     -11.623   8.269  71.112  1.00  0.00    -0.279 C  
HETATM   21  C   UNL     1     -13.991   9.011  71.674  1.00  0.00    -0.332 C  
HETATM   22  O   UNL     1     -12.122   7.194  70.778  1.00  0.00    -0.331 OA 
HETATM   23  N   UNL     1     -14.214   7.905  72.618  1.00  0.00    -0.461 NA 
HETATM   24  N   UNL     1     -10.262   8.554  71.083  1.00  0.00    -0.201 N  
HETATM   25  H1  UNL     1     -15.191   7.621  72.684  1.00  0.00     0.000 HD 
HETATM   26  H2  UNL     1     -13.840   8.134  73.538  1.00  0.00     0.000 HD 
HETATM   27  H   UNL     1      -9.977   9.498  71.344  1.00  0.00     0.000 HD 
BRANCH  24  28
HETATM   28  C   UNL     1      -9.242   7.643  70.722  1.00  0.00    -0.157 A  
HETATM   29  C   UNL     1      -8.781   7.511  69.411  1.00  0.00    -0.137 A  
HETATM   30  C   UNL     1      -7.747   6.631  69.095  1.00  0.00    -0.106 A  
HETATM   31  C   UNL     1      -7.156   5.846  70.090  1.00  0.00    -0.071 A  
HETATM   32  C   UNL     1      -6.110   4.960  69.820  1.00  0.00    -0.022 A  
HETATM   33  N   UNL     1      -5.521   4.169  70.743  1.00  0.00    -0.011 NA 
HETATM   34  C   UNL     1      -5.995   4.263  72.002  1.00  0.00    -0.013 A  
HETATM   35  C   UNL     1      -7.021   5.116  72.385  1.00  0.00    -0.079 A  
HETATM   36  C   UNL     1      -7.624   5.933  71.417  1.00  0.00    -0.098 A  
HETATM   37  C   UNL     1      -8.671   6.834  71.719  1.00  0.00    -0.128 A  
ENDBRANCH  24  28
ENDBRANCH  12  13
ENDBRANCH  11  12
ENDBRANCH   9  11
ENDBRANCH   6   9
TORSDOF 5
ENDMDL
MODEL       97
REMARK 921   NORMALIZED FREE ENERGY PREDICTED BY IDOCK:   -4.88 KCAL/MOL
REMARK 922        TOTAL FREE ENERGY PREDICTED BY IDOCK:   -8.54 KCAL/MOL
REMARK 923 INTER-LIGAND FREE ENERGY PREDICTED BY IDOCK:   -8.64 KCAL/MOL
REMARK 924 INTRA-LIGAND FREE ENERGY PREDICTED BY IDOCK:    0.10 KCAL/MOL
REMARK 927      BINDING AFFINITY PREDICTED BY RF-SCORE:    0.00 PKD
ROOT
HETATM    1  C   UNL     1     -14.245  15.703  71.972  1.00  0.00    -0.500 C  
HETATM    2  C   UNL     1     -13.567  14.406  71.638  1.00  0.00    -0.463 A  
HETATM    3  C   UNL     1     -12.713  14.316  70.534  1.00  0.00    -0.391 A  
HETATM    4  C   UNL     1     -12.110  13.098  70.170  1.00  0.00    -0.392 A  
HETATM    5  C   UNL     1     -11.214  13.080  68.960  1.00  0.00    -0.316 C  
HETATM    6  C   UNL     1     -12.374  11.943  70.937  1.00  0.00    -0.400 A  
HETATM    7  C   UNL     1     -13.216  12.038  72.058  1.00  0.00    -0.481 A  
HETATM    8  C   UNL     1     -13.808  13.260  72.403  1.00  0.00    -0.630 A  
ENDROOT
BRANCH   6   9
HETATM    9  C   UNL     1     -11.811  10.619  70.527  1.00  0.00    -0.357 C  
HETATM   10  O   UNL     1     -10.720  10.482  69.996  1.00  0.00    -0.276 OA 
BRANCH   9  11
HETATM   11  O   UNL     1     -12.660   9.607  70.843  1.00  0.00    -0.288 OA 
BRANCH  11  12
HETATM   12  C   UNL     1     -12.464   9.060  72.160  1.00  0.00    -0.380 C  
BRANCH  12  13
HETATM   13  C   UNL     1     -11.571   7.846  72.094  1.00  0.00    -0.380 A  
HETATM   14  C   UNL     1     -10.260   7.892  72.586  1.00  0.00    -0.361 A  
HETATM   15  C   UNL     1      -9.387   6.820  72.385  1.00  0.00    -0.146 A  
HETATM   16  C   UNL     1      -9.810   5.681  71.687  1.00  0.00    -0.213 A  
HETATM   17  C   UNL     1     -11.154   5.596  71.293  1.00  0.00    -0.205 A  
HETATM   18  C   UNL     1      -8.800   4.591  71.336  1.00  0.00    -0.153 C  
HETATM   19  C   UNL     1     -12.020   6.674  71.477  1.00  0.00    -0.402 A  
HETATM   20  C   UNL     1      -9.121   3.905  69.994  1.00  0.00    -0.120 C  
HETATM   21  C   UNL     1      -8.697   3.553  72.478  1.00  0.00    -0.085 C  
HETATM   22  O   UNL     1      -9.362   2.699  69.942  1.00  0.00    -0.132 OA 
HETATM   23  N   UNL     1      -7.656   2.539  72.251  1.00  0.00    -0.050 NA 
HETATM   24  N   UNL     1      -9.142   4.765  68.901  1.00  0.00    -0.109 N  
HETATM   25  H1  UNL     1      -7.588   1.854  73.004  1.00  0.00     0.000 HD 
HETATM   26  H2  UNL     1      -6.753   2.980  72.080  1.00  0.00     0.000 HD 
HETATM   27  H   UNL     1      -8.968   5.754  69.080  1.00  0.00     0.000 HD 
BRANCH  24  28
HETATM   28  C   UNL     1      -9.385   4.381  67.560  1.00  0.00    -0.154 A  
HETATM   29  C   UNL     1     -10.440   4.902  66.809  1.00  0.00    -0.237 A  
HETATM   30  C   UNL     1     -10.629   4.531  65.478  1.00  0.00    -0.218 A  
HETATM   31  C   UNL     1      -9.767   3.612  64.870  1.00  0.00    -0.172 A  
HETATM   32  C   UNL     1      -9.912   3.222  63.537  1.00  0.00    -0.155 A  
HETATM   33  N   UNL     1      -9.118   2.326  62.911  1.00  0.00    -0.091 NA 
HETATM   34  C   UNL     1      -8.125   1.789  63.649  1.00  0.00    -0.062 A  
HETATM   35  C   UNL     1      -7.882   2.112  64.977  1.00  0.00    -0.077 A  
HETATM   36  C   UNL     1      -8.714   3.044  65.615  1.00  0.00    -0.128 A  
HETATM   37  C   UNL     1      -8.536   3.435  66.962  1.00  0.00    -0.119 A  
ENDBRANCH  24  28
ENDBRANCH  12  13
ENDBRANCH  11  12
ENDBRANCH   9  11
ENDBRANCH   6   9
TORSDOF 5
ENDMDL
MODEL       98
REMARK 921   NORMALIZED FREE ENERGY PREDICTED BY IDOCK:   -4.81 KCAL/MOL
REMARK 922        TOTAL FREE ENERGY PREDICTED BY IDOCK:   -8.45 KCAL/MOL
REMARK 923 INTER-LIGAND FREE ENERGY PREDICTED BY IDOCK:   -7.06 KCAL/MOL
REMARK 924 INTRA-LIGAND FREE ENERGY PREDICTED BY IDOCK:   -1.39 KCAL/MOL
REMARK 927      BINDING AFFINITY PREDICTED BY RF-SCORE:    0.00 PKD
ROOT
HETATM    1  C   UNL     1     -11.145   6.459  68.494  1.00  0.00    -0.385 C  
HETATM    2  C   UNL     1     -10.338   7.081  67.391  1.00  0.00    -0.313 A  
HETATM    3  C   UNL     1     -10.531   8.422  67.041  1.00  0.00    -0.375 A  
HETATM    4  C   UNL     1      -9.826   9.011  65.976  1.00  0.00    -0.312 A  
HETATM    5  C   UNL     1     -10.100  10.455  65.652  1.00  0.00    -0.337 C  
HETATM    6  C   UNL     1      -8.904   8.230  65.246  1.00  0.00    -0.074 A  
HETATM    7  C   UNL     1      -8.695   6.890  65.610  1.00  0.00    -0.086 A  
HETATM    8  C   UNL     1      -9.409   6.321  66.674  1.00  0.00    -0.167 A  
ENDROOT
BRANCH   6   9
HETATM    9  C   UNL     1      -8.199   8.807  64.058  1.00  0.00    -0.161 C  
HETATM   10  O   UNL     1      -8.458   8.504  62.904  1.00  0.00    -0.173 OA 
BRANCH   9  11
HETATM   11  O   UNL     1      -7.264   9.716  64.438  1.00  0.00    -0.110 OA 
BRANCH  11  12
HETATM   12  C   UNL     1      -6.264   9.197  65.335  1.00  0.00    -0.063 C  
BRANCH  12  13
HETATM   13  C   UNL     1      -6.181  10.052  66.576  1.00  0.00    -0.070 A  
HETATM   14  C   UNL     1      -6.809   9.657  67.763  1.00  0.00    -0.078 A  
HETATM   15  C   UNL     1      -6.861  10.518  68.861  1.00  0.00    -0.063 A  
HETATM   16  C   UNL     1      -6.285  11.794  68.790  1.00  0.00    -0.057 A  
HETATM   17  C   UNL     1      -5.564  12.142  67.638  1.00  0.00    -0.099 A  
HETATM   18  C   UNL     1      -6.491  12.781  69.937  1.00  0.00     0.045 C  
HETATM   19  C   UNL     1      -5.529  11.288  66.535  1.00  0.00    -0.135 A  
HETATM   20  C   UNL     1      -6.565  14.241  69.447  1.00  0.00    -0.132 C  
HETATM   21  C   UNL     1      -5.390  12.612  71.009  1.00  0.00    -0.166 C  
HETATM   22  O   UNL     1      -5.744  15.077  69.825  1.00  0.00    -0.099 OA 
HETATM   23  N   UNL     1      -5.597  13.456  72.195  1.00  0.00    -0.418 NA 
HETATM   24  N   UNL     1      -7.593  14.492  68.544  1.00  0.00    -0.115 N  
HETATM   25  H1  UNL     1      -4.870  13.344  72.903  1.00  0.00     0.000 HD 
HETATM   26  H2  UNL     1      -6.521  13.296  72.596  1.00  0.00     0.000 HD 
HETATM   27  H   UNL     1      -8.182  13.704  68.275  1.00  0.00     0.000 HD 
BRANCH  24  28
HETATM   28  C   UNL     1      -7.889  15.751  67.969  1.00  0.00    -0.132 A  
HETATM   29  C   UNL     1      -7.233  16.230  66.833  1.00  0.00    -0.257 A  
HETATM   30  C   UNL     1      -7.576  17.459  66.268  1.00  0.00    -0.348 A  
HETATM   31  C   UNL     1      -8.579  18.246  66.841  1.00  0.00    -0.270 A  
HETATM   32  C   UNL     1      -8.961  19.477  66.302  1.00  0.00    -0.364 A  
HETATM   33  N   UNL     1      -9.911  20.282  66.829  1.00  0.00    -0.450 NA 
HETATM   34  C   UNL     1     -10.513  19.840  67.951  1.00  0.00    -0.393 A  
HETATM   35  C   UNL     1     -10.220  18.629  68.566  1.00  0.00    -0.398 A  
HETATM   36  C   UNL     1      -9.233  17.804  68.008  1.00  0.00    -0.273 A  
HETATM   37  C   UNL     1      -8.876  16.554  68.564  1.00  0.00    -0.228 A  
ENDBRANCH  24  28
ENDBRANCH  12  13
ENDBRANCH  11  12
ENDBRANCH   9  11
ENDBRANCH   6   9
TORSDOF 5
ENDMDL
MODEL       99
REMARK 921   NORMALIZED FREE ENERGY PREDICTED BY IDOCK:   -4.80 KCAL/MOL
REMARK 922        TOTAL FREE ENERGY PREDICTED BY IDOCK:   -8.43 KCAL/MOL
REMARK 923 INTER-LIGAND FREE ENERGY PREDICTED BY IDOCK:   -7.54 KCAL/MOL
REMARK 924 INTRA-LIGAND FREE ENERGY PREDICTED BY IDOCK:   -0.89 KCAL/MOL
REMARK 927      BINDING AFFINITY PREDICTED BY RF-SCORE:    0.00 PKD
ROOT
HETATM    1  C   UNL     1      -5.191  16.361  69.505  1.00  0.00    -0.129 C  
HETATM    2  C   UNL     1      -6.631  16.227  69.102  1.00  0.00    -0.185 A  
HETATM    3  C   UNL     1      -7.158  17.022  68.079  1.00  0.00    -0.168 A  
HETATM    4  C   UNL     1      -8.517  16.953  67.722  1.00  0.00    -0.198 A  
HETATM    5  C   UNL     1      -9.011  17.851  66.620  1.00  0.00    -0.282 C  
HETATM    6  C   UNL     1      -9.365  16.061  68.413  1.00  0.00    -0.207 A  
HETATM    7  C   UNL     1      -8.831  15.248  69.427  1.00  0.00    -0.220 A  
HETATM    8  C   UNL     1      -7.475  15.333  69.769  1.00  0.00    -0.122 A  
ENDROOT
BRANCH   6   9
HETATM    9  C   UNL     1     -10.830  16.023  68.110  1.00  0.00    -0.322 C  
HETATM   10  O   UNL     1     -11.586  16.962  68.305  1.00  0.00     0.007 OA 
BRANCH   9  11
HETATM   11  O   UNL     1     -11.189  14.828  67.575  1.00  0.00    -0.307 OA 
BRANCH  11  12
HETATM   12  C   UNL     1     -11.345  14.842  66.144  1.00  0.00    -0.307 C  
BRANCH  12  13
HETATM   13  C   UNL     1     -10.661  13.645  65.531  1.00  0.00    -0.296 A  
HETATM   14  C   UNL     1     -11.037  13.173  64.267  1.00  0.00    -0.426 A  
HETATM   15  C   UNL     1     -10.512  11.978  63.769  1.00  0.00    -0.469 A  
HETATM   16  C   UNL     1      -9.601  11.231  64.529  1.00  0.00    -0.260 A  
HETATM   17  C   UNL     1      -9.147  11.764  65.746  1.00  0.00    -0.088 A  
HETATM   18  C   UNL     1      -9.163   9.852  64.043  1.00  0.00    -0.302 C  
HETATM   19  C   UNL     1      -9.686  12.948  66.251  1.00  0.00    -0.268 A  
HETATM   20  C   UNL     1      -8.897   8.878  65.208  1.00  0.00    -0.184 C  
HETATM   21  C   UNL     1      -7.927   9.964  63.122  1.00  0.00    -0.145 C  
HETATM   22  O   UNL     1      -7.782   8.383  65.375  1.00  0.00    -0.091 OA 
HETATM   23  N   UNL     1      -7.525   8.680  62.527  1.00  0.00    -0.102 NA 
HETATM   24  N   UNL     1      -9.995   8.656  66.033  1.00  0.00    -0.460 N  
HETATM   25  H1  UNL     1      -6.710   8.754  61.919  1.00  0.00     0.000 HD 
HETATM   26  H2  UNL     1      -8.307   8.249  62.034  1.00  0.00     0.000 HD 
HETATM   27  H   UNL     1     -10.855   9.160  65.813  1.00  0.00     0.000 HD 
BRANCH  24  28
HETATM   28  C   UNL     1     -10.018   7.788  67.151  1.00  0.00    -0.230 A  
HETATM   29  C   UNL     1     -11.028   6.844  67.348  1.00  0.00    -0.374 A  
HETATM   30  C   UNL     1     -11.000   5.977  68.440  1.00  0.00    -0.340 A  
HETATM   31  C   UNL     1      -9.961   6.048  69.374  1.00  0.00    -0.220 A  
HETATM   32  C   UNL     1      -9.888   5.192  70.475  1.00  0.00    -0.215 A  
HETATM   33  N   UNL     1      -8.916   5.233  71.413  1.00  0.00    -0.139 NA 
HETATM   34  C   UNL     1      -7.964   6.174  71.247  1.00  0.00    -0.113 A  
HETATM   35  C   UNL     1      -7.932   7.068  70.185  1.00  0.00    -0.114 A  
HETATM   36  C   UNL     1      -8.947   7.014  69.219  1.00  0.00    -0.138 A  
HETATM   37  C   UNL     1      -8.990   7.882  68.103  1.00  0.00    -0.131 A  
ENDBRANCH  24  28
ENDBRANCH  12  13
ENDBRANCH  11  12
ENDBRANCH   9  11
ENDBRANCH   6   9
TORSDOF 5
ENDMDL
MODEL      100
REMARK 921   NORMALIZED FREE ENERGY PREDICTED BY IDOCK:   -4.76 KCAL/MOL
REMARK 922        TOTAL FREE ENERGY PREDICTED BY IDOCK:   -8.38 KCAL/MOL
REMARK 923 INTER-LIGAND FREE ENERGY PREDICTED BY IDOCK:   -6.62 KCAL/MOL
REMARK 924 INTRA-LIGAND FREE ENERGY PREDICTED BY IDOCK:   -1.76 KCAL/MOL
REMARK 927      BINDING AFFINITY PREDICTED BY RF-SCORE:    0.00 PKD
ROOT
HETATM    1  C   UNL     1     -11.259   6.100  68.320  1.00  0.00    -0.192 C  
HETATM    2  C   UNL     1      -9.863   6.393  67.850  1.00  0.00    -0.130 A  
HETATM    3  C   UNL     1      -9.537   6.297  66.492  1.00  0.00    -0.183 A  
HETATM    4  C   UNL     1      -8.225   6.514  66.036  1.00  0.00    -0.127 A  
HETATM    5  C   UNL     1      -7.952   6.378  64.562  1.00  0.00    -0.117 C  
HETATM    6  C   UNL     1      -7.216   6.834  66.970  1.00  0.00    -0.081 A  
HETATM    7  C   UNL     1      -7.547   6.950  68.330  1.00  0.00    -0.107 A  
HETATM    8  C   UNL     1      -8.860   6.729  68.765  1.00  0.00    -0.131 A  
ENDROOT
BRANCH   6   9
HETATM    9  C   UNL     1      -5.796   6.991  66.523  1.00  0.00    -0.030 C  
HETATM   10  O   UNL     1      -5.137   6.087  66.034  1.00  0.00    -0.008 OA 
BRANCH   9  11
HETATM   11  O   UNL     1      -5.360   8.263  66.716  1.00  0.00    -0.031 OA 
BRANCH  11  12
HETATM   12  C   UNL     1      -5.598   9.144  65.602  1.00  0.00    -0.045 C  
BRANCH  12  13
HETATM   13  C   UNL     1      -6.478  10.295  66.025  1.00  0.00    -0.107 A  
HETATM   14  C   UNL     1      -5.923  11.456  66.580  1.00  0.00    -0.147 A  
HETATM   15  C   UNL     1      -6.745  12.452  67.111  1.00  0.00    -0.084 A  
HETATM   16  C   UNL     1      -8.140  12.306  67.097  1.00  0.00    -0.173 A  
HETATM   17  C   UNL     1      -8.691  11.193  66.442  1.00  0.00    -0.177 A  
HETATM   18  C   UNL     1      -9.014  13.324  67.824  1.00  0.00    -0.196 C  
HETATM   19  C   UNL     1      -7.868  10.189  65.930  1.00  0.00    -0.132 A  
HETATM   20  C   UNL     1     -10.284  12.685  68.421  1.00  0.00    -0.232 C  
HETATM   21  C   UNL     1      -9.375  14.501  66.888  1.00  0.00    -0.245 C  
HETATM   22  O   UNL     1     -11.404  13.050  68.062  1.00  0.00    -0.256 OA 
HETATM   23  N   UNL     1     -10.121  15.574  67.564  1.00  0.00    -0.239 NA 
HETATM   24  N   UNL     1     -10.037  11.673  69.343  1.00  0.00    -0.390 N  
HETATM   25  H1  UNL     1     -10.359  16.351  66.947  1.00  0.00     0.000 HD 
HETATM   26  H2  UNL     1      -9.615  15.905  68.385  1.00  0.00     0.000 HD 
HETATM   27  H   UNL     1      -9.062  11.433  69.525  1.00  0.00     0.000 HD 
BRANCH  24  28
HETATM   28  C   UNL     1     -11.027  10.950  70.051  1.00  0.00    -0.151 A  
HETATM   29  C   UNL     1     -12.185  11.552  70.549  1.00  0.00    -0.469 A  
HETATM   30  C   UNL     1     -13.160  10.803  71.207  1.00  0.00    -0.427 A  
HETATM   31  C   UNL     1     -12.989   9.429  71.397  1.00  0.00    -0.421 A  
HETATM   32  C   UNL     1     -13.945   8.639  72.041  1.00  0.00    -0.446 A  
HETATM   33  N   UNL     1     -13.817   7.312  72.263  1.00  0.00     0.061 NA 
HETATM   34  C   UNL     1     -12.679   6.739  71.822  1.00  0.00    -0.296 A  
HETATM   35  C   UNL     1     -11.669   7.424  71.161  1.00  0.00    -0.322 A  
HETATM   36  C   UNL     1     -11.814   8.801  70.935  1.00  0.00    -0.267 A  
HETATM   37  C   UNL     1     -10.839   9.575  70.266  1.00  0.00    -0.319 A  
ENDBRANCH  24  28
ENDBRANCH  12  13
ENDBRANCH  11  12
ENDBRANCH   9  11
ENDBRANCH   6   9
TORSDOF 5
ENDMDL
MODEL      101
REMARK 921   NORMALIZED FREE ENERGY PREDICTED BY IDOCK:   -4.75 KCAL/MOL
REMARK 922        TOTAL FREE ENERGY PREDICTED BY IDOCK:   -8.36 KCAL/MOL
REMARK 923 INTER-LIGAND FREE ENERGY PREDICTED BY IDOCK:   -6.28 KCAL/MOL
REMARK 924 INTRA-LIGAND FREE ENERGY PREDICTED BY IDOCK:   -2.08 KCAL/MOL
REMARK 927      BINDING AFFINITY PREDICTED BY RF-SCORE:    0.00 PKD
ROOT
HETATM    1  C   UNL     1     -12.832  12.372  70.644  1.00  0.00    -0.011 C  
HETATM    2  C   UNL     1     -11.912  13.435  70.116  1.00  0.00    -0.396 A  
HETATM    3  C   UNL     1     -10.732  13.085  69.450  1.00  0.00     0.138 A  
HETATM    4  C   UNL     1      -9.829  14.062  68.995  1.00  0.00     0.005 A  
HETATM    5  C   UNL     1      -8.574  13.605  68.301  1.00  0.00    -0.170 C  
HETATM    6  C   UNL     1     -10.121  15.425  69.217  1.00  0.00    -0.253 A  
HETATM    7  C   UNL     1     -11.315  15.778  69.867  1.00  0.00    -0.349 A  
HETATM    8  C   UNL     1     -12.202  14.789  70.314  1.00  0.00    -0.394 A  
ENDROOT
BRANCH   6   9
HETATM    9  C   UNL     1      -9.141  16.483  68.816  1.00  0.00    -0.256 C  
HETATM   10  O   UNL     1      -7.942  16.414  69.038  1.00  0.00    -0.224 OA 
BRANCH   9  11
HETATM   11  O   UNL     1      -9.759  17.501  68.163  1.00  0.00    -0.278 OA 
BRANCH  11  12
HETATM   12  C   UNL     1      -9.493  17.544  66.748  1.00  0.00    -0.275 C  
BRANCH  12  13
HETATM   13  C   UNL     1     -10.139  16.367  66.059  1.00  0.00    -0.373 A  
HETATM   14  C   UNL     1     -11.533  16.237  66.015  1.00  0.00     0.620 A  
HETATM   15  C   UNL     1     -12.124  15.075  65.514  1.00  0.00     0.072 A  
HETATM   16  C   UNL     1     -11.329  14.018  65.048  1.00  0.00    -0.342 A  
HETATM   17  C   UNL     1      -9.938  14.198  64.994  1.00  0.00    -0.216 A  
HETATM   18  C   UNL     1     -11.983  12.696  64.656  1.00  0.00    -0.463 C  
HETATM   19  C   UNL     1      -9.348  15.352  65.512  1.00  0.00    -0.037 A  
HETATM   20  C   UNL     1     -11.081  11.483  64.962  1.00  0.00    -0.201 C  
HETATM   21  C   UNL     1     -12.402  12.713  63.168  1.00  0.00    -0.187 C  
HETATM   22  O   UNL     1     -10.699  10.737  64.060  1.00  0.00    -0.281 OA 
HETATM   23  N   UNL     1     -13.143  11.509  62.758  1.00  0.00    -0.547 NA 
HETATM   24  N   UNL     1     -10.734  11.350  66.303  1.00  0.00    -0.268 N  
HETATM   25  H1  UNL     1     -13.420  11.521  61.776  1.00  0.00     0.000 HD 
HETATM   26  H2  UNL     1     -13.952  11.360  63.361  1.00  0.00     0.000 HD 
HETATM   27  H   UNL     1     -11.081  12.060  66.948  1.00  0.00     0.000 HD 
BRANCH  24  28
HETATM   28  C   UNL     1      -9.941  10.310  66.844  1.00  0.00    -0.208 A  
HETATM   29  C   UNL     1      -8.765   9.868  66.234  1.00  0.00    -0.152 A  
HETATM   30  C   UNL     1      -7.985   8.867  66.814  1.00  0.00    -0.107 A  
HETATM   31  C   UNL     1      -8.377   8.273  68.018  1.00  0.00    -0.129 A  
HETATM   32  C   UNL     1      -7.620   7.277  68.639  1.00  0.00    -0.114 A  
HETATM   33  N   UNL     1      -7.965   6.660  69.791  1.00  0.00    -0.118 NA 
HETATM   34  C   UNL     1      -9.123   7.056  70.358  1.00  0.00    -0.156 A  
HETATM   35  C   UNL     1      -9.947   8.044  69.834  1.00  0.00    -0.189 A  
HETATM   36  C   UNL     1      -9.576   8.676  68.637  1.00  0.00    -0.159 A  
HETATM   37  C   UNL     1     -10.352   9.694  68.037  1.00  0.00    -0.262 A  
ENDBRANCH  24  28
ENDBRANCH  12  13
ENDBRANCH  11  12
ENDBRANCH   9  11
ENDBRANCH   6   9
TORSDOF 5
ENDMDL
MODEL      102
REMARK 921   NORMALIZED FREE ENERGY PREDICTED BY IDOCK:   -4.72 KCAL/MOL
REMARK 922        TOTAL FREE ENERGY PREDICTED BY IDOCK:   -8.32 KCAL/MOL
REMARK 923 INTER-LIGAND FREE ENERGY PREDICTED BY IDOCK:   -7.76 KCAL/MOL
REMARK 924 INTRA-LIGAND FREE ENERGY PREDICTED BY IDOCK:   -0.56 KCAL/MOL
REMARK 927      BINDING AFFINITY PREDICTED BY RF-SCORE:    0.00 PKD
ROOT
HETATM    1  C   UNL     1     -11.249  15.219  71.770  1.00  0.00    -0.364 C  
HETATM    2  C   UNL     1     -11.077  15.295  70.281  1.00  0.00    -0.316 A  
HETATM    3  C   UNL     1      -9.846  14.986  69.692  1.00  0.00    -0.095 A  
HETATM    4  C   UNL     1      -9.646  15.102  68.305  1.00  0.00    -0.211 A  
HETATM    5  C   UNL     1      -8.288  14.764  67.750  1.00  0.00    -0.166 C  
HETATM    6  C   UNL     1     -10.711  15.542  67.491  1.00  0.00    -0.300 A  
HETATM    7  C   UNL     1     -11.953  15.834  68.079  1.00  0.00     0.183 A  
HETATM    8  C   UNL     1     -12.132  15.712  69.463  1.00  0.00    -0.307 A  
ENDROOT
BRANCH   6   9
HETATM    9  C   UNL     1     -10.504  15.752  66.024  1.00  0.00    -0.338 C  
HETATM   10  O   UNL     1      -9.604  16.434  65.558  1.00  0.00    -0.491 OA 
BRANCH   9  11
HETATM   11  O   UNL     1     -11.428  15.072  65.297  1.00  0.00    -0.348 OA 
BRANCH  11  12
HETATM   12  C   UNL     1     -11.783  13.788  65.843  1.00  0.00    -0.352 C  
BRANCH  12  13
HETATM   13  C   UNL     1     -10.890  12.713  65.274  1.00  0.00    -0.319 A  
HETATM   14  C   UNL     1     -11.084  12.234  63.972  1.00  0.00    -0.446 A  
HETATM   15  C   UNL     1     -10.359  11.136  63.503  1.00  0.00    -0.446 A  
HETATM   16  C   UNL     1      -9.425  10.496  64.330  1.00  0.00    -0.333 A  
HETATM   17  C   UNL     1      -9.158  11.048  65.593  1.00  0.00    -0.223 A  
HETATM   18  C   UNL     1      -8.761   9.204  63.862  1.00  0.00    -0.154 C  
HETATM   19  C   UNL     1      -9.896  12.132  66.067  1.00  0.00    -0.260 A  
HETATM   20  C   UNL     1      -8.469   8.239  65.028  1.00  0.00    -0.123 C  
HETATM   21  C   UNL     1      -7.475   9.509  63.060  1.00  0.00    -0.108 C  
HETATM   22  O   UNL     1      -7.316   7.894  65.288  1.00  0.00    -0.069 OA 
HETATM   23  N   UNL     1      -6.850   8.309  62.482  1.00  0.00    -0.090 NA 
HETATM   24  N   UNL     1      -9.595   7.847  65.744  1.00  0.00    -0.394 N  
HETATM   25  H1  UNL     1      -6.002   8.511  61.953  1.00  0.00     0.000 HD 
HETATM   26  H2  UNL     1      -7.519   7.792  61.911  1.00  0.00     0.000 HD 
HETATM   27  H   UNL     1     -10.492   8.237  65.456  1.00  0.00     0.000 HD 
BRANCH  24  28
HETATM   28  C   UNL     1      -9.598   6.950  66.840  1.00  0.00    -0.162 A  
HETATM   29  C   UNL     1      -9.686   7.383  68.164  1.00  0.00    -0.163 A  
HETATM   30  C   UNL     1      -9.726   6.471  69.219  1.00  0.00    -0.152 A  
HETATM   31  C   UNL     1      -9.662   5.096  68.969  1.00  0.00    -0.227 A  
HETATM   32  C   UNL     1      -9.710   4.149  69.994  1.00  0.00    -0.212 A  
HETATM   33  N   UNL     1      -9.633   2.813  69.805  1.00  0.00    -0.075 NA 
HETATM   34  C   UNL     1      -9.503   2.396  68.529  1.00  0.00    -0.145 A  
HETATM   35  C   UNL     1      -9.456   3.248  67.434  1.00  0.00    -0.198 A  
HETATM   36  C   UNL     1      -9.537   4.633  67.644  1.00  0.00    -0.200 A  
HETATM   37  C   UNL     1      -9.503   5.572  66.588  1.00  0.00    -0.154 A  
ENDBRANCH  24  28
ENDBRANCH  12  13
ENDBRANCH  11  12
ENDBRANCH   9  11
ENDBRANCH   6   9
TORSDOF 5
ENDMDL
MODEL      103
REMARK 921   NORMALIZED FREE ENERGY PREDICTED BY IDOCK:   -4.70 KCAL/MOL
REMARK 922        TOTAL FREE ENERGY PREDICTED BY IDOCK:   -8.30 KCAL/MOL
REMARK 923 INTER-LIGAND FREE ENERGY PREDICTED BY IDOCK:   -7.89 KCAL/MOL
REMARK 924 INTRA-LIGAND FREE ENERGY PREDICTED BY IDOCK:   -0.41 KCAL/MOL
REMARK 927      BINDING AFFINITY PREDICTED BY RF-SCORE:    0.00 PKD
ROOT
HETATM    1  C   UNL     1      -5.135  13.644  67.746  1.00  0.00    -0.020 C  
HETATM    2  C   UNL     1      -5.605  15.051  67.979  1.00  0.00    -0.145 A  
HETATM    3  C   UNL     1      -5.347  15.693  69.195  1.00  0.00    -0.100 A  
HETATM    4  C   UNL     1      -5.824  16.990  69.456  1.00  0.00    -0.203 A  
HETATM    5  C   UNL     1      -5.516  17.607  70.794  1.00  0.00    -0.145 C  
HETATM    6  C   UNL     1      -6.581  17.656  68.468  1.00  0.00    -0.204 A  
HETATM    7  C   UNL     1      -6.823  17.020  67.239  1.00  0.00    -0.195 A  
HETATM    8  C   UNL     1      -6.339  15.727  66.999  1.00  0.00     0.160 A  
ENDROOT
BRANCH   6   9
HETATM    9  C   UNL     1      -7.169  19.003  68.748  1.00  0.00    -0.323 C  
HETATM   10  O   UNL     1      -6.501  20.000  68.974  1.00  0.00    -0.301 OA 
BRANCH   9  11
HETATM   11  O   UNL     1      -8.526  18.966  68.692  1.00  0.00    -0.346 OA 
BRANCH  11  12
HETATM   12  C   UNL     1      -9.127  17.992  69.566  1.00  0.00     0.631 C  
BRANCH  12  13
HETATM   13  C   UNL     1      -9.822  16.924  68.757  1.00  0.00    -0.269 A  
HETATM   14  C   UNL     1     -11.051  17.180  68.137  1.00  0.00    -0.118 A  
HETATM   15  C   UNL     1     -11.765  16.150  67.521  1.00  0.00     0.375 A  
HETATM   16  C   UNL     1     -11.262  14.842  67.515  1.00  0.00    -0.339 A  
HETATM   17  C   UNL     1      -9.981  14.613  68.042  1.00  0.00    -0.220 A  
HETATM   18  C   UNL     1     -12.127  13.701  66.983  1.00  0.00    -0.423 C  
HETATM   19  C   UNL     1      -9.278  15.639  68.674  1.00  0.00    -0.205 A  
HETATM   20  C   UNL     1     -11.875  12.377  67.731  1.00  0.00    -0.298 C  
HETATM   21  C   UNL     1     -11.922  13.525  65.460  1.00  0.00    -0.390 C  
HETATM   22  O   UNL     1     -11.458  11.384  67.134  1.00  0.00    -0.450 OA 
HETATM   23  N   UNL     1     -12.813  12.517  64.866  1.00  0.00    -0.800 NA 
HETATM   24  N   UNL     1     -12.126  12.434  69.098  1.00  0.00    -0.213 N  
HETATM   25  H1  UNL     1     -12.678  12.400  63.861  1.00  0.00     0.000 HD 
HETATM   26  H2  UNL     1     -13.788  12.726  65.078  1.00  0.00     0.000 HD 
HETATM   27  H   UNL     1     -12.427  13.330  69.481  1.00  0.00     0.000 HD 
BRANCH  24  28
HETATM   28  C   UNL     1     -11.997  11.351  70.000  1.00  0.00    -0.363 A  
HETATM   29  C   UNL     1     -13.001  11.006  70.907  1.00  0.00    -0.314 A  
HETATM   30  C   UNL     1     -12.859   9.908  71.756  1.00  0.00    -0.540 A  
HETATM   31  C   UNL     1     -11.694   9.136  71.725  1.00  0.00    -0.456 A  
HETATM   32  C   UNL     1     -11.515   8.022  72.549  1.00  0.00    -0.409 A  
HETATM   33  N   UNL     1     -10.402   7.256  72.569  1.00  0.00    -0.205 NA 
HETATM   34  C   UNL     1      -9.414   7.615  71.724  1.00  0.00    -0.145 A  
HETATM   35  C   UNL     1      -9.489   8.695  70.854  1.00  0.00    -0.242 A  
HETATM   36  C   UNL     1     -10.650   9.481  70.844  1.00  0.00    -0.395 A  
HETATM   37  C   UNL     1     -10.814  10.595  69.988  1.00  0.00    -0.280 A  
ENDBRANCH  24  28
ENDBRANCH  12  13
ENDBRANCH  11  12
ENDBRANCH   9  11
ENDBRANCH   6   9
TORSDOF 5
ENDMDL
MODEL      104
REMARK 921   NORMALIZED FREE ENERGY PREDICTED BY IDOCK:   -4.69 KCAL/MOL
REMARK 922        TOTAL FREE ENERGY PREDICTED BY IDOCK:   -8.28 KCAL/MOL
REMARK 923 INTER-LIGAND FREE ENERGY PREDICTED BY IDOCK:   -5.77 KCAL/MOL
REMARK 924 INTRA-LIGAND FREE ENERGY PREDICTED BY IDOCK:   -2.52 KCAL/MOL
REMARK 927      BINDING AFFINITY PREDICTED BY RF-SCORE:    0.00 PKD
ROOT
HETATM    1  C   UNL     1      -8.261   7.662  66.766  1.00  0.00    -0.124 C  
HETATM    2  C   UNL     1      -7.594   6.748  67.752  1.00  0.00    -0.107 A  
HETATM    3  C   UNL     1      -7.877   5.378  67.753  1.00  0.00    -0.096 A  
HETATM    4  C   UNL     1      -7.305   4.511  68.702  1.00  0.00    -0.060 A  
HETATM    5  C   UNL     1      -7.671   3.052  68.646  1.00  0.00    -0.051 C  
HETATM    6  C   UNL     1      -6.428   5.038  69.674  1.00  0.00    -0.035 A  
HETATM    7  C   UNL     1      -6.127   6.410  69.660  1.00  0.00    -0.029 A  
HETATM    8  C   UNL     1      -6.708   7.257  68.707  1.00  0.00    -0.067 A  
ENDROOT
BRANCH   6   9
HETATM    9  C   UNL     1      -5.868   4.155  70.744  1.00  0.00    -0.014 C  
HETATM   10  O   UNL     1      -5.181   3.171  70.520  1.00  0.00    -0.004 OA 
BRANCH   9  11
HETATM   11  O   UNL     1      -6.207   4.607  71.979  1.00  0.00    -0.019 OA 
BRANCH  11  12
HETATM   12  C   UNL     1      -7.386   3.993  72.532  1.00  0.00    -0.067 C  
BRANCH  12  13
HETATM   13  C   UNL     1      -8.605   4.825  72.217  1.00  0.00    -0.121 A  
HETATM   14  C   UNL     1      -9.671   4.289  71.485  1.00  0.00    -0.244 A  
HETATM   15  C   UNL     1     -10.725   5.102  71.064  1.00  0.00    -0.133 A  
HETATM   16  C   UNL     1     -10.732   6.470  71.368  1.00  0.00    -0.280 A  
HETATM   17  C   UNL     1      -9.718   6.979  72.195  1.00  0.00    -0.161 A  
HETATM   18  C   UNL     1     -11.805   7.374  70.765  1.00  0.00    -0.288 C  
HETATM   19  C   UNL     1      -8.655   6.170  72.598  1.00  0.00    -0.124 A  
HETATM   20  C   UNL     1     -11.281   8.796  70.481  1.00  0.00    -0.247 C  
HETATM   21  C   UNL     1     -13.057   7.416  71.672  1.00  0.00    -0.364 C  
HETATM   22  O   UNL     1     -11.782   9.776  71.033  1.00  0.00    -0.311 OA 
HETATM   23  N   UNL     1     -14.172   8.179  71.089  1.00  0.00    -0.662 NA 
HETATM   24  N   UNL     1     -10.207   8.845  69.599  1.00  0.00    -0.200 N  
HETATM   25  H1  UNL     1     -14.998   8.207  71.687  1.00  0.00     0.000 HD 
HETATM   26  H2  UNL     1     -14.407   7.825  70.162  1.00  0.00     0.000 HD 
HETATM   27  H   UNL     1      -9.854   7.957  69.241  1.00  0.00     0.000 HD 
BRANCH  24  28
HETATM   28  C   UNL     1      -9.564  10.026  69.157  1.00  0.00    -0.210 A  
HETATM   29  C   UNL     1      -8.221  10.297  69.427  1.00  0.00    -0.171 A  
HETATM   30  C   UNL     1      -7.607  11.452  68.943  1.00  0.00    -0.114 A  
HETATM   31  C   UNL     1      -8.334  12.375  68.186  1.00  0.00    -0.178 A  
HETATM   32  C   UNL     1      -7.756  13.539  67.672  1.00  0.00    -0.176 A  
HETATM   33  N   UNL     1      -8.420  14.469  66.951  1.00  0.00    -0.191 NA 
HETATM   34  C   UNL     1      -9.728  14.230  66.727  1.00  0.00    -0.275 A  
HETATM   35  C   UNL     1     -10.401  13.103  67.179  1.00  0.00    -0.247 A  
HETATM   36  C   UNL     1      -9.699  12.145  67.926  1.00  0.00    -0.200 A  
HETATM   37  C   UNL     1     -10.304  10.967  68.421  1.00  0.00    -0.196 A  
ENDBRANCH  24  28
ENDBRANCH  12  13
ENDBRANCH  11  12
ENDBRANCH   9  11
ENDBRANCH   6   9
TORSDOF 5
ENDMDL
MODEL      105
REMARK 921   NORMALIZED FREE ENERGY PREDICTED BY IDOCK:   -4.65 KCAL/MOL
REMARK 922        TOTAL FREE ENERGY PREDICTED BY IDOCK:   -8.24 KCAL/MOL
REMARK 923 INTER-LIGAND FREE ENERGY PREDICTED BY IDOCK:   -6.68 KCAL/MOL
REMARK 924 INTRA-LIGAND FREE ENERGY PREDICTED BY IDOCK:   -1.56 KCAL/MOL
REMARK 927      BINDING AFFINITY PREDICTED BY RF-SCORE:    0.00 PKD
ROOT
HETATM    1  C   UNL     1     -12.704  12.793  63.596  1.00  0.00    -0.259 C  
HETATM    2  C   UNL     1     -11.556  11.859  63.844  1.00  0.00    -0.515 A  
HETATM    3  C   UNL     1     -11.169  11.542  65.151  1.00  0.00    -0.214 A  
HETATM    4  C   UNL     1     -10.062  10.713  65.408  1.00  0.00    -0.356 A  
HETATM    5  C   UNL     1      -9.701  10.430  66.842  1.00  0.00    -0.223 C  
HETATM    6  C   UNL     1      -9.326  10.191  64.322  1.00  0.00    -0.349 A  
HETATM    7  C   UNL     1      -9.726  10.493  63.010  1.00  0.00    -0.337 A  
HETATM    8  C   UNL     1     -10.831  11.322  62.775  1.00  0.00     0.415 A  
ENDROOT
BRANCH   6   9
HETATM    9  C   UNL     1      -8.097   9.373  64.566  1.00  0.00    -0.136 C  
HETATM   10  O   UNL     1      -8.120   8.184  64.844  1.00  0.00    -0.140 OA 
BRANCH   9  11
HETATM   11  O   UNL     1      -6.974  10.120  64.414  1.00  0.00    -0.130 OA 
BRANCH  11  12
HETATM   12  C   UNL     1      -5.864   9.693  65.226  1.00  0.00    -0.067 C  
BRANCH  12  13
HETATM   13  C   UNL     1      -5.840  10.463  66.524  1.00  0.00    -0.068 A  
HETATM   14  C   UNL     1      -6.184   9.844  67.732  1.00  0.00    -0.055 A  
HETATM   15  C   UNL     1      -6.310  10.592  68.904  1.00  0.00    -0.045 A  
HETATM   16  C   UNL     1      -6.095  11.978  68.889  1.00  0.00    -0.067 A  
HETATM   17  C   UNL     1      -5.645  12.574  67.700  1.00  0.00    -0.128 A  
HETATM   18  C   UNL     1      -6.394  12.803  70.138  1.00  0.00     0.062 C  
HETATM   19  C   UNL     1      -5.538  11.828  66.526  1.00  0.00     0.018 A  
HETATM   20  C   UNL     1      -6.903  14.218  69.797  1.00  0.00    -0.053 C  
HETATM   21  C   UNL     1      -5.154  12.868  71.060  1.00  0.00    -0.149 C  
HETATM   22  O   UNL     1      -6.281  15.217  70.158  1.00  0.00    -0.154 OA 
HETATM   23  N   UNL     1      -5.413  13.553  72.336  1.00  0.00    -0.425 NA 
HETATM   24  N   UNL     1      -8.071  14.240  69.041  1.00  0.00    -0.315 N  
HETATM   25  H1  UNL     1      -4.595  13.596  72.944  1.00  0.00     0.000 HD 
HETATM   26  H2  UNL     1      -6.203  13.129  72.820  1.00  0.00     0.000 HD 
HETATM   27  H   UNL     1      -8.468  13.342  68.768  1.00  0.00     0.000 HD 
BRANCH  24  28
HETATM   28  C   UNL     1      -8.753  15.408  68.622  1.00  0.00    -0.191 A  
HETATM   29  C   UNL     1     -10.068  15.686  69.000  1.00  0.00    -0.227 A  
HETATM   30  C   UNL     1     -10.698  16.865  68.602  1.00  0.00    -0.345 A  
HETATM   31  C   UNL     1     -10.025  17.790  67.797  1.00  0.00    -0.322 A  
HETATM   32  C   UNL     1     -10.614  18.987  67.384  1.00  0.00    -0.474 A  
HETATM   33  N   UNL     1     -10.013  19.903  66.593  1.00  0.00    -0.422 NA 
HETATM   34  C   UNL     1      -8.759  19.614  66.191  1.00  0.00    -0.333 A  
HETATM   35  C   UNL     1      -8.073  18.461  66.549  1.00  0.00    -0.291 A  
HETATM   36  C   UNL     1      -8.710  17.519  67.372  1.00  0.00    -0.231 A  
HETATM   37  C   UNL     1      -8.085  16.321  67.789  1.00  0.00    -0.160 A  
ENDBRANCH  24  28
ENDBRANCH  12  13
ENDBRANCH  11  12
ENDBRANCH   9  11
ENDBRANCH   6   9
TORSDOF 5
ENDMDL
MODEL      106
REMARK 921   NORMALIZED FREE ENERGY PREDICTED BY IDOCK:   -4.65 KCAL/MOL
REMARK 922        TOTAL FREE ENERGY PREDICTED BY IDOCK:   -8.24 KCAL/MOL
REMARK 923 INTER-LIGAND FREE ENERGY PREDICTED BY IDOCK:   -7.12 KCAL/MOL
REMARK 924 INTRA-LIGAND FREE ENERGY PREDICTED BY IDOCK:   -1.11 KCAL/MOL
REMARK 927      BINDING AFFINITY PREDICTED BY RF-SCORE:    0.00 PKD
ROOT
HETATM    1  C   UNL     1      -7.831   8.516  63.524  1.00  0.00    -0.151 C  
HETATM    2  C   UNL     1      -8.282   8.144  64.907  1.00  0.00    -0.150 A  
HETATM    3  C   UNL     1      -9.243   8.915  65.571  1.00  0.00    -0.242 A  
HETATM    4  C   UNL     1      -9.641   8.617  66.887  1.00  0.00    -0.254 A  
HETATM    5  C   UNL     1     -10.670   9.503  67.537  1.00  0.00    -0.311 C  
HETATM    6  C   UNL     1      -9.056   7.517  67.550  1.00  0.00    -0.130 A  
HETATM    7  C   UNL     1      -8.106   6.731  66.877  1.00  0.00    -0.109 A  
HETATM    8  C   UNL     1      -7.722   7.045  65.566  1.00  0.00    -0.105 A  
ENDROOT
BRANCH   6   9
HETATM    9  C   UNL     1      -9.401   7.225  68.977  1.00  0.00    -0.148 C  
HETATM   10  O   UNL     1      -8.596   7.285  69.893  1.00  0.00    -0.138 OA 
BRANCH   9  11
HETATM   11  O   UNL     1     -10.716   6.912  69.109  1.00  0.00    -0.219 OA 
BRANCH  11  12
HETATM   12  C   UNL     1     -11.199   6.945  70.464  1.00  0.00    -0.307 C  
BRANCH  12  13
HETATM   13  C   UNL     1     -11.747   8.313  70.791  1.00  0.00    -0.213 A  
HETATM   14  C   UNL     1     -13.117   8.582  70.682  1.00  0.00     0.575 A  
HETATM   15  C   UNL     1     -13.601   9.883  70.834  1.00  0.00    -0.084 A  
HETATM   16  C   UNL     1     -12.721  10.942  71.099  1.00  0.00    -0.530 A  
HETATM   17  C   UNL     1     -11.365  10.649  71.315  1.00  0.00     0.389 A  
HETATM   18  C   UNL     1     -13.243  12.376  71.102  1.00  0.00     0.034 C  
HETATM   19  C   UNL     1     -10.880   9.352  71.143  1.00  0.00    -0.427 A  
HETATM   20  C   UNL     1     -12.192  13.383  70.592  1.00  0.00    -0.350 C  
HETATM   21  C   UNL     1     -13.750  12.771  72.508  1.00  0.00    -0.232 C  
HETATM   22  O   UNL     1     -11.782  14.290  71.316  1.00  0.00    -0.251 OA 
HETATM   23  N   UNL     1     -14.372  14.103  72.550  1.00  0.00    -0.565 NA 
HETATM   24  N   UNL     1     -11.752  13.144  69.294  1.00  0.00    -0.305 N  
HETATM   25  H1  UNL     1     -14.708  14.363  73.478  1.00  0.00     0.000 HD 
HETATM   26  H2  UNL     1     -15.121  14.174  71.861  1.00  0.00     0.000 HD 
HETATM   27  H   UNL     1     -12.137  12.332  68.811  1.00  0.00     0.000 HD 
BRANCH  24  28
HETATM   28  C   UNL     1     -10.814  13.936  68.589  1.00  0.00    -0.262 A  
HETATM   29  C   UNL     1      -9.526  13.487  68.291  1.00  0.00    -0.212 A  
HETATM   30  C   UNL     1      -8.638  14.277  67.560  1.00  0.00    -0.203 A  
HETATM   31  C   UNL     1      -9.019  15.549  67.122  1.00  0.00    -0.232 A  
HETATM   32  C   UNL     1      -8.167  16.368  66.378  1.00  0.00    -0.331 A  
HETATM   33  N   UNL     1      -8.483  17.610  65.947  1.00  0.00    -0.537 NA 
HETATM   34  C   UNL     1      -9.711  18.062  66.272  1.00  0.00    -0.270 A  
HETATM   35  C   UNL     1     -10.642  17.329  66.997  1.00  0.00    -0.231 A  
HETATM   36  C   UNL     1     -10.301  16.041  67.437  1.00  0.00    -0.294 A  
HETATM   37  C   UNL     1     -11.189  15.225  68.175  1.00  0.00    -0.328 A  
ENDBRANCH  24  28
ENDBRANCH  12  13
ENDBRANCH  11  12
ENDBRANCH   9  11
ENDBRANCH   6   9
TORSDOF 5
ENDMDL
MODEL      107
REMARK 921   NORMALIZED FREE ENERGY PREDICTED BY IDOCK:   -4.58 KCAL/MOL
REMARK 922        TOTAL FREE ENERGY PREDICTED BY IDOCK:   -8.15 KCAL/MOL
REMARK 923 INTER-LIGAND FREE ENERGY PREDICTED BY IDOCK:   -7.32 KCAL/MOL
REMARK 924 INTRA-LIGAND FREE ENERGY PREDICTED BY IDOCK:   -0.83 KCAL/MOL
REMARK 927      BINDING AFFINITY PREDICTED BY RF-SCORE:    0.00 PKD
ROOT
HETATM    1  C   UNL     1      -7.293   6.152  64.422  1.00  0.00    -0.069 C  
HETATM    2  C   UNL     1      -8.071   6.372  65.687  1.00  0.00    -0.131 A  
HETATM    3  C   UNL     1      -7.446   6.901  66.822  1.00  0.00    -0.082 A  
HETATM    4  C   UNL     1      -8.141   7.065  68.033  1.00  0.00    -0.119 A  
HETATM    5  C   UNL     1      -7.394   7.628  69.213  1.00  0.00    -0.088 C  
HETATM    6  C   UNL     1      -9.499   6.686  68.104  1.00  0.00    -0.115 A  
HETATM    7  C   UNL     1     -10.132   6.173  66.960  1.00  0.00    -0.222 A  
HETATM    8  C   UNL     1      -9.422   6.017  65.762  1.00  0.00     0.071 A  
ENDROOT
BRANCH   6   9
HETATM    9  C   UNL     1     -10.241   6.774  69.401  1.00  0.00    -0.187 C  
HETATM   10  O   UNL     1     -10.039   6.030  70.348  1.00  0.00    -0.180 OA 
BRANCH   9  11
HETATM   11  O   UNL     1     -11.139   7.793  69.383  1.00  0.00    -0.108 OA 
BRANCH  11  12
HETATM   12  C   UNL     1     -10.563   9.093  69.605  1.00  0.00    -0.228 C  
BRANCH  12  13
HETATM   13  C   UNL     1     -10.797   9.981  68.407  1.00  0.00    -0.277 A  
HETATM   14  C   UNL     1     -10.397   9.578  67.127  1.00  0.00    -0.320 A  
HETATM   15  C   UNL     1     -10.474  10.461  66.048  1.00  0.00    -0.211 A  
HETATM   16  C   UNL     1     -10.954  11.766  66.230  1.00  0.00    -0.346 A  
HETATM   17  C   UNL     1     -11.455  12.127  67.491  1.00  0.00    -0.410 A  
HETATM   18  C   UNL     1     -10.881  12.766  65.079  1.00  0.00    -0.319 C  
HETATM   19  C   UNL     1     -11.359  11.250  68.572  1.00  0.00    -0.341 A  
HETATM   20  C   UNL     1     -10.641  14.208  65.571  1.00  0.00    -0.326 C  
HETATM   21  C   UNL     1     -12.151  12.685  64.202  1.00  0.00    -0.439 C  
HETATM   22  O   UNL     1     -11.462  15.097  65.344  1.00  0.00    -0.324 OA 
HETATM   23  N   UNL     1     -12.091  13.543  63.009  1.00  0.00    -0.883 NA 
HETATM   24  N   UNL     1      -9.466  14.379  66.295  1.00  0.00    -0.398 N  
HETATM   25  H1  UNL     1     -12.929  13.489  62.430  1.00  0.00     0.000 HD 
HETATM   26  H2  UNL     1     -11.257  13.340  62.459  1.00  0.00     0.000 HD 
HETATM   27  H   UNL     1      -8.888  13.553  66.452  1.00  0.00     0.000 HD 
BRANCH  24  28
HETATM   28  C   UNL     1      -9.005  15.605  66.831  1.00  0.00    -0.241 A  
HETATM   29  C   UNL     1      -7.799  16.190  66.439  1.00  0.00    -0.197 A  
HETATM   30  C   UNL     1      -7.393  17.420  66.958  1.00  0.00    -0.220 A  
HETATM   31  C   UNL     1      -8.183  18.087  67.899  1.00  0.00    -0.248 A  
HETATM   32  C   UNL     1      -7.820  19.324  68.436  1.00  0.00    -0.341 A  
HETATM   33  N   UNL     1      -8.540  19.998  69.360  1.00  0.00     0.292 NA 
HETATM   34  C   UNL     1      -9.682  19.413  69.772  1.00  0.00     0.287 A  
HETATM   35  C   UNL     1     -10.145  18.192  69.298  1.00  0.00    -0.081 A  
HETATM   36  C   UNL     1      -9.388  17.503  68.339  1.00  0.00    -0.287 A  
HETATM   37  C   UNL     1      -9.786  16.259  67.798  1.00  0.00    -0.237 A  
ENDBRANCH  24  28
ENDBRANCH  12  13
ENDBRANCH  11  12
ENDBRANCH   9  11
ENDBRANCH   6   9
TORSDOF 5
ENDMDL
MODEL      108
REMARK 921   NORMALIZED FREE ENERGY PREDICTED BY IDOCK:   -4.53 KCAL/MOL
REMARK 922        TOTAL FREE ENERGY PREDICTED BY IDOCK:   -8.08 KCAL/MOL
REMARK 923 INTER-LIGAND FREE ENERGY PREDICTED BY IDOCK:   -6.27 KCAL/MOL
REMARK 924 INTRA-LIGAND FREE ENERGY PREDICTED BY IDOCK:   -1.81 KCAL/MOL
REMARK 927      BINDING AFFINITY PREDICTED BY RF-SCORE:    0.00 PKD
ROOT
HETATM    1  C   UNL     1     -12.581  13.705  66.315  1.00  0.00    -0.346 C  
HETATM    2  C   UNL     1     -11.147  13.520  66.719  1.00  0.00    -0.311 A  
HETATM    3  C   UNL     1     -10.756  12.393  67.450  1.00  0.00    -0.257 A  
HETATM    4  C   UNL     1      -9.429  12.226  67.886  1.00  0.00    -0.200 A  
HETATM    5  C   UNL     1      -9.090  10.993  68.680  1.00  0.00    -0.174 C  
HETATM    6  C   UNL     1      -8.474  13.219  67.579  1.00  0.00    -0.202 A  
HETATM    7  C   UNL     1      -8.862  14.341  66.828  1.00  0.00    -0.207 A  
HETATM    8  C   UNL     1     -10.189  14.489  66.404  1.00  0.00    -0.293 A  
ENDROOT
BRANCH   6   9
HETATM    9  C   UNL     1      -7.074  13.107  68.098  1.00  0.00    -0.109 C  
HETATM   10  O   UNL     1      -6.788  13.136  69.285  1.00  0.00    -0.098 OA 
BRANCH   9  11
HETATM   11  O   UNL     1      -6.187  12.950  67.082  1.00  0.00    -0.281 OA 
BRANCH  11  12
HETATM   12  C   UNL     1      -5.336  11.796  67.214  1.00  0.00    -0.100 C  
BRANCH  12  13
HETATM   13  C   UNL     1      -6.066  10.554  66.766  1.00  0.00    -0.068 A  
HETATM   14  C   UNL     1      -6.928  10.587  65.662  1.00  0.00    -0.113 A  
HETATM   15  C   UNL     1      -7.718   9.481  65.343  1.00  0.00    -0.109 A  
HETATM   16  C   UNL     1      -7.662   8.318  66.125  1.00  0.00    -0.097 A  
HETATM   17  C   UNL     1      -6.718   8.252  67.162  1.00  0.00    -0.063 A  
HETATM   18  C   UNL     1      -8.646   7.181  65.862  1.00  0.00    -0.157 C  
HETATM   19  C   UNL     1      -5.943   9.365  67.492  1.00  0.00    -0.049 A  
HETATM   20  C   UNL     1      -9.037   6.435  67.153  1.00  0.00    -0.120 C  
HETATM   21  C   UNL     1      -8.082   6.203  64.806  1.00  0.00    -0.132 C  
HETATM   22  O   UNL     1      -8.794   5.235  67.287  1.00  0.00    -0.108 OA 
HETATM   23  N   UNL     1      -9.033   5.148  64.423  1.00  0.00    -0.339 NA 
HETATM   24  N   UNL     1      -9.635   7.235  68.120  1.00  0.00    -0.139 N  
HETATM   25  H1  UNL     1      -8.661   4.503  63.726  1.00  0.00     0.000 HD 
HETATM   26  H2  UNL     1      -9.915   5.552  64.109  1.00  0.00     0.000 HD 
HETATM   27  H   UNL     1      -9.742   8.227  67.906  1.00  0.00     0.000 HD 
BRANCH  24  28
HETATM   28  C   UNL     1     -10.107   6.787  69.377  1.00  0.00    -0.171 A  
HETATM   29  C   UNL     1     -11.447   6.888  69.756  1.00  0.00    -0.247 A  
HETATM   30  C   UNL     1     -11.887   6.401  70.987  1.00  0.00    -0.321 A  
HETATM   31  C   UNL     1     -10.985   5.812  71.878  1.00  0.00    -0.318 A  
HETATM   32  C   UNL     1     -11.384   5.301  73.115  1.00  0.00    -0.291 A  
HETATM   33  N   UNL     1     -10.549   4.740  74.017  1.00  0.00    -0.273 NA 
HETATM   34  C   UNL     1      -9.247   4.682  73.671  1.00  0.00    -0.114 A  
HETATM   35  C   UNL     1      -8.742   5.148  72.464  1.00  0.00    -0.120 A  
HETATM   36  C   UNL     1      -9.620   5.728  71.537  1.00  0.00    -0.181 A  
HETATM   37  C   UNL     1      -9.194   6.223  70.283  1.00  0.00    -0.163 A  
ENDBRANCH  24  28
ENDBRANCH  12  13
ENDBRANCH  11  12
ENDBRANCH   9  11
ENDBRANCH   6   9
TORSDOF 5
ENDMDL
MODEL      109
REMARK 921   NORMALIZED FREE ENERGY PREDICTED BY IDOCK:   -4.53 KCAL/MOL
REMARK 922        TOTAL FREE ENERGY PREDICTED BY IDOCK:   -8.08 KCAL/MOL
REMARK 923 INTER-LIGAND FREE ENERGY PREDICTED BY IDOCK:   -7.71 KCAL/MOL
REMARK 924 INTRA-LIGAND FREE ENERGY PREDICTED BY IDOCK:   -0.36 KCAL/MOL
REMARK 927      BINDING AFFINITY PREDICTED BY RF-SCORE:    0.00 PKD
ROOT
HETATM    1  C   UNL     1      -8.621   7.685  67.461  1.00  0.00    -0.119 C  
HETATM    2  C   UNL     1      -9.198   8.681  66.497  1.00  0.00    -0.236 A  
HETATM    3  C   UNL     1      -8.798   8.686  65.156  1.00  0.00    -0.147 A  
HETATM    4  C   UNL     1      -9.284   9.644  64.249  1.00  0.00    -0.235 A  
HETATM    5  C   UNL     1      -8.794   9.591  62.826  1.00  0.00    -0.244 C  
HETATM    6  C   UNL     1     -10.195  10.622  64.703  1.00  0.00    -0.404 A  
HETATM    7  C   UNL     1     -10.612  10.605  66.044  1.00  0.00    -0.195 A  
HETATM    8  C   UNL     1     -10.115   9.643  66.933  1.00  0.00    -0.290 A  
ENDROOT
BRANCH   6   9
HETATM    9  C   UNL     1     -10.666  11.702  63.780  1.00  0.00    -0.419 C  
HETATM   10  O   UNL     1      -9.943  12.584  63.345  1.00  0.00    -0.380 OA 
BRANCH   9  11
HETATM   11  O   UNL     1     -11.983  11.550  63.482  1.00  0.00    -0.356 OA 
BRANCH  11  12
HETATM   12  C   UNL     1     -12.740  12.774  63.509  1.00  0.00    -0.115 C  
BRANCH  12  13
HETATM   13  C   UNL     1     -12.153  13.730  64.519  1.00  0.00    -0.463 A  
HETATM   14  C   UNL     1     -11.634  14.967  64.118  1.00  0.00    -0.063 A  
HETATM   15  C   UNL     1     -10.955  15.781  65.027  1.00  0.00    -0.431 A  
HETATM   16  C   UNL     1     -10.781  15.371  66.357  1.00  0.00    -0.311 A  
HETATM   17  C   UNL     1     -11.398  14.182  66.778  1.00  0.00    -0.353 A  
HETATM   18  C   UNL     1      -9.900  16.194  67.293  1.00  0.00    -0.241 C  
HETATM   19  C   UNL     1     -12.059  13.361  65.864  1.00  0.00    -0.486 A  
HETATM   20  C   UNL     1      -9.158  15.316  68.321  1.00  0.00    -0.181 C  
HETATM   21  C   UNL     1     -10.728  17.292  67.998  1.00  0.00    -0.367 C  
HETATM   22  O   UNL     1      -9.344  15.464  69.529  1.00  0.00    -0.265 OA 
HETATM   23  N   UNL     1      -9.913  18.194  68.828  1.00  0.00    -0.380 NA 
HETATM   24  N   UNL     1      -8.321  14.358  67.759  1.00  0.00    -0.156 N  
HETATM   25  H1  UNL     1     -10.459  18.919  69.293  1.00  0.00     0.000 HD 
HETATM   26  H2  UNL     1      -9.157  18.604  68.280  1.00  0.00     0.000 HD 
HETATM   27  H   UNL     1      -8.286  14.306  66.741  1.00  0.00     0.000 HD 
BRANCH  24  28
HETATM   28  C   UNL     1      -7.513  13.450  68.484  1.00  0.00    -0.118 A  
HETATM   29  C   UNL     1      -6.227  13.772  68.923  1.00  0.00    -0.091 A  
HETATM   30  C   UNL     1      -5.472  12.868  69.669  1.00  0.00    -0.088 A  
HETATM   31  C   UNL     1      -5.985  11.605  69.981  1.00  0.00    -0.152 A  
HETATM   32  C   UNL     1      -5.268  10.674  70.736  1.00  0.00    -0.087 A  
HETATM   33  N   UNL     1      -5.714   9.437  71.047  1.00  0.00    -0.054 NA 
HETATM   34  C   UNL     1      -6.937   9.107  70.587  1.00  0.00    -0.090 A  
HETATM   35  C   UNL     1      -7.741   9.958  69.839  1.00  0.00    -0.177 A  
HETATM   36  C   UNL     1      -7.266  11.240  69.522  1.00  0.00    -0.020 A  
HETATM   37  C   UNL     1      -8.019  12.171  68.771  1.00  0.00     0.007 A  
ENDBRANCH  24  28
ENDBRANCH  12  13
ENDBRANCH  11  12
ENDBRANCH   9  11
ENDBRANCH   6   9
TORSDOF 5
ENDMDL
MODEL      110
REMARK 921   NORMALIZED FREE ENERGY PREDICTED BY IDOCK:   -4.52 KCAL/MOL
REMARK 922        TOTAL FREE ENERGY PREDICTED BY IDOCK:   -8.07 KCAL/MOL
REMARK 923 INTER-LIGAND FREE ENERGY PREDICTED BY IDOCK:   -6.87 KCAL/MOL
REMARK 924 INTRA-LIGAND FREE ENERGY PREDICTED BY IDOCK:   -1.20 KCAL/MOL
REMARK 927      BINDING AFFINITY PREDICTED BY RF-SCORE:    0.00 PKD
ROOT
HETATM    1  C   UNL     1      -8.897  11.270  63.055  1.00  0.00    -0.125 C  
HETATM    2  C   UNL     1      -8.717  10.111  63.992  1.00  0.00    -0.224 A  
HETATM    3  C   UNL     1      -9.762   9.707  64.830  1.00  0.00    -0.108 A  
HETATM    4  C   UNL     1      -9.598   8.660  65.754  1.00  0.00    -0.134 A  
HETATM    5  C   UNL     1     -10.766   8.293  66.630  1.00  0.00     0.099 C  
HETATM    6  C   UNL     1      -8.351   8.004  65.837  1.00  0.00    -0.136 A  
HETATM    7  C   UNL     1      -7.307   8.396  64.982  1.00  0.00    -0.086 A  
HETATM    8  C   UNL     1      -7.490   9.443  64.069  1.00  0.00    -0.113 A  
ENDROOT
BRANCH   6   9
HETATM    9  C   UNL     1      -8.123   6.941  66.866  1.00  0.00    -0.109 C  
HETATM   10  O   UNL     1      -8.452   5.774  66.718  1.00  0.00    -0.112 OA 
BRANCH   9  11
HETATM   11  O   UNL     1      -7.490   7.444  67.957  1.00  0.00    -0.100 OA 
BRANCH  11  12
HETATM   12  C   UNL     1      -8.003   6.961  69.213  1.00  0.00    -0.116 C  
BRANCH  12  13
HETATM   13  C   UNL     1      -9.100   7.869  69.713  1.00  0.00    -0.146 A  
HETATM   14  C   UNL     1     -10.417   7.407  69.826  1.00  0.00    -0.235 A  
HETATM   15  C   UNL     1     -11.455   8.288  70.140  1.00  0.00     0.010 A  
HETATM   16  C   UNL     1     -11.193   9.650  70.347  1.00  0.00    -0.342 A  
HETATM   17  C   UNL     1      -9.858  10.084  70.341  1.00  0.00    -0.071 A  
HETATM   18  C   UNL     1     -12.354  10.624  70.529  1.00  0.00    -0.448 C  
HETATM   19  C   UNL     1      -8.825   9.208  70.008  1.00  0.00    -0.193 A  
HETATM   20  C   UNL     1     -12.046  12.017  69.944  1.00  0.00    -0.263 C  
HETATM   21  C   UNL     1     -12.754  10.726  72.019  1.00  0.00    -0.143 C  
HETATM   22  O   UNL     1     -12.034  13.016  70.664  1.00  0.00    -0.302 OA 
HETATM   23  N   UNL     1     -13.942  11.562  72.247  1.00  0.00    -0.066 NA 
HETATM   24  N   UNL     1     -11.764  12.017  68.582  1.00  0.00    -0.309 N  
HETATM   25  H1  UNL     1     -14.207  11.629  73.230  1.00  0.00     0.000 HD 
HETATM   26  H2  UNL     1     -14.727  11.237  71.683  1.00  0.00     0.000 HD 
HETATM   27  H   UNL     1     -11.764  11.116  68.104  1.00  0.00     0.000 HD 
BRANCH  24  28
HETATM   28  C   UNL     1     -11.476  13.165  67.805  1.00  0.00    -0.313 A  
HETATM   29  C   UNL     1     -11.347  13.118  66.416  1.00  0.00    -0.349 A  
HETATM   30  C   UNL     1     -11.103  14.275  65.676  1.00  0.00    -0.316 A  
HETATM   31  C   UNL     1     -10.965  15.510  66.317  1.00  0.00    -0.242 A  
HETATM   32  C   UNL     1     -10.731  16.694  65.614  1.00  0.00    -0.214 A  
HETATM   33  N   UNL     1     -10.573  17.907  66.189  1.00  0.00    -0.307 NA 
HETATM   34  C   UNL     1     -10.653  17.946  67.535  1.00  0.00    -0.376 A  
HETATM   35  C   UNL     1     -10.894  16.834  68.332  1.00  0.00    -0.355 A  
HETATM   36  C   UNL     1     -11.056  15.581  67.721  1.00  0.00    -0.315 A  
HETATM   37  C   UNL     1     -11.309  14.399  68.455  1.00  0.00    -0.312 A  
ENDBRANCH  24  28
ENDBRANCH  12  13
ENDBRANCH  11  12
ENDBRANCH   9  11
ENDBRANCH   6   9
TORSDOF 5
ENDMDL
MODEL      111
REMARK 921   NORMALIZED FREE ENERGY PREDICTED BY IDOCK:   -4.52 KCAL/MOL
REMARK 922        TOTAL FREE ENERGY PREDICTED BY IDOCK:   -8.06 KCAL/MOL
REMARK 923 INTER-LIGAND FREE ENERGY PREDICTED BY IDOCK:   -7.35 KCAL/MOL
REMARK 924 INTRA-LIGAND FREE ENERGY PREDICTED BY IDOCK:   -0.72 KCAL/MOL
REMARK 927      BINDING AFFINITY PREDICTED BY RF-SCORE:    0.00 PKD
ROOT
HETATM    1  C   UNL     1      -7.801  21.154  67.511  1.00  0.00     0.049 C  
HETATM    2  C   UNL     1      -8.668  20.001  67.096  1.00  0.00    -0.414 A  
HETATM    3  C   UNL     1      -8.107  18.739  66.864  1.00  0.00    -0.267 A  
HETATM    4  C   UNL     1      -8.891  17.659  66.422  1.00  0.00    -0.263 A  
HETATM    5  C   UNL     1      -8.211  16.337  66.181  1.00  0.00    -0.204 C  
HETATM    6  C   UNL     1     -10.273  17.853  66.208  1.00  0.00    -0.363 A  
HETATM    7  C   UNL     1     -10.839  19.114  66.459  1.00  0.00    -0.347 A  
HETATM    8  C   UNL     1     -10.041  20.178  66.899  1.00  0.00    -0.592 A  
ENDROOT
BRANCH   6   9
HETATM    9  C   UNL     1     -11.116  16.744  65.661  1.00  0.00     0.147 C  
HETATM   10  O   UNL     1     -11.619  16.761  64.548  1.00  0.00    -0.721 OA 
BRANCH   9  11
HETATM   11  O   UNL     1     -11.220  15.724  66.552  1.00  0.00    -0.156 OA 
BRANCH  11  12
HETATM   12  C   UNL     1     -11.476  14.439  65.953  1.00  0.00    -0.341 C  
BRANCH  12  13
HETATM   13  C   UNL     1     -11.400  13.352  66.997  1.00  0.00    -0.346 A  
HETATM   14  C   UNL     1     -11.135  13.662  68.337  1.00  0.00    -0.289 A  
HETATM   15  C   UNL     1     -10.913  12.647  69.271  1.00  0.00    -0.123 A  
HETATM   16  C   UNL     1     -10.951  11.302  68.880  1.00  0.00    -0.274 A  
HETATM   17  C   UNL     1     -11.324  10.996  67.562  1.00  0.00    -0.332 A  
HETATM   18  C   UNL     1     -10.547  10.214  69.873  1.00  0.00    -0.331 C  
HETATM   19  C   UNL     1     -11.527  12.010  66.626  1.00  0.00    -0.411 A  
HETATM   20  C   UNL     1      -9.864   9.016  69.183  1.00  0.00    -0.175 C  
HETATM   21  C   UNL     1     -11.766   9.752  70.704  1.00  0.00    -0.300 C  
HETATM   22  O   UNL     1     -10.354   7.888  69.245  1.00  0.00    -0.213 OA 
HETATM   23  N   UNL     1     -11.421   8.787  71.759  1.00  0.00    -0.318 NA 
HETATM   24  N   UNL     1      -8.704   9.341  68.487  1.00  0.00    -0.128 N  
HETATM   25  H1  UNL     1     -12.225   8.483  72.307  1.00  0.00     0.000 HD 
HETATM   26  H2  UNL     1     -10.689   9.159  72.364  1.00  0.00     0.000 HD 
HETATM   27  H   UNL     1      -8.424  10.321  68.475  1.00  0.00     0.000 HD 
BRANCH  24  28
HETATM   28  C   UNL     1      -7.881   8.421  67.794  1.00  0.00    -0.107 A  
HETATM   29  C   UNL     1      -6.666   7.964  68.309  1.00  0.00    -0.063 A  
HETATM   30  C   UNL     1      -5.897   7.028  67.618  1.00  0.00    -0.021 A  
HETATM   31  C   UNL     1      -6.324   6.537  66.379  1.00  0.00    -0.042 A  
HETATM   32  C   UNL     1      -5.591   5.591  65.659  1.00  0.00    -0.013 A  
HETATM   33  N   UNL     1      -5.951   5.101  64.453  1.00  0.00    -0.021 NA 
HETATM   34  C   UNL     1      -7.102   5.575  63.934  1.00  0.00    -0.049 A  
HETATM   35  C   UNL     1      -7.914   6.507  64.567  1.00  0.00    -0.110 A  
HETATM   36  C   UNL     1      -7.528   7.007  65.819  1.00  0.00    -0.081 A  
HETATM   37  C   UNL     1      -8.297   7.953  66.536  1.00  0.00    -0.127 A  
ENDBRANCH  24  28
ENDBRANCH  12  13
ENDBRANCH  11  12
ENDBRANCH   9  11
ENDBRANCH   6   9
TORSDOF 5
ENDMDL
MODEL      112
REMARK 921   NORMALIZED FREE ENERGY PREDICTED BY IDOCK:   -4.51 KCAL/MOL
REMARK 922        TOTAL FREE ENERGY PREDICTED BY IDOCK:   -8.05 KCAL/MOL
REMARK 923 INTER-LIGAND FREE ENERGY PREDICTED BY IDOCK:   -7.10 KCAL/MOL
REMARK 924 INTRA-LIGAND FREE ENERGY PREDICTED BY IDOCK:   -0.95 KCAL/MOL
REMARK 927      BINDING AFFINITY PREDICTED BY RF-SCORE:    0.00 PKD
ROOT
HETATM    1  C   UNL     1     -10.965  20.423  65.197  1.00  0.00     0.546 C  
HETATM    2  C   UNL     1     -10.184  19.457  66.040  1.00  0.00    -0.540 A  
HETATM    3  C   UNL     1      -9.409  19.916  67.111  1.00  0.00    -0.479 A  
HETATM    4  C   UNL     1      -8.626  19.036  67.880  1.00  0.00    -0.333 A  
HETATM    5  C   UNL     1      -7.810  19.609  69.007  1.00  0.00    -0.266 C  
HETATM    6  C   UNL     1      -8.624  17.661  67.562  1.00  0.00    -0.222 A  
HETATM    7  C   UNL     1      -9.417  17.197  66.499  1.00  0.00    -0.290 A  
HETATM    8  C   UNL     1     -10.189  18.090  65.744  1.00  0.00    -0.115 A  
ENDROOT
BRANCH   6   9
HETATM    9  C   UNL     1      -7.739  16.714  68.311  1.00  0.00    -0.183 C  
HETATM   10  O   UNL     1      -6.550  16.569  68.077  1.00  0.00    -0.128 OA 
BRANCH   9  11
HETATM   11  O   UNL     1      -8.429  16.067  69.286  1.00  0.00    -0.251 OA 
BRANCH  11  12
HETATM   12  C   UNL     1      -8.111  14.668  69.407  1.00  0.00     0.031 C  
BRANCH  12  13
HETATM   13  C   UNL     1      -8.626  13.909  68.208  1.00  0.00    -0.177 A  
HETATM   14  C   UNL     1      -9.877  14.206  67.654  1.00  0.00    -0.229 A  
HETATM   15  C   UNL     1     -10.417  13.405  66.646  1.00  0.00    -0.280 A  
HETATM   16  C   UNL     1      -9.713  12.288  66.173  1.00  0.00    -0.256 A  
HETATM   17  C   UNL     1      -8.415  12.059  66.655  1.00  0.00    -0.117 A  
HETATM   18  C   UNL     1     -10.385  11.332  65.190  1.00  0.00    -0.353 C  
HETATM   19  C   UNL     1      -7.885  12.849  67.676  1.00  0.00    -0.168 A  
HETATM   20  C   UNL     1      -9.930   9.872  65.390  1.00  0.00    -0.279 C  
HETATM   21  C   UNL     1     -10.147  11.791  63.733  1.00  0.00    -0.391 C  
HETATM   22  O   UNL     1      -9.359   9.259  64.488  1.00  0.00    -0.121 OA 
HETATM   23  N   UNL     1     -10.866  10.975  62.741  1.00  0.00    -0.672 NA 
HETATM   24  N   UNL     1     -10.194   9.358  66.656  1.00  0.00    -0.258 N  
HETATM   25  H1  UNL     1     -10.709  11.278  61.780  1.00  0.00     0.000 HD 
HETATM   26  H2  UNL     1     -11.863  10.943  62.954  1.00  0.00     0.000 HD 
HETATM   27  H   UNL     1     -10.635   9.981  67.332  1.00  0.00     0.000 HD 
BRANCH  24  28
HETATM   28  C   UNL     1      -9.900   8.040  67.081  1.00  0.00    -0.210 A  
HETATM   29  C   UNL     1     -10.837   7.007  67.026  1.00  0.00    -0.413 A  
HETATM   30  C   UNL     1     -10.504   5.710  67.417  1.00  0.00    -0.306 A  
HETATM   31  C   UNL     1      -9.220   5.421  67.890  1.00  0.00    -0.117 A  
HETATM   32  C   UNL     1      -8.840   4.135  68.282  1.00  0.00    -0.105 A  
HETATM   33  N   UNL     1      -7.620   3.811  68.762  1.00  0.00    -0.054 NA 
HETATM   34  C   UNL     1      -6.728   4.817  68.858  1.00  0.00    -0.050 A  
HETATM   35  C   UNL     1      -6.993   6.129  68.488  1.00  0.00    -0.076 A  
HETATM   36  C   UNL     1      -8.265   6.452  67.990  1.00  0.00    -0.116 A  
HETATM   37  C   UNL     1      -8.619   7.760  67.585  1.00  0.00    -0.123 A  
ENDBRANCH  24  28
ENDBRANCH  12  13
ENDBRANCH  11  12
ENDBRANCH   9  11
ENDBRANCH   6   9
TORSDOF 5
ENDMDL
MODEL      113
REMARK 921   NORMALIZED FREE ENERGY PREDICTED BY IDOCK:   -4.50 KCAL/MOL
REMARK 922        TOTAL FREE ENERGY PREDICTED BY IDOCK:   -8.03 KCAL/MOL
REMARK 923 INTER-LIGAND FREE ENERGY PREDICTED BY IDOCK:   -7.61 KCAL/MOL
REMARK 924 INTRA-LIGAND FREE ENERGY PREDICTED BY IDOCK:   -0.43 KCAL/MOL
REMARK 927      BINDING AFFINITY PREDICTED BY RF-SCORE:    0.00 PKD
ROOT
HETATM    1  C   UNL     1      -5.500   3.117  68.632  1.00  0.00    -0.013 C  
HETATM    2  C   UNL     1      -6.114   3.939  69.728  1.00  0.00    -0.023 A  
HETATM    3  C   UNL     1      -6.173   5.333  69.622  1.00  0.00    -0.026 A  
HETATM    4  C   UNL     1      -6.694   6.126  70.660  1.00  0.00    -0.053 A  
HETATM    5  C   UNL     1      -6.709   7.620  70.475  1.00  0.00    -0.042 C  
HETATM    6  C   UNL     1      -7.167   5.501  71.833  1.00  0.00    -0.087 A  
HETATM    7  C   UNL     1      -7.127   4.100  71.932  1.00  0.00    -0.050 A  
HETATM    8  C   UNL     1      -6.603   3.327  70.887  1.00  0.00    -0.031 A  
ENDROOT
BRANCH   6   9
HETATM    9  C   UNL     1      -7.653   6.324  72.985  1.00  0.00    -0.096 C  
HETATM   10  O   UNL     1      -6.960   7.138  73.574  1.00  0.00    -0.069 OA 
BRANCH   9  11
HETATM   11  O   UNL     1      -8.956   6.058  73.262  1.00  0.00    -0.131 OA 
BRANCH  11  12
HETATM   12  C   UNL     1      -9.816   6.047  72.107  1.00  0.00    -0.161 C  
BRANCH  12  13
HETATM   13  C   UNL     1     -10.492   7.386  71.946  1.00  0.00    -0.229 A  
HETATM   14  C   UNL     1     -11.847   7.549  72.261  1.00  0.00    -0.331 A  
HETATM   15  C   UNL     1     -12.506   8.744  71.967  1.00  0.00    -0.452 A  
HETATM   16  C   UNL     1     -11.822   9.801  71.351  1.00  0.00    -0.488 A  
HETATM   17  C   UNL     1     -10.440   9.671  71.138  1.00  0.00    -0.281 A  
HETATM   18  C   UNL     1     -12.593  11.035  70.890  1.00  0.00    -0.488 C  
HETATM   19  C   UNL     1      -9.786   8.470  71.414  1.00  0.00    -0.296 A  
HETATM   20  C   UNL     1     -11.994  11.658  69.613  1.00  0.00    -0.324 C  
HETATM   21  C   UNL     1     -12.681  12.080  72.026  1.00  0.00     0.010 C  
HETATM   22  O   UNL     1     -11.562  12.811  69.615  1.00  0.00    -0.287 OA 
HETATM   23  N   UNL     1     -13.511  13.245  71.683  1.00  0.00    -0.322 NA 
HETATM   24  N   UNL     1     -11.964  10.801  68.518  1.00  0.00    -0.439 N  
HETATM   25  H1  UNL     1     -13.570  13.934  72.433  1.00  0.00     0.000 HD 
HETATM   26  H2  UNL     1     -14.442  12.951  71.388  1.00  0.00     0.000 HD 
HETATM   27  H   UNL     1     -12.313   9.853  68.655  1.00  0.00     0.000 HD 
BRANCH  24  28
HETATM   28  C   UNL     1     -11.489  11.138  67.228  1.00  0.00    -0.136 A  
HETATM   29  C   UNL     1     -11.854  12.319  66.577  1.00  0.00    -0.378 A  
HETATM   30  C   UNL     1     -11.337  12.640  65.322  1.00  0.00    -0.350 A  
HETATM   31  C   UNL     1     -10.449  11.772  64.679  1.00  0.00    -0.347 A  
HETATM   32  C   UNL     1      -9.899  12.059  63.428  1.00  0.00    -0.278 A  
HETATM   33  N   UNL     1      -9.053  11.245  62.759  1.00  0.00    -0.319 NA 
HETATM   34  C   UNL     1      -8.734  10.084  63.366  1.00  0.00    -0.222 A  
HETATM   35  C   UNL     1      -9.212   9.703  64.613  1.00  0.00    -0.293 A  
HETATM   36  C   UNL     1     -10.090  10.557  65.297  1.00  0.00    -0.369 A  
HETATM   37  C   UNL     1     -10.620  10.251  66.571  1.00  0.00    -0.202 A  
ENDBRANCH  24  28
ENDBRANCH  12  13
ENDBRANCH  11  12
ENDBRANCH   9  11
ENDBRANCH   6   9
TORSDOF 5
ENDMDL
MODEL      114
REMARK 921   NORMALIZED FREE ENERGY PREDICTED BY IDOCK:   -4.45 KCAL/MOL
REMARK 922        TOTAL FREE ENERGY PREDICTED BY IDOCK:   -7.97 KCAL/MOL
REMARK 923 INTER-LIGAND FREE ENERGY PREDICTED BY IDOCK:   -6.77 KCAL/MOL
REMARK 924 INTRA-LIGAND FREE ENERGY PREDICTED BY IDOCK:   -1.20 KCAL/MOL
REMARK 927      BINDING AFFINITY PREDICTED BY RF-SCORE:    0.00 PKD
ROOT
HETATM    1  C   UNL     1     -10.497  11.529  66.041  1.00  0.00    -0.298 C  
HETATM    2  C   UNL     1     -10.518  11.031  67.457  1.00  0.00    -0.244 A  
HETATM    3  C   UNL     1      -9.412  10.358  67.989  1.00  0.00    -0.152 A  
HETATM    4  C   UNL     1      -9.430   9.835  69.294  1.00  0.00    -0.201 A  
HETATM    5  C   UNL     1      -8.205   9.111  69.788  1.00  0.00    -0.128 C  
HETATM    6  C   UNL     1     -10.589   9.993  70.083  1.00  0.00    -0.350 A  
HETATM    7  C   UNL     1     -11.692  10.686  69.557  1.00  0.00    -0.356 A  
HETATM    8  C   UNL     1     -11.655  11.199  68.254  1.00  0.00    -0.359 A  
ENDROOT
BRANCH   6   9
HETATM    9  C   UNL     1     -10.666   9.378  71.445  1.00  0.00    -0.337 C  
HETATM   10  O   UNL     1      -9.694   9.198  72.163  1.00  0.00    -0.249 OA 
BRANCH   9  11
HETATM   11  O   UNL     1     -11.948   9.074  71.774  1.00  0.00    -0.321 OA 
BRANCH  11  12
HETATM   12  C   UNL     1     -12.125   7.747  72.303  1.00  0.00    -0.287 C  
BRANCH  12  13
HETATM   13  C   UNL     1     -11.403   6.740  71.441  1.00  0.00    -0.322 A  
HETATM   14  C   UNL     1     -10.427   5.897  71.988  1.00  0.00    -0.259 A  
HETATM   15  C   UNL     1      -9.653   5.077  71.164  1.00  0.00    -0.226 A  
HETATM   16  C   UNL     1      -9.841   5.086  69.774  1.00  0.00    -0.286 A  
HETATM   17  C   UNL     1     -10.893   5.850  69.245  1.00  0.00    -0.414 A  
HETATM   18  C   UNL     1      -8.882   4.308  68.876  1.00  0.00    -0.139 C  
HETATM   19  C   UNL     1     -11.652   6.684  70.067  1.00  0.00    -0.423 A  
HETATM   20  C   UNL     1      -8.664   5.000  67.516  1.00  0.00    -0.103 C  
HETATM   21  C   UNL     1      -9.370   2.854  68.686  1.00  0.00    -0.174 C  
HETATM   22  O   UNL     1      -8.968   4.436  66.465  1.00  0.00    -0.112 OA 
HETATM   23  N   UNL     1      -8.428   2.019  67.924  1.00  0.00    -0.066 NA 
HETATM   24  N   UNL     1      -8.140   6.285  67.604  1.00  0.00    -0.116 N  
HETATM   25  H1  UNL     1      -8.749   1.059  67.799  1.00  0.00     0.000 HD 
HETATM   26  H2  UNL     1      -7.501   2.038  68.350  1.00  0.00     0.000 HD 
HETATM   27  H   UNL     1      -7.969   6.659  68.538  1.00  0.00     0.000 HD 
BRANCH  24  28
HETATM   28  C   UNL     1      -7.824   7.118  66.503  1.00  0.00    -0.106 A  
HETATM   29  C   UNL     1      -8.524   7.066  65.297  1.00  0.00    -0.060 A  
HETATM   30  C   UNL     1      -8.213   7.928  64.245  1.00  0.00    -0.042 A  
HETATM   31  C   UNL     1      -7.175   8.856  64.374  1.00  0.00    -0.094 A  
HETATM   32  C   UNL     1      -6.837   9.745  63.351  1.00  0.00    -0.119 A  
HETATM   33  N   UNL     1      -5.833  10.646  63.421  1.00  0.00    -0.101 NA 
HETATM   34  C   UNL     1      -5.127  10.667  64.570  1.00  0.00    -0.154 A  
HETATM   35  C   UNL     1      -5.383   9.838  65.654  1.00  0.00    -0.045 A  
HETATM   36  C   UNL     1      -6.429   8.907  65.568  1.00  0.00    -0.067 A  
HETATM   37  C   UNL     1      -6.762   8.029  66.625  1.00  0.00    -0.063 A  
ENDBRANCH  24  28
ENDBRANCH  12  13
ENDBRANCH  11  12
ENDBRANCH   9  11
ENDBRANCH   6   9
TORSDOF 5
ENDMDL
MODEL      115
REMARK 921   NORMALIZED FREE ENERGY PREDICTED BY IDOCK:   -4.45 KCAL/MOL
REMARK 922        TOTAL FREE ENERGY PREDICTED BY IDOCK:   -7.97 KCAL/MOL
REMARK 923 INTER-LIGAND FREE ENERGY PREDICTED BY IDOCK:   -5.46 KCAL/MOL
REMARK 924 INTRA-LIGAND FREE ENERGY PREDICTED BY IDOCK:   -2.51 KCAL/MOL
REMARK 927      BINDING AFFINITY PREDICTED BY RF-SCORE:    0.00 PKD
ROOT
HETATM    1  C   UNL     1     -10.287   5.673  66.780  1.00  0.00    -0.316 C  
HETATM    2  C   UNL     1      -9.564   5.077  67.952  1.00  0.00    -0.176 A  
HETATM    3  C   UNL     1      -8.185   5.260  68.104  1.00  0.00    -0.098 A  
HETATM    4  C   UNL     1      -7.478   4.665  69.164  1.00  0.00    -0.056 A  
HETATM    5  C   UNL     1      -5.993   4.898  69.250  1.00  0.00    -0.018 C  
HETATM    6  C   UNL     1      -8.177   3.867  70.095  1.00  0.00    -0.071 A  
HETATM    7  C   UNL     1      -9.564   3.700  69.955  1.00  0.00    -0.244 A  
HETATM    8  C   UNL     1     -10.250   4.300  68.891  1.00  0.00     0.283 A  
ENDROOT
BRANCH   6   9
HETATM    9  C   UNL     1      -7.438   3.158  71.187  1.00  0.00    -0.033 C  
HETATM   10  O   UNL     1      -7.120   1.980  71.134  1.00  0.00    -0.031 OA 
BRANCH   9  11
HETATM   11  O   UNL     1      -7.157   3.999  72.215  1.00  0.00    -0.048 OA 
BRANCH  11  12
HETATM   12  C   UNL     1      -8.190   4.078  73.215  1.00  0.00    -0.089 C  
BRANCH  12  13
HETATM   13  C   UNL     1      -9.122   5.226  72.914  1.00  0.00    -0.125 A  
HETATM   14  C   UNL     1     -10.512   5.051  72.952  1.00  0.00    -0.256 A  
HETATM   15  C   UNL     1     -11.368   6.068  72.525  1.00  0.00    -0.344 A  
HETATM   16  C   UNL     1     -10.850   7.281  72.050  1.00  0.00    -0.264 A  
HETATM   17  C   UNL     1      -9.463   7.490  72.117  1.00  0.00    -0.185 A  
HETATM   18  C   UNL     1     -11.789   8.317  71.438  1.00  0.00    -0.330 C  
HETATM   19  C   UNL     1      -8.607   6.466  72.525  1.00  0.00    -0.123 A  
HETATM   20  C   UNL     1     -11.119   9.115  70.302  1.00  0.00    -0.239 C  
HETATM   21  C   UNL     1     -12.344   9.264  72.527  1.00  0.00    -0.070 C  
HETATM   22  O   UNL     1     -10.985  10.337  70.382  1.00  0.00    -0.296 OA 
HETATM   23  N   UNL     1     -13.346  10.213  72.018  1.00  0.00    -0.478 NA 
HETATM   24  N   UNL     1     -10.672   8.337  69.239  1.00  0.00    -0.370 N  
HETATM   25  H1  UNL     1     -13.713  10.837  72.737  1.00  0.00     0.000 HD 
HETATM   26  H2  UNL     1     -14.103   9.720  71.545  1.00  0.00     0.000 HD 
HETATM   27  H   UNL     1     -10.804   7.328  69.311  1.00  0.00     0.000 HD 
BRANCH  24  28
HETATM   28  C   UNL     1     -10.050   8.829  68.067  1.00  0.00    -0.196 A  
HETATM   29  C   UNL     1     -10.771   9.407  67.020  1.00  0.00    -0.207 A  
HETATM   30  C   UNL     1     -10.124   9.919  65.896  1.00  0.00    -0.316 A  
HETATM   31  C   UNL     1      -8.731   9.848  65.787  1.00  0.00    -0.157 A  
HETATM   32  C   UNL     1      -8.042  10.358  64.685  1.00  0.00    -0.122 A  
HETATM   33  N   UNL     1      -6.701  10.297  64.526  1.00  0.00    -0.111 NA 
HETATM   34  C   UNL     1      -6.008   9.699  65.516  1.00  0.00    -0.066 A  
HETATM   35  C   UNL     1      -6.588   9.169  66.661  1.00  0.00    -0.068 A  
HETATM   36  C   UNL     1      -7.981   9.239  66.813  1.00  0.00    -0.108 A  
HETATM   37  C   UNL     1      -8.654   8.730  67.947  1.00  0.00    -0.130 A  
ENDBRANCH  24  28
ENDBRANCH  12  13
ENDBRANCH  11  12
ENDBRANCH   9  11
ENDBRANCH   6   9
TORSDOF 5
ENDMDL
MODEL      116
REMARK 921   NORMALIZED FREE ENERGY PREDICTED BY IDOCK:   -4.38 KCAL/MOL
REMARK 922        TOTAL FREE ENERGY PREDICTED BY IDOCK:   -7.88 KCAL/MOL
REMARK 923 INTER-LIGAND FREE ENERGY PREDICTED BY IDOCK:   -6.40 KCAL/MOL
REMARK 924 INTRA-LIGAND FREE ENERGY PREDICTED BY IDOCK:   -1.48 KCAL/MOL
REMARK 927      BINDING AFFINITY PREDICTED BY RF-SCORE:    0.00 PKD
ROOT
HETATM    1  C   UNL     1     -11.534   6.355  69.521  1.00  0.00    -0.412 C  
HETATM    2  C   UNL     1     -10.507   5.625  68.706  1.00  0.00    -0.289 A  
HETATM    3  C   UNL     1     -10.770   5.283  67.374  1.00  0.00    -0.088 A  
HETATM    4  C   UNL     1      -9.845   4.552  66.608  1.00  0.00    -0.244 A  
HETATM    5  C   UNL     1     -10.208   4.212  65.187  1.00  0.00    -0.218 C  
HETATM    6  C   UNL     1      -8.625   4.155  67.197  1.00  0.00    -0.105 A  
HETATM    7  C   UNL     1      -8.352   4.515  68.527  1.00  0.00    -0.089 A  
HETATM    8  C   UNL     1      -9.287   5.243  69.274  1.00  0.00    -0.167 A  
ENDROOT
BRANCH   6   9
HETATM    9  C   UNL     1      -7.657   3.309  66.431  1.00  0.00    -0.077 C  
HETATM   10  O   UNL     1      -7.887   2.160  66.086  1.00  0.00    -0.074 OA 
BRANCH   9  11
HETATM   11  O   UNL     1      -6.516   3.993  66.160  1.00  0.00    -0.035 OA 
BRANCH  11  12
HETATM   12  C   UNL     1      -6.598   4.846  65.003  1.00  0.00    -0.040 C  
BRANCH  12  13
HETATM   13  C   UNL     1      -6.416   6.290  65.403  1.00  0.00    -0.039 A  
HETATM   14  C   UNL     1      -5.237   6.718  66.027  1.00  0.00    -0.018 A  
HETATM   15  C   UNL     1      -5.131   8.015  66.534  1.00  0.00    -0.024 A  
HETATM   16  C   UNL     1      -6.206   8.909  66.428  1.00  0.00    -0.064 A  
HETATM   17  C   UNL     1      -7.342   8.510  65.707  1.00  0.00    -0.080 A  
HETATM   18  C   UNL     1      -6.134  10.264  67.128  1.00  0.00    -0.055 C  
HETATM   19  C   UNL     1      -7.454   7.208  65.217  1.00  0.00    -0.092 A  
HETATM   20  C   UNL     1      -7.514  10.740  67.624  1.00  0.00    -0.095 C  
HETATM   21  C   UNL     1      -5.482  11.321  66.207  1.00  0.00    -0.137 C  
HETATM   22  O   UNL     1      -8.009  11.786  67.206  1.00  0.00    -0.145 OA 
HETATM   23  N   UNL     1      -5.279  12.621  66.866  1.00  0.00    -0.338 NA 
HETATM   24  N   UNL     1      -8.126   9.879  68.530  1.00  0.00    -0.099 N  
HETATM   25  H1  UNL     1      -4.848  13.318  66.259  1.00  0.00     0.000 HD 
HETATM   26  H2  UNL     1      -4.744  12.510  67.727  1.00  0.00     0.000 HD 
HETATM   27  H   UNL     1      -7.631   9.019  68.766  1.00  0.00     0.000 HD 
BRANCH  24  28
HETATM   28  C   UNL     1      -9.378  10.099  69.151  1.00  0.00    -0.197 A  
HETATM   29  C   UNL     1     -10.283  11.061  68.697  1.00  0.00    -0.211 A  
HETATM   30  C   UNL     1     -11.526  11.227  69.308  1.00  0.00    -0.369 A  
HETATM   31  C   UNL     1     -11.886  10.437  70.404  1.00  0.00    -0.418 A  
HETATM   32  C   UNL     1     -13.125  10.561  71.038  1.00  0.00    -0.330 A  
HETATM   33  N   UNL     1     -13.512   9.835  72.110  1.00  0.00    -0.436 NA 
HETATM   34  C   UNL     1     -12.621   8.937  72.577  1.00  0.00    -0.293 A  
HETATM   35  C   UNL     1     -11.368   8.722  72.018  1.00  0.00    -0.441 A  
HETATM   36  C   UNL     1     -10.979   9.482  70.905  1.00  0.00    -0.407 A  
HETATM   37  C   UNL     1      -9.726   9.326  70.270  1.00  0.00    -0.274 A  
ENDBRANCH  24  28
ENDBRANCH  12  13
ENDBRANCH  11  12
ENDBRANCH   9  11
ENDBRANCH   6   9
TORSDOF 5
ENDMDL
MODEL      117
REMARK 921   NORMALIZED FREE ENERGY PREDICTED BY IDOCK:   -4.34 KCAL/MOL
REMARK 922        TOTAL FREE ENERGY PREDICTED BY IDOCK:   -7.84 KCAL/MOL
REMARK 923 INTER-LIGAND FREE ENERGY PREDICTED BY IDOCK:   -7.42 KCAL/MOL
REMARK 924 INTRA-LIGAND FREE ENERGY PREDICTED BY IDOCK:   -0.42 KCAL/MOL
REMARK 927      BINDING AFFINITY PREDICTED BY RF-SCORE:    0.00 PKD
ROOT
HETATM    1  C   UNL     1     -14.161  15.756  71.851  1.00  0.00    -0.284 C  
HETATM    2  C   UNL     1     -13.550  14.412  71.579  1.00  0.00    -0.445 A  
HETATM    3  C   UNL     1     -12.699  14.228  70.483  1.00  0.00    -0.391 A  
HETATM    4  C   UNL     1     -12.160  12.966  70.177  1.00  0.00    -0.373 A  
HETATM    5  C   UNL     1     -11.264  12.848  68.973  1.00  0.00    -0.320 C  
HETATM    6  C   UNL     1     -12.486  11.862  70.993  1.00  0.00    -0.390 A  
HETATM    7  C   UNL     1     -13.324  12.050  72.105  1.00  0.00    -0.396 A  
HETATM    8  C   UNL     1     -13.852  13.316  72.393  1.00  0.00    -0.630 A  
ENDROOT
BRANCH   6   9
HETATM    9  C   UNL     1     -11.992  10.493  70.645  1.00  0.00    -0.357 C  
HETATM   10  O   UNL     1     -10.812  10.217  70.497  1.00  0.00    -0.298 OA 
BRANCH   9  11
HETATM   11  O   UNL     1     -13.021   9.613  70.543  1.00  0.00    -0.052 OA 
BRANCH  11  12
HETATM   12  C   UNL     1     -13.232   8.809  71.719  1.00  0.00    -0.367 C  
BRANCH  12  13
HETATM   13  C   UNL     1     -12.220   7.692  71.777  1.00  0.00    -0.341 A  
HETATM   14  C   UNL     1     -11.403   7.521  72.902  1.00  0.00    -0.355 A  
HETATM   15  C   UNL     1     -10.365   6.587  72.892  1.00  0.00    -0.232 A  
HETATM   16  C   UNL     1     -10.124   5.805  71.754  1.00  0.00    -0.233 A  
HETATM   17  C   UNL     1     -11.013   5.903  70.672  1.00  0.00    -0.357 A  
HETATM   18  C   UNL     1      -8.890   4.907  71.701  1.00  0.00    -0.146 C  
HETATM   19  C   UNL     1     -12.037   6.850  70.675  1.00  0.00    -0.363 A  
HETATM   20  C   UNL     1      -8.315   4.786  70.276  1.00  0.00    -0.079 C  
HETATM   21  C   UNL     1      -9.203   3.513  72.292  1.00  0.00    -0.109 C  
HETATM   22  O   UNL     1      -8.251   3.694  69.711  1.00  0.00    -0.053 OA 
HETATM   23  N   UNL     1      -8.023   2.638  72.375  1.00  0.00    -0.054 NA 
HETATM   24  N   UNL     1      -7.926   5.996  69.710  1.00  0.00    -0.104 N  
HETATM   25  H1  UNL     1      -8.229   1.718  72.765  1.00  0.00     0.000 HD 
HETATM   26  H2  UNL     1      -7.272   3.092  72.895  1.00  0.00     0.000 HD 
HETATM   27  H   UNL     1      -8.070   6.840  70.265  1.00  0.00     0.000 HD 
BRANCH  24  28
HETATM   28  C   UNL     1      -7.346   6.152  68.428  1.00  0.00    -0.086 A  
HETATM   29  C   UNL     1      -6.104   5.609  68.095  1.00  0.00    -0.018 A  
HETATM   30  C   UNL     1      -5.578   5.748  66.810  1.00  0.00    -0.016 A  
HETATM   31  C   UNL     1      -6.283   6.452  65.829  1.00  0.00    -0.038 A  
HETATM   32  C   UNL     1      -5.799   6.605  64.528  1.00  0.00    -0.031 A  
HETATM   33  N   UNL     1      -6.434   7.290  63.551  1.00  0.00    -0.051 NA 
HETATM   34  C   UNL     1      -7.613   7.852  63.885  1.00  0.00    -0.121 A  
HETATM   35  C   UNL     1      -8.193   7.754  65.143  1.00  0.00    -0.135 A  
HETATM   36  C   UNL     1      -7.523   7.039  66.147  1.00  0.00    -0.080 A  
HETATM   37  C   UNL     1      -8.043   6.885  67.453  1.00  0.00    -0.115 A  
ENDBRANCH  24  28
ENDBRANCH  12  13
ENDBRANCH  11  12
ENDBRANCH   9  11
ENDBRANCH   6   9
TORSDOF 5
ENDMDL
MODEL      118
REMARK 921   NORMALIZED FREE ENERGY PREDICTED BY IDOCK:   -4.32 KCAL/MOL
REMARK 922        TOTAL FREE ENERGY PREDICTED BY IDOCK:   -7.81 KCAL/MOL
REMARK 923 INTER-LIGAND FREE ENERGY PREDICTED BY IDOCK:   -6.25 KCAL/MOL
REMARK 924 INTRA-LIGAND FREE ENERGY PREDICTED BY IDOCK:   -1.55 KCAL/MOL
REMARK 927      BINDING AFFINITY PREDICTED BY RF-SCORE:    0.00 PKD
ROOT
HETATM    1  C   UNL     1      -8.004   3.763  63.129  1.00  0.00    -0.079 C  
HETATM    2  C   UNL     1      -7.665   4.060  64.561  1.00  0.00    -0.081 A  
HETATM    3  C   UNL     1      -8.535   4.818  65.353  1.00  0.00    -0.129 A  
HETATM    4  C   UNL     1      -8.213   5.154  66.681  1.00  0.00    -0.108 A  
HETATM    5  C   UNL     1      -9.195   5.985  67.463  1.00  0.00    -0.111 C  
HETATM    6  C   UNL     1      -6.986   4.716  67.223  1.00  0.00    -0.060 A  
HETATM    7  C   UNL     1      -6.122   3.938  66.435  1.00  0.00    -0.031 A  
HETATM    8  C   UNL     1      -6.460   3.615  65.114  1.00  0.00    -0.035 A  
ENDROOT
BRANCH   6   9
HETATM    9  C   UNL     1      -6.582   5.126  68.605  1.00  0.00    -0.048 C  
HETATM   10  O   UNL     1      -5.964   6.149  68.854  1.00  0.00    -0.022 OA 
BRANCH   9  11
HETATM   11  O   UNL     1      -7.011   4.227  69.527  1.00  0.00    -0.044 OA 
BRANCH  11  12
HETATM   12  C   UNL     1      -7.019   4.723  70.879  1.00  0.00    -0.037 C  
BRANCH  12  13
HETATM   13  C   UNL     1      -8.293   5.486  71.148  1.00  0.00    -0.125 A  
HETATM   14  C   UNL     1      -9.543   4.875  70.985  1.00  0.00    -0.238 A  
HETATM   15  C   UNL     1     -10.718   5.624  71.085  1.00  0.00    -0.310 A  
HETATM   16  C   UNL     1     -10.664   6.999  71.349  1.00  0.00    -0.241 A  
HETATM   17  C   UNL     1      -9.416   7.582  71.620  1.00  0.00    -0.170 A  
HETATM   18  C   UNL     1     -11.943   7.830  71.295  1.00  0.00    -0.324 C  
HETATM   19  C   UNL     1      -8.241   6.838  71.500  1.00  0.00    -0.111 A  
HETATM   20  C   UNL     1     -11.688   9.266  70.793  1.00  0.00    -0.269 C  
HETATM   21  C   UNL     1     -12.647   7.843  72.671  1.00  0.00     0.064 C  
HETATM   22  O   UNL     1     -11.938  10.238  71.505  1.00  0.00    -0.358 OA 
HETATM   23  N   UNL     1     -13.946   8.532  72.655  1.00  0.00    -0.665 NA 
HETATM   24  N   UNL     1     -11.136   9.338  69.518  1.00  0.00    -0.413 N  
HETATM   25  H1  UNL     1     -14.411   8.539  73.564  1.00  0.00     0.000 HD 
HETATM   26  H2  UNL     1     -14.556   8.137  71.940  1.00  0.00     0.000 HD 
HETATM   27  H   UNL     1     -10.934   8.457  69.045  1.00  0.00     0.000 HD 
BRANCH  24  28
HETATM   28  C   UNL     1     -10.833  10.533  68.823  1.00  0.00    -0.231 A  
HETATM   29  C   UNL     1      -9.682  11.280  69.081  1.00  0.00     0.008 A  
HETATM   30  C   UNL     1      -9.393  12.433  68.351  1.00  0.00    -0.158 A  
HETATM   31  C   UNL     1     -10.265  12.875  67.350  1.00  0.00    -0.230 A  
HETATM   32  C   UNL     1     -10.008  14.017  66.588  1.00  0.00    -0.278 A  
HETATM   33  N   UNL     1     -10.827  14.493  65.624  1.00  0.00    -0.311 NA 
HETATM   34  C   UNL     1     -11.961  13.797  65.405  1.00  0.00    -0.379 A  
HETATM   35  C   UNL     1     -12.310  12.643  66.095  1.00  0.00    -0.101 A  
HETATM   36  C   UNL     1     -11.451  12.159  67.092  1.00  0.00    -0.413 A  
HETATM   37  C   UNL     1     -11.725  10.991  67.839  1.00  0.00    -0.216 A  
ENDBRANCH  24  28
ENDBRANCH  12  13
ENDBRANCH  11  12
ENDBRANCH   9  11
ENDBRANCH   6   9
TORSDOF 5
ENDMDL
MODEL      119
REMARK 921   NORMALIZED FREE ENERGY PREDICTED BY IDOCK:   -4.31 KCAL/MOL
REMARK 922        TOTAL FREE ENERGY PREDICTED BY IDOCK:   -7.80 KCAL/MOL
REMARK 923 INTER-LIGAND FREE ENERGY PREDICTED BY IDOCK:   -7.09 KCAL/MOL
REMARK 924 INTRA-LIGAND FREE ENERGY PREDICTED BY IDOCK:   -0.71 KCAL/MOL
REMARK 927      BINDING AFFINITY PREDICTED BY RF-SCORE:    0.00 PKD
ROOT
HETATM    1  C   UNL     1     -12.356   8.585  72.068  1.00  0.00    -0.423 C  
HETATM    2  C   UNL     1     -11.463   7.507  71.525  1.00  0.00    -0.293 A  
HETATM    3  C   UNL     1     -11.540   7.134  70.178  1.00  0.00    -0.211 A  
HETATM    4  C   UNL     1     -10.752   6.090  69.660  1.00  0.00    -0.405 A  
HETATM    5  C   UNL     1     -10.903   5.739  68.204  1.00  0.00    -0.249 C  
HETATM    6  C   UNL     1      -9.867   5.404  70.519  1.00  0.00    -0.267 A  
HETATM    7  C   UNL     1      -9.775   5.792  71.867  1.00  0.00    -0.184 A  
HETATM    8  C   UNL     1     -10.569   6.834  72.364  1.00  0.00    -0.242 A  
ENDROOT
BRANCH   6   9
HETATM    9  C   UNL     1      -9.076   4.238  70.015  1.00  0.00    -0.110 C  
HETATM   10  O   UNL     1      -9.504   3.094  69.981  1.00  0.00    -0.170 OA 
BRANCH   9  11
HETATM   11  O   UNL     1      -7.847   4.627  69.588  1.00  0.00    -0.064 OA 
BRANCH  11  12
HETATM   12  C   UNL     1      -7.406   3.976  68.382  1.00  0.00    -0.059 C  
BRANCH  12  13
HETATM   13  C   UNL     1      -7.047   5.002  67.335  1.00  0.00    -0.066 A  
HETATM   14  C   UNL     1      -5.760   5.552  67.282  1.00  0.00    -0.017 A  
HETATM   15  C   UNL     1      -5.474   6.609  66.415  1.00  0.00    -0.017 A  
HETATM   16  C   UNL     1      -6.472   7.138  65.585  1.00  0.00    -0.047 A  
HETATM   17  C   UNL     1      -7.729   6.512  65.565  1.00  0.00    -0.097 A  
HETATM   18  C   UNL     1      -6.188   8.394  64.765  1.00  0.00    -0.064 C  
HETATM   19  C   UNL     1      -8.019   5.468  66.445  1.00  0.00    -0.105 A  
HETATM   20  C   UNL     1      -7.438   9.280  64.599  1.00  0.00    -0.102 C  
HETATM   21  C   UNL     1      -5.584   8.024  63.391  1.00  0.00    -0.054 C  
HETATM   22  O   UNL     1      -7.896   9.522  63.482  1.00  0.00    -0.122 OA 
HETATM   23  N   UNL     1      -5.180   9.196  62.598  1.00  0.00    -0.072 NA 
HETATM   24  N   UNL     1      -7.988   9.727  65.796  1.00  0.00    -0.113 N  
HETATM   25  H1  UNL     1      -4.782   8.952  61.691  1.00  0.00     0.000 HD 
HETATM   26  H2  UNL     1      -4.541   9.788  63.128  1.00  0.00     0.000 HD 
HETATM   27  H   UNL     1      -7.539   9.421  66.660  1.00  0.00     0.000 HD 
BRANCH  24  28
HETATM   28  C   UNL     1      -9.117  10.572  65.914  1.00  0.00    -0.168 A  
HETATM   29  C   UNL     1      -9.803  10.747  67.117  1.00  0.00    -0.216 A  
HETATM   30  C   UNL     1     -10.888  11.618  67.209  1.00  0.00    -0.302 A  
HETATM   31  C   UNL     1     -11.324  12.326  66.084  1.00  0.00    -0.402 A  
HETATM   32  C   UNL     1     -12.399  13.216  66.134  1.00  0.00    -0.315 A  
HETATM   33  N   UNL     1     -12.869  13.909  65.072  1.00  0.00    -0.733 NA 
HETATM   34  C   UNL     1     -12.235  13.707  63.899  1.00  0.00    -0.374 A  
HETATM   35  C   UNL     1     -11.150  12.856  63.738  1.00  0.00    -0.424 A  
HETATM   36  C   UNL     1     -10.673  12.143  64.848  1.00  0.00    -0.336 A  
HETATM   37  C   UNL     1      -9.571  11.260  64.776  1.00  0.00    -0.269 A  
ENDBRANCH  24  28
ENDBRANCH  12  13
ENDBRANCH  11  12
ENDBRANCH   9  11
ENDBRANCH   6   9
TORSDOF 5
ENDMDL
MODEL      120
REMARK 921   NORMALIZED FREE ENERGY PREDICTED BY IDOCK:   -4.28 KCAL/MOL
REMARK 922        TOTAL FREE ENERGY PREDICTED BY IDOCK:   -7.76 KCAL/MOL
REMARK 923 INTER-LIGAND FREE ENERGY PREDICTED BY IDOCK:   -6.82 KCAL/MOL
REMARK 924 INTRA-LIGAND FREE ENERGY PREDICTED BY IDOCK:   -0.94 KCAL/MOL
REMARK 927      BINDING AFFINITY PREDICTED BY RF-SCORE:    0.00 PKD
ROOT
HETATM    1  C   UNL     1      -6.730  19.886  69.952  1.00  0.00    -0.275 C  
HETATM    2  C   UNL     1      -7.455  18.865  69.124  1.00  0.00    -0.243 A  
HETATM    3  C   UNL     1      -7.328  17.501  69.408  1.00  0.00     0.067 A  
HETATM    4  C   UNL     1      -7.953  16.525  68.612  1.00  0.00    -0.232 A  
HETATM    5  C   UNL     1      -7.756  15.077  68.974  1.00  0.00    -0.170 C  
HETATM    6  C   UNL     1      -8.726  16.932  67.503  1.00  0.00    -0.214 A  
HETATM    7  C   UNL     1      -8.870  18.302  67.230  1.00  0.00    -0.255 A  
HETATM    8  C   UNL     1      -8.238  19.260  68.034  1.00  0.00    -0.346 A  
ENDROOT
BRANCH   6   9
HETATM    9  C   UNL     1      -9.336  15.913  66.592  1.00  0.00    -0.249 C  
HETATM   10  O   UNL     1      -8.713  14.987  66.098  1.00  0.00    -0.152 OA 
BRANCH   9  11
HETATM   11  O   UNL     1     -10.662  16.147  66.416  1.00  0.00    -0.294 OA 
BRANCH  11  12
HETATM   12  C   UNL     1     -11.408  16.282  67.640  1.00  0.00    -0.016 C  
BRANCH  12  13
HETATM   13  C   UNL     1     -11.578  14.935  68.299  1.00  0.00    -0.356 A  
HETATM   14  C   UNL     1     -11.669  14.824  69.692  1.00  0.00    -0.354 A  
HETATM   15  C   UNL     1     -11.671  13.570  70.307  1.00  0.00    -0.244 A  
HETATM   16  C   UNL     1     -11.581  12.402  69.538  1.00  0.00    -0.353 A  
HETATM   17  C   UNL     1     -11.601  12.516  68.139  1.00  0.00    -0.390 A  
HETATM   18  C   UNL     1     -11.421  11.051  70.231  1.00  0.00    -0.363 C  
HETATM   19  C   UNL     1     -11.579  13.769  67.526  1.00  0.00    -0.387 A  
HETATM   20  C   UNL     1     -10.561  10.070  69.409  1.00  0.00    -0.233 C  
HETATM   21  C   UNL     1     -12.802  10.437  70.557  1.00  0.00    -0.254 C  
HETATM   22  O   UNL     1     -11.028   9.003  69.010  1.00  0.00    -0.120 OA 
HETATM   23  N   UNL     1     -12.717   9.187  71.329  1.00  0.00    -0.420 NA 
HETATM   24  N   UNL     1      -9.269  10.517  69.152  1.00  0.00    -0.241 N  
HETATM   25  H1  UNL     1     -13.628   8.782  71.544  1.00  0.00     0.000 HD 
HETATM   26  H2  UNL     1     -12.171   9.325  72.179  1.00  0.00     0.000 HD 
HETATM   27  H   UNL     1      -9.015  11.440  69.502  1.00  0.00     0.000 HD 
BRANCH  24  28
HETATM   28  C   UNL     1      -8.278   9.794  68.445  1.00  0.00    -0.105 A  
HETATM   29  C   UNL     1      -7.376   8.938  69.079  1.00  0.00    -0.073 A  
HETATM   30  C   UNL     1      -6.437   8.211  68.348  1.00  0.00    -0.058 A  
HETATM   31  C   UNL     1      -6.370   8.338  66.958  1.00  0.00    -0.056 A  
HETATM   32  C   UNL     1      -5.453   7.620  66.186  1.00  0.00    -0.028 A  
HETATM   33  N   UNL     1      -5.338   7.722  64.843  1.00  0.00    -0.029 NA 
HETATM   34  C   UNL     1      -6.179   8.582  64.234  1.00  0.00    -0.067 A  
HETATM   35  C   UNL     1      -7.136   9.337  64.900  1.00  0.00    -0.101 A  
HETATM   36  C   UNL     1      -7.245   9.221  66.294  1.00  0.00    -0.088 A  
HETATM   37  C   UNL     1      -8.193   9.947  67.051  1.00  0.00    -0.117 A  
ENDBRANCH  24  28
ENDBRANCH  12  13
ENDBRANCH  11  12
ENDBRANCH   9  11
ENDBRANCH   6   9
TORSDOF 5
ENDMDL
MODEL      121
REMARK 921   NORMALIZED FREE ENERGY PREDICTED BY IDOCK:   -4.28 KCAL/MOL
REMARK 922        TOTAL FREE ENERGY PREDICTED BY IDOCK:   -7.75 KCAL/MOL
REMARK 923 INTER-LIGAND FREE ENERGY PREDICTED BY IDOCK:   -7.78 KCAL/MOL
REMARK 924 INTRA-LIGAND FREE ENERGY PREDICTED BY IDOCK:    0.03 KCAL/MOL
REMARK 927      BINDING AFFINITY PREDICTED BY RF-SCORE:    0.00 PKD
ROOT
HETATM    1  C   UNL     1      -5.130  15.670  69.878  1.00  0.00    -0.102 C  
HETATM    2  C   UNL     1      -6.295  15.646  68.933  1.00  0.00    -0.114 A  
HETATM    3  C   UNL     1      -7.020  14.466  68.729  1.00  0.00    -0.100 A  
HETATM    4  C   UNL     1      -8.081  14.407  67.808  1.00  0.00    -0.174 A  
HETATM    5  C   UNL     1      -8.802  13.097  67.635  1.00  0.00    -0.191 C  
HETATM    6  C   UNL     1      -8.420  15.564  67.073  1.00  0.00    -0.266 A  
HETATM    7  C   UNL     1      -7.706  16.753  67.292  1.00  0.00    -0.200 A  
HETATM    8  C   UNL     1      -6.651  16.792  68.214  1.00  0.00    -0.152 A  
ENDROOT
BRANCH   6   9
HETATM    9  C   UNL     1      -9.491  15.509  66.029  1.00  0.00    -0.352 C  
HETATM   10  O   UNL     1      -9.605  14.597  65.224  1.00  0.00    -0.170 OA 
BRANCH   9  11
HETATM   11  O   UNL     1     -10.315  16.585  66.116  1.00  0.00    -0.319 OA 
BRANCH  11  12
HETATM   12  C   UNL     1     -10.395  17.164  67.432  1.00  0.00    -0.333 C  
BRANCH  12  13
HETATM   13  C   UNL     1     -10.965  16.164  68.408  1.00  0.00    -0.341 A  
HETATM   14  C   UNL     1     -10.587  16.184  69.757  1.00  0.00    -0.312 A  
HETATM   15  C   UNL     1     -10.995  15.167  70.624  1.00  0.00    -0.260 A  
HETATM   16  C   UNL     1     -11.788  14.110  70.157  1.00  0.00    -0.382 A  
HETATM   17  C   UNL     1     -12.253  14.155  68.833  1.00  0.00    -0.257 A  
HETATM   18  C   UNL     1     -12.088  12.927  71.074  1.00  0.00    -0.047 C  
HETATM   19  C   UNL     1     -11.830  15.160  67.963  1.00  0.00    -0.225 A  
HETATM   20  C   UNL     1     -12.201  11.599  70.299  1.00  0.00    -0.318 C  
HETATM   21  C   UNL     1     -13.363  13.192  71.907  1.00  0.00    -0.455 C  
HETATM   22  O   UNL     1     -13.247  10.950  70.307  1.00  0.00    -0.057 OA 
HETATM   23  N   UNL     1     -13.643  12.138  72.895  1.00  0.00    -0.081 NA 
HETATM   24  N   UNL     1     -11.055  11.248  69.593  1.00  0.00    -0.396 N  
HETATM   25  H1  UNL     1     -14.484  12.313  73.445  1.00  0.00     0.000 HD 
HETATM   26  H2  UNL     1     -12.837  11.989  73.502  1.00  0.00     0.000 HD 
HETATM   27  H   UNL     1     -10.266  11.893  69.632  1.00  0.00     0.000 HD 
BRANCH  24  28
HETATM   28  C   UNL     1     -10.894  10.069  68.827  1.00  0.00    -0.219 A  
HETATM   29  C   UNL     1     -10.829  10.082  67.432  1.00  0.00    -0.313 A  
HETATM   30  C   UNL     1     -10.631   8.906  66.709  1.00  0.00    -0.212 A  
HETATM   31  C   UNL     1     -10.508   7.681  67.370  1.00  0.00    -0.367 A  
HETATM   32  C   UNL     1     -10.297   6.481  66.686  1.00  0.00    -0.147 A  
HETATM   33  N   UNL     1     -10.191   5.271  67.278  1.00  0.00    -0.202 NA 
HETATM   34  C   UNL     1     -10.298   5.251  68.622  1.00  0.00    -0.122 A  
HETATM   35  C   UNL     1     -10.496   6.383  69.403  1.00  0.00    -0.277 A  
HETATM   36  C   UNL     1     -10.604   7.633  68.775  1.00  0.00    -0.169 A  
HETATM   37  C   UNL     1     -10.801   8.835  69.492  1.00  0.00    -0.151 A  
ENDBRANCH  24  28
ENDBRANCH  12  13
ENDBRANCH  11  12
ENDBRANCH   9  11
ENDBRANCH   6   9
TORSDOF 5
ENDMDL
MODEL      122
REMARK 921   NORMALIZED FREE ENERGY PREDICTED BY IDOCK:   -4.27 KCAL/MOL
REMARK 922        TOTAL FREE ENERGY PREDICTED BY IDOCK:   -7.75 KCAL/MOL
REMARK 923 INTER-LIGAND FREE ENERGY PREDICTED BY IDOCK:   -6.04 KCAL/MOL
REMARK 924 INTRA-LIGAND FREE ENERGY PREDICTED BY IDOCK:   -1.70 KCAL/MOL
REMARK 927      BINDING AFFINITY PREDICTED BY RF-SCORE:    0.00 PKD
ROOT
HETATM    1  C   UNL     1      -7.241   9.602  70.542  1.00  0.00    -0.143 C  
HETATM    2  C   UNL     1      -8.111  10.412  69.625  1.00  0.00    -0.116 A  
HETATM    3  C   UNL     1      -7.604  11.551  68.989  1.00  0.00    -0.058 A  
HETATM    4  C   UNL     1      -8.416  12.355  68.169  1.00  0.00    -0.180 A  
HETATM    5  C   UNL     1      -7.800  13.572  67.531  1.00  0.00    -0.184 C  
HETATM    6  C   UNL     1      -9.771  12.004  67.986  1.00  0.00    -0.198 A  
HETATM    7  C   UNL     1     -10.275  10.850  68.608  1.00  0.00    -0.201 A  
HETATM    8  C   UNL     1      -9.450  10.062  69.422  1.00  0.00    -0.237 A  
ENDROOT
BRANCH   6   9
HETATM    9  C   UNL     1     -10.677  12.885  67.184  1.00  0.00    -0.253 C  
HETATM   10  O   UNL     1     -11.014  14.006  67.533  1.00  0.00    -0.269 OA 
BRANCH   9  11
HETATM   11  O   UNL     1     -11.047  12.282  66.025  1.00  0.00    -0.284 OA 
BRANCH  11  12
HETATM   12  C   UNL     1     -10.178  12.557  64.911  1.00  0.00    -0.278 C  
BRANCH  12  13
HETATM   13  C   UNL     1      -9.442  11.306  64.500  1.00  0.00    -0.211 A  
HETATM   14  C   UNL     1      -9.645  10.736  63.237  1.00  0.00    -0.384 A  
HETATM   15  C   UNL     1      -9.083   9.498  62.917  1.00  0.00    -0.180 A  
HETATM   16  C   UNL     1      -8.307   8.806  63.857  1.00  0.00    -0.145 A  
HETATM   17  C   UNL     1      -8.017   9.432  65.080  1.00  0.00    -0.118 A  
HETATM   18  C   UNL     1      -7.836   7.386  63.551  1.00  0.00    -0.111 C  
HETATM   19  C   UNL     1      -8.595  10.659  65.406  1.00  0.00    -0.185 A  
HETATM   20  C   UNL     1      -7.761   6.508  64.816  1.00  0.00    -0.106 C  
HETATM   21  C   UNL     1      -6.479   7.407  62.811  1.00  0.00    -0.058 C  
HETATM   22  O   UNL     1      -6.693   6.016  65.181  1.00  0.00    -0.042 OA 
HETATM   23  N   UNL     1      -6.026   6.074  62.385  1.00  0.00    -0.025 NA 
HETATM   24  N   UNL     1      -8.970   6.368  65.490  1.00  0.00    -0.360 N  
HETATM   25  H1  UNL     1      -5.131   6.088  61.896  1.00  0.00     0.000 HD 
HETATM   26  H2  UNL     1      -6.740   5.613  61.821  1.00  0.00     0.000 HD 
HETATM   27  H   UNL     1      -9.777   6.862  65.110  1.00  0.00     0.000 HD 
BRANCH  24  28
HETATM   28  C   UNL     1      -9.171   5.596  66.659  1.00  0.00    -0.134 A  
HETATM   29  C   UNL     1      -9.316   4.207  66.626  1.00  0.00    -0.189 A  
HETATM   30  C   UNL     1      -9.474   3.472  67.800  1.00  0.00    -0.230 A  
HETATM   31  C   UNL     1      -9.507   4.116  69.041  1.00  0.00    -0.244 A  
HETATM   32  C   UNL     1      -9.652   3.417  70.241  1.00  0.00    -0.145 A  
HETATM   33  N   UNL     1      -9.707   3.996  71.461  1.00  0.00    -0.167 NA 
HETATM   34  C   UNL     1      -9.612   5.340  71.491  1.00  0.00    -0.154 A  
HETATM   35  C   UNL     1      -9.454   6.133  70.361  1.00  0.00    -0.179 A  
HETATM   36  C   UNL     1      -9.398   5.520  69.101  1.00  0.00    -0.158 A  
HETATM   37  C   UNL     1      -9.234   6.249  67.901  1.00  0.00    -0.116 A  
ENDBRANCH  24  28
ENDBRANCH  12  13
ENDBRANCH  11  12
ENDBRANCH   9  11
ENDBRANCH   6   9
TORSDOF 5
ENDMDL
MODEL      123
REMARK 921   NORMALIZED FREE ENERGY PREDICTED BY IDOCK:   -4.27 KCAL/MOL
REMARK 922        TOTAL FREE ENERGY PREDICTED BY IDOCK:   -7.74 KCAL/MOL
REMARK 923 INTER-LIGAND FREE ENERGY PREDICTED BY IDOCK:   -6.57 KCAL/MOL
REMARK 924 INTRA-LIGAND FREE ENERGY PREDICTED BY IDOCK:   -1.18 KCAL/MOL
REMARK 927      BINDING AFFINITY PREDICTED BY RF-SCORE:    0.00 PKD
ROOT
HETATM    1  C   UNL     1      -5.643   7.736  73.508  1.00  0.00    -0.045 C  
HETATM    2  C   UNL     1      -7.001   7.198  73.163  1.00  0.00    -0.072 A  
HETATM    3  C   UNL     1      -7.361   6.982  71.828  1.00  0.00    -0.086 A  
HETATM    4  C   UNL     1      -8.647   6.531  71.478  1.00  0.00    -0.129 A  
HETATM    5  C   UNL     1      -8.961   6.337  70.019  1.00  0.00    -0.149 C  
HETATM    6  C   UNL     1      -9.592   6.291  72.498  1.00  0.00    -0.146 A  
HETATM    7  C   UNL     1      -9.225   6.487  73.840  1.00  0.00    -0.172 A  
HETATM    8  C   UNL     1      -7.940   6.939  74.167  1.00  0.00    -0.131 A  
ENDROOT
BRANCH   6   9
HETATM    9  C   UNL     1     -10.991   5.887  72.151  1.00  0.00    -0.266 C  
HETATM   10  O   UNL     1     -11.476   4.805  72.444  1.00  0.00     0.055 OA 
BRANCH   9  11
HETATM   11  O   UNL     1     -11.641   6.885  71.498  1.00  0.00    -0.260 OA 
BRANCH  11  12
HETATM   12  C   UNL     1     -12.227   7.876  72.363  1.00  0.00    -0.247 C  
BRANCH  12  13
HETATM   13  C   UNL     1     -12.214   9.228  71.693  1.00  0.00    -0.445 A  
HETATM   14  C   UNL     1     -13.402   9.944  71.498  1.00  0.00    -0.462 A  
HETATM   15  C   UNL     1     -13.408  11.119  70.743  1.00  0.00     0.319 A  
HETATM   16  C   UNL     1     -12.224  11.600  70.168  1.00  0.00    -0.367 A  
HETATM   17  C   UNL     1     -11.020  10.939  70.458  1.00  0.00     0.221 A  
HETATM   18  C   UNL     1     -12.276  12.792  69.215  1.00  0.00    -0.104 C  
HETATM   19  C   UNL     1     -11.018   9.754  71.195  1.00  0.00    -0.386 A  
HETATM   20  C   UNL     1     -11.212  12.700  68.103  1.00  0.00    -0.269 C  
HETATM   21  C   UNL     1     -12.148  14.121  69.995  1.00  0.00    -0.346 C  
HETATM   22  O   UNL     1     -10.340  13.562  67.990  1.00  0.00    -0.229 OA 
HETATM   23  N   UNL     1     -12.306  15.312  69.146  1.00  0.00    -0.603 NA 
HETATM   24  N   UNL     1     -11.319  11.569  67.300  1.00  0.00    -0.299 N  
HETATM   25  H1  UNL     1     -12.222  16.189  69.660  1.00  0.00     0.000 HD 
HETATM   26  H2  UNL     1     -13.187  15.276  68.633  1.00  0.00     0.000 HD 
HETATM   27  H   UNL     1     -12.060  10.905  67.522  1.00  0.00     0.000 HD 
BRANCH  24  28
HETATM   28  C   UNL     1     -10.484  11.266  66.198  1.00  0.00    -0.254 A  
HETATM   29  C   UNL     1     -10.912  11.387  64.875  1.00  0.00    -0.284 A  
HETATM   30  C   UNL     1     -10.051  11.117  63.811  1.00  0.00    -0.416 A  
HETATM   31  C   UNL     1      -8.737  10.701  64.052  1.00  0.00    -0.136 A  
HETATM   32  C   UNL     1      -7.839  10.431  63.017  1.00  0.00    -0.127 A  
HETATM   33  N   UNL     1      -6.567  10.011  63.198  1.00  0.00    -0.128 NA 
HETATM   34  C   UNL     1      -6.167   9.850  64.475  1.00  0.00    -0.118 A  
HETATM   35  C   UNL     1      -6.971  10.100  65.579  1.00  0.00    -0.131 A  
HETATM   36  C   UNL     1      -8.289  10.537  65.377  1.00  0.00    -0.165 A  
HETATM   37  C   UNL     1      -9.174  10.819  66.443  1.00  0.00    -0.191 A  
ENDBRANCH  24  28
ENDBRANCH  12  13
ENDBRANCH  11  12
ENDBRANCH   9  11
ENDBRANCH   6   9
TORSDOF 5
ENDMDL
MODEL      124
REMARK 921   NORMALIZED FREE ENERGY PREDICTED BY IDOCK:   -4.26 KCAL/MOL
REMARK 922        TOTAL FREE ENERGY PREDICTED BY IDOCK:   -7.74 KCAL/MOL
REMARK 923 INTER-LIGAND FREE ENERGY PREDICTED BY IDOCK:   -6.47 KCAL/MOL
REMARK 924 INTRA-LIGAND FREE ENERGY PREDICTED BY IDOCK:   -1.27 KCAL/MOL
REMARK 927      BINDING AFFINITY PREDICTED BY RF-SCORE:    0.00 PKD
ROOT
HETATM    1  C   UNL     1     -10.922   1.902  63.513  1.00  0.00    -0.092 C  
HETATM    2  C   UNL     1      -9.768   2.786  63.887  1.00  0.00    -0.142 A  
HETATM    3  C   UNL     1      -9.371   3.829  63.043  1.00  0.00    -0.110 A  
HETATM    4  C   UNL     1      -8.259   4.635  63.346  1.00  0.00    -0.103 A  
HETATM    5  C   UNL     1      -7.887   5.729  62.381  1.00  0.00    -0.081 C  
HETATM    6  C   UNL     1      -7.529   4.384  64.528  1.00  0.00    -0.072 A  
HETATM    7  C   UNL     1      -7.939   3.349  65.385  1.00  0.00    -0.089 A  
HETATM    8  C   UNL     1      -9.049   2.557  65.064  1.00  0.00    -0.137 A  
ENDROOT
BRANCH   6   9
HETATM    9  C   UNL     1      -6.295   5.173  64.836  1.00  0.00    -0.034 C  
HETATM   10  O   UNL     1      -5.178   4.858  64.457  1.00  0.00    -0.012 OA 
BRANCH   9  11
HETATM   11  O   UNL     1      -6.591   6.281  65.563  1.00  0.00    -0.044 OA 
BRANCH  11  12
HETATM   12  C   UNL     1      -5.974   7.489  65.079  1.00  0.00    -0.038 C  
BRANCH  12  13
HETATM   13  C   UNL     1      -6.999   8.591  64.970  1.00  0.00    -0.075 A  
HETATM   14  C   UNL     1      -6.619   9.891  64.610  1.00  0.00    -0.119 A  
HETATM   15  C   UNL     1      -7.540  10.940  64.659  1.00  0.00     0.412 A  
HETATM   16  C   UNL     1      -8.860  10.708  65.070  1.00  0.00    -0.212 A  
HETATM   17  C   UNL     1      -9.261   9.387  65.323  1.00  0.00    -0.299 A  
HETATM   18  C   UNL     1      -9.807  11.888  65.274  1.00  0.00    -0.255 C  
HETATM   19  C   UNL     1      -8.336   8.343  65.293  1.00  0.00    -0.169 A  
HETATM   20  C   UNL     1     -10.814  11.641  66.415  1.00  0.00    -0.287 C  
HETATM   21  C   UNL     1     -10.538  12.236  63.957  1.00  0.00    -0.400 C  
HETATM   22  O   UNL     1     -12.025  11.629  66.197  1.00  0.00    -0.370 OA 
HETATM   23  N   UNL     1     -11.380  13.438  64.057  1.00  0.00    -0.539 NA 
HETATM   24  N   UNL     1     -10.229  11.408  67.656  1.00  0.00    -0.178 N  
HETATM   25  H1  UNL     1     -11.862  13.667  63.188  1.00  0.00     0.000 HD 
HETATM   26  H2  UNL     1     -10.836  14.233  64.391  1.00  0.00     0.000 HD 
HETATM   27  H   UNL     1      -9.209  11.401  67.698  1.00  0.00     0.000 HD 
BRANCH  24  28
HETATM   28  C   UNL     1     -10.932  11.182  68.863  1.00  0.00    -0.225 A  
HETATM   29  C   UNL     1     -11.611  12.197  69.538  1.00  0.00    -0.382 A  
HETATM   30  C   UNL     1     -12.327  11.932  70.706  1.00  0.00    -0.416 A  
HETATM   31  C   UNL     1     -12.365  10.638  71.235  1.00  0.00    -0.488 A  
HETATM   32  C   UNL     1     -13.079  10.327  72.394  1.00  0.00    -0.040 A  
HETATM   33  N   UNL     1     -13.131   9.098  72.953  1.00  0.00    -0.226 NA 
HETATM   34  C   UNL     1     -12.439   8.126  72.326  1.00  0.00    -0.301 A  
HETATM   35  C   UNL     1     -11.705   8.320  71.163  1.00  0.00    -0.308 A  
HETATM   36  C   UNL     1     -11.660   9.601  70.593  1.00  0.00    -0.371 A  
HETATM   37  C   UNL     1     -10.943   9.887  69.408  1.00  0.00    -0.263 A  
ENDBRANCH  24  28
ENDBRANCH  12  13
ENDBRANCH  11  12
ENDBRANCH   9  11
ENDBRANCH   6   9
TORSDOF 5
ENDMDL
MODEL      125
REMARK 921   NORMALIZED FREE ENERGY PREDICTED BY IDOCK:   -4.24 KCAL/MOL
REMARK 922        TOTAL FREE ENERGY PREDICTED BY IDOCK:   -7.70 KCAL/MOL
REMARK 923 INTER-LIGAND FREE ENERGY PREDICTED BY IDOCK:   -7.39 KCAL/MOL
REMARK 924 INTRA-LIGAND FREE ENERGY PREDICTED BY IDOCK:   -0.31 KCAL/MOL
REMARK 927      BINDING AFFINITY PREDICTED BY RF-SCORE:    0.00 PKD
ROOT
HETATM    1  C   UNL     1      -7.870   2.091  68.401  1.00  0.00    -0.056 C  
HETATM    2  C   UNL     1      -8.472   3.120  69.313  1.00  0.00    -0.098 A  
HETATM    3  C   UNL     1      -8.388   4.481  69.000  1.00  0.00    -0.086 A  
HETATM    4  C   UNL     1      -8.897   5.466  69.866  1.00  0.00    -0.140 A  
HETATM    5  C   UNL     1      -8.755   6.910  69.464  1.00  0.00    -0.133 C  
HETATM    6  C   UNL     1      -9.504   5.070  71.077  1.00  0.00    -0.220 A  
HETATM    7  C   UNL     1      -9.606   3.702  71.382  1.00  0.00    -0.237 A  
HETATM    8  C   UNL     1      -9.092   2.737  70.507  1.00  0.00    -0.190 A  
ENDROOT
BRANCH   6   9
HETATM    9  C   UNL     1      -9.981   6.098  72.054  1.00  0.00    -0.172 C  
HETATM   10  O   UNL     1      -9.242   6.702  72.816  1.00  0.00    -0.137 OA 
BRANCH   9  11
HETATM   11  O   UNL     1     -11.324   6.277  71.960  1.00  0.00    -0.270 OA 
BRANCH  11  12
HETATM   12  C   UNL     1     -11.748   6.960  70.765  1.00  0.00    -0.369 C  
BRANCH  12  13
HETATM   13  C   UNL     1     -12.160   8.374  71.090  1.00  0.00    -0.275 A  
HETATM   14  C   UNL     1     -13.513   8.723  71.188  1.00  0.00    -0.081 A  
HETATM   15  C   UNL     1     -13.894  10.058  71.335  1.00  0.00    -0.026 A  
HETATM   16  C   UNL     1     -12.927  11.072  71.388  1.00  0.00    -0.517 A  
HETATM   17  C   UNL     1     -11.572  10.706  71.400  1.00  0.00     0.177 A  
HETATM   18  C   UNL     1     -13.363  12.535  71.386  1.00  0.00    -0.058 C  
HETATM   19  C   UNL     1     -11.192   9.374  71.233  1.00  0.00    -0.437 A  
HETATM   20  C   UNL     1     -12.359  13.445  70.652  1.00  0.00    -0.348 C  
HETATM   21  C   UNL     1     -13.610  13.033  72.829  1.00  0.00     0.071 C  
HETATM   22  O   UNL     1     -11.787  14.361  71.243  1.00  0.00    -0.326 OA 
HETATM   23  N   UNL     1     -14.144  14.403  72.888  1.00  0.00    -0.380 NA 
HETATM   24  N   UNL     1     -12.152  13.111  69.317  1.00  0.00    -0.265 N  
HETATM   25  H1  UNL     1     -14.307  14.732  73.840  1.00  0.00     0.000 HD 
HETATM   26  H2  UNL     1     -14.991  14.485  72.326  1.00  0.00     0.000 HD 
HETATM   27  H   UNL     1     -12.655  12.301  68.954  1.00  0.00     0.000 HD 
BRANCH  24  28
HETATM   28  C   UNL     1     -11.303  13.804  68.422  1.00  0.00    -0.293 A  
HETATM   29  C   UNL     1     -10.472  13.145  67.513  1.00  0.00    -0.229 A  
HETATM   30  C   UNL     1      -9.675  13.858  66.617  1.00  0.00    -0.295 A  
HETATM   31  C   UNL     1      -9.682  15.256  66.623  1.00  0.00    -0.268 A  
HETATM   32  C   UNL     1      -8.908  16.009  65.736  1.00  0.00     0.043 A  
HETATM   33  N   UNL     1      -8.867  17.360  65.714  1.00  0.00    -0.482 NA 
HETATM   34  C   UNL     1      -9.635  17.997  66.621  1.00  0.00    -0.315 A  
HETATM   35  C   UNL     1     -10.450  17.350  67.540  1.00  0.00    -0.354 A  
HETATM   36  C   UNL     1     -10.484  15.947  67.552  1.00  0.00    -0.298 A  
HETATM   37  C   UNL     1     -11.288  15.208  68.449  1.00  0.00    -0.326 A  
ENDBRANCH  24  28
ENDBRANCH  12  13
ENDBRANCH  11  12
ENDBRANCH   9  11
ENDBRANCH   6   9
TORSDOF 5
ENDMDL
MODEL      126
REMARK 921   NORMALIZED FREE ENERGY PREDICTED BY IDOCK:   -4.23 KCAL/MOL
REMARK 922        TOTAL FREE ENERGY PREDICTED BY IDOCK:   -7.69 KCAL/MOL
REMARK 923 INTER-LIGAND FREE ENERGY PREDICTED BY IDOCK:   -5.97 KCAL/MOL
REMARK 924 INTRA-LIGAND FREE ENERGY PREDICTED BY IDOCK:   -1.73 KCAL/MOL
REMARK 927      BINDING AFFINITY PREDICTED BY RF-SCORE:    0.00 PKD
ROOT
HETATM    1  C   UNL     1      -9.996   5.115  69.337  1.00  0.00    -0.292 C  
HETATM    2  C   UNL     1      -8.912   5.071  68.299  1.00  0.00    -0.120 A  
HETATM    3  C   UNL     1      -9.130   4.435  67.072  1.00  0.00    -0.140 A  
HETATM    4  C   UNL     1      -8.112   4.334  66.107  1.00  0.00    -0.102 A  
HETATM    5  C   UNL     1      -8.421   3.622  64.817  1.00  0.00    -0.100 C  
HETATM    6  C   UNL     1      -6.844   4.887  66.385  1.00  0.00    -0.062 A  
HETATM    7  C   UNL     1      -6.630   5.543  67.608  1.00  0.00    -0.053 A  
HETATM    8  C   UNL     1      -7.657   5.632  68.557  1.00  0.00    -0.085 A  
ENDROOT
BRANCH   6   9
HETATM    9  C   UNL     1      -5.719   4.724  65.411  1.00  0.00    -0.018 C  
HETATM   10  O   UNL     1      -5.289   3.640  65.048  1.00  0.00    -0.009 OA 
BRANCH   9  11
HETATM   11  O   UNL     1      -5.268   5.930  64.978  1.00  0.00    -0.012 OA 
BRANCH  11  12
HETATM   12  C   UNL     1      -5.783   6.328  63.694  1.00  0.00    -0.022 C  
BRANCH  12  13
HETATM   13  C   UNL     1      -6.620   7.576  63.830  1.00  0.00    -0.053 A  
HETATM   14  C   UNL     1      -6.045   8.845  63.686  1.00  0.00    -0.080 A  
HETATM   15  C   UNL     1      -6.786   9.996  63.964  1.00  0.00    -0.128 A  
HETATM   16  C   UNL     1      -8.117   9.899  64.393  1.00  0.00    -0.157 A  
HETATM   17  C   UNL     1      -8.719   8.631  64.430  1.00  0.00    -0.006 A  
HETATM   18  C   UNL     1      -8.859  11.154  64.847  1.00  0.00     0.012 C  
HETATM   19  C   UNL     1      -7.973   7.481  64.171  1.00  0.00    -0.098 A  
HETATM   20  C   UNL     1      -9.868  10.861  65.975  1.00  0.00    -0.233 C  
HETATM   21  C   UNL     1      -9.553  11.842  63.649  1.00  0.00    -0.189 C  
HETATM   22  O   UNL     1     -11.070  11.075  65.819  1.00  0.00    -0.108 OA 
HETATM   23  N   UNL     1     -10.189  13.121  64.000  1.00  0.00    -0.725 NA 
HETATM   24  N   UNL     1      -9.301  10.321  67.125  1.00  0.00    -0.152 N  
HETATM   25  H1  UNL     1     -10.647  13.575  63.210  1.00  0.00     0.000 HD 
HETATM   26  H2  UNL     1      -9.518  13.749  64.441  1.00  0.00     0.000 HD 
HETATM   27  H   UNL     1      -8.295  10.150  67.116  1.00  0.00     0.000 HD 
BRANCH  24  28
HETATM   28  C   UNL     1     -10.005   9.990  68.307  1.00  0.00    -0.153 A  
HETATM   29  C   UNL     1      -9.843   8.767  68.961  1.00  0.00    -0.183 A  
HETATM   30  C   UNL     1     -10.523   8.488  70.146  1.00  0.00    -0.226 A  
HETATM   31  C   UNL     1     -11.399   9.427  70.698  1.00  0.00    -0.352 A  
HETATM   32  C   UNL     1     -12.092   9.193  71.888  1.00  0.00    -0.378 A  
HETATM   33  N   UNL     1     -12.962  10.061  72.451  1.00  0.00    -0.247 NA 
HETATM   34  C   UNL     1     -13.153  11.224  71.797  1.00  0.00    -0.422 A  
HETATM   35  C   UNL     1     -12.510  11.566  70.614  1.00  0.00    -0.405 A  
HETATM   36  C   UNL     1     -11.609  10.656  70.041  1.00  0.00    -0.406 A  
HETATM   37  C   UNL     1     -10.908  10.924  68.843  1.00  0.00    -0.262 A  
ENDBRANCH  24  28
ENDBRANCH  12  13
ENDBRANCH  11  12
ENDBRANCH   9  11
ENDBRANCH   6   9
TORSDOF 5
ENDMDL
MODEL      127
REMARK 921   NORMALIZED FREE ENERGY PREDICTED BY IDOCK:   -4.20 KCAL/MOL
REMARK 922        TOTAL FREE ENERGY PREDICTED BY IDOCK:   -7.65 KCAL/MOL
REMARK 923 INTER-LIGAND FREE ENERGY PREDICTED BY IDOCK:   -7.34 KCAL/MOL
REMARK 924 INTRA-LIGAND FREE ENERGY PREDICTED BY IDOCK:   -0.31 KCAL/MOL
REMARK 927      BINDING AFFINITY PREDICTED BY RF-SCORE:    0.00 PKD
ROOT
HETATM    1  C   UNL     1      -6.672  19.283  68.667  1.00  0.00    -0.321 C  
HETATM    2  C   UNL     1      -7.757  18.615  67.875  1.00  0.00    -0.273 A  
HETATM    3  C   UNL     1      -8.897  18.114  68.514  1.00  0.00    -0.312 A  
HETATM    4  C   UNL     1      -9.901  17.436  67.800  1.00  0.00    -0.283 A  
HETATM    5  C   UNL     1     -11.089  16.915  68.562  1.00  0.00    -0.213 C  
HETATM    6  C   UNL     1      -9.753  17.259  66.407  1.00  0.00    -0.303 A  
HETATM    7  C   UNL     1      -8.620  17.779  65.762  1.00  0.00     0.288 A  
HETATM    8  C   UNL     1      -7.630  18.450  66.492  1.00  0.00    -0.267 A  
ENDROOT
BRANCH   6   9
HETATM    9  C   UNL     1     -10.766  16.472  65.635  1.00  0.00    -0.248 C  
HETATM   10  O   UNL     1     -11.077  16.719  64.480  1.00  0.00    -0.989 OA 
BRANCH   9  11
HETATM   11  O   UNL     1     -11.263  15.451  66.378  1.00  0.00    -0.282 OA 
BRANCH  11  12
HETATM   12  C   UNL     1     -10.870  14.142  65.924  1.00  0.00    -0.294 C  
BRANCH  12  13
HETATM   13  C   UNL     1     -10.996  13.140  67.046  1.00  0.00    -0.289 A  
HETATM   14  C   UNL     1     -10.539  13.444  68.334  1.00  0.00    -0.259 A  
HETATM   15  C   UNL     1     -10.516  12.465  69.330  1.00  0.00     0.176 A  
HETATM   16  C   UNL     1     -10.949  11.160  69.054  1.00  0.00    -0.286 A  
HETATM   17  C   UNL     1     -11.507  10.891  67.794  1.00  0.00    -0.323 A  
HETATM   18  C   UNL     1     -10.766  10.065  70.101  1.00  0.00    -0.361 C  
HETATM   19  C   UNL     1     -11.512  11.865  66.794  1.00  0.00    -0.384 A  
HETATM   20  C   UNL     1     -10.494   8.687  69.466  1.00  0.00    -0.220 C  
HETATM   21  C   UNL     1     -11.985  10.006  71.050  1.00  0.00    -0.376 C  
HETATM   22  O   UNL     1     -11.262   7.743  69.653  1.00  0.00    -0.110 OA 
HETATM   23  N   UNL     1     -11.819   9.048  72.153  1.00  0.00    -0.346 NA 
HETATM   24  N   UNL     1      -9.357   8.638  68.666  1.00  0.00    -0.142 N  
HETATM   25  H1  UNL     1     -12.624   9.009  72.779  1.00  0.00     0.000 HD 
HETATM   26  H2  UNL     1     -10.964   9.240  72.674  1.00  0.00     0.000 HD 
HETATM   27  H   UNL     1      -8.826   9.502  68.555  1.00  0.00     0.000 HD 
BRANCH  24  28
HETATM   28  C   UNL     1      -8.877   7.488  67.995  1.00  0.00    -0.127 A  
HETATM   29  C   UNL     1      -9.427   7.035  66.794  1.00  0.00    -0.205 A  
HETATM   30  C   UNL     1      -8.904   5.921  66.138  1.00  0.00    -0.149 A  
HETATM   31  C   UNL     1      -7.822   5.222  66.681  1.00  0.00    -0.100 A  
HETATM   32  C   UNL     1      -7.261   4.108  66.052  1.00  0.00    -0.068 A  
HETATM   33  N   UNL     1      -6.228   3.390  66.545  1.00  0.00    -0.028 NA 
HETATM   34  C   UNL     1      -5.725   3.800  67.727  1.00  0.00    -0.022 A  
HETATM   35  C   UNL     1      -6.197   4.899  68.434  1.00  0.00    -0.032 A  
HETATM   36  C   UNL     1      -7.269   5.636  67.909  1.00  0.00    -0.072 A  
HETATM   37  C   UNL     1      -7.809   6.770  68.558  1.00  0.00    -0.118 A  
ENDBRANCH  24  28
ENDBRANCH  12  13
ENDBRANCH  11  12
ENDBRANCH   9  11
ENDBRANCH   6   9
TORSDOF 5
ENDMDL
MODEL      128
REMARK 921   NORMALIZED FREE ENERGY PREDICTED BY IDOCK:   -4.19 KCAL/MOL
REMARK 922        TOTAL FREE ENERGY PREDICTED BY IDOCK:   -7.64 KCAL/MOL
REMARK 923 INTER-LIGAND FREE ENERGY PREDICTED BY IDOCK:   -7.32 KCAL/MOL
REMARK 924 INTRA-LIGAND FREE ENERGY PREDICTED BY IDOCK:   -0.33 KCAL/MOL
REMARK 927      BINDING AFFINITY PREDICTED BY RF-SCORE:    0.00 PKD
ROOT
HETATM    1  C   UNL     1     -10.214  18.970  66.214  1.00  0.00    -0.510 C  
HETATM    2  C   UNL     1     -10.166  17.485  66.004  1.00  0.00    -0.306 A  
HETATM    3  C   UNL     1     -11.140  16.846  65.227  1.00  0.00     0.050 A  
HETATM    4  C   UNL     1     -11.147  15.450  65.061  1.00  0.00    -0.428 A  
HETATM    5  C   UNL     1     -12.236  14.837  64.222  1.00  0.00    -0.402 C  
HETATM    6  C   UNL     1     -10.149  14.677  65.693  1.00  0.00    -0.389 A  
HETATM    7  C   UNL     1      -9.160  15.319  66.457  1.00  0.00    -0.334 A  
HETATM    8  C   UNL     1      -9.171  16.711  66.611  1.00  0.00    -0.277 A  
ENDROOT
BRANCH   6   9
HETATM    9  C   UNL     1     -10.179  13.183  65.601  1.00  0.00    -0.286 C  
HETATM   10  O   UNL     1     -10.088  12.569  64.550  1.00  0.00    -0.296 OA 
BRANCH   9  11
HETATM   11  O   UNL     1     -10.295  12.619  66.830  1.00  0.00    -0.231 OA 
BRANCH  11  12
HETATM   12  C   UNL     1     -10.971  11.348  66.836  1.00  0.00    -0.299 C  
BRANCH  12  13
HETATM   13  C   UNL     1      -9.974  10.225  66.694  1.00  0.00    -0.270 A  
HETATM   14  C   UNL     1      -9.775   9.594  65.459  1.00  0.00    -0.372 A  
HETATM   15  C   UNL     1      -8.968   8.458  65.363  1.00  0.00    -0.103 A  
HETATM   16  C   UNL     1      -8.345   7.930  66.502  1.00  0.00    -0.127 A  
HETATM   17  C   UNL     1      -8.460   8.629  67.714  1.00  0.00    -0.125 A  
HETATM   18  C   UNL     1      -7.602   6.600  66.410  1.00  0.00    -0.090 C  
HETATM   19  C   UNL     1      -9.282   9.752  67.814  1.00  0.00    -0.141 A  
HETATM   20  C   UNL     1      -7.701   5.782  67.713  1.00  0.00    -0.097 C  
HETATM   21  C   UNL     1      -6.125   6.826  66.009  1.00  0.00    -0.038 C  
HETATM   22  O   UNL     1      -6.690   5.484  68.350  1.00  0.00    -0.050 OA 
HETATM   23  N   UNL     1      -5.384   5.574  65.790  1.00  0.00    -0.012 NA 
HETATM   24  N   UNL     1      -9.000   5.462  68.092  1.00  0.00    -0.108 N  
HETATM   25  H1  UNL     1      -4.410   5.723  65.525  1.00  0.00     0.000 HD 
HETATM   26  H2  UNL     1      -5.860   4.986  65.106  1.00  0.00     0.000 HD 
HETATM   27  H   UNL     1      -9.758   5.805  67.501  1.00  0.00     0.000 HD 
BRANCH  24  28
HETATM   28  C   UNL     1      -9.357   4.700  69.230  1.00  0.00    -0.142 A  
HETATM   29  C   UNL     1      -9.269   3.307  69.258  1.00  0.00    -0.218 A  
HETATM   30  C   UNL     1      -9.591   2.587  70.409  1.00  0.00    -0.119 A  
HETATM   31  C   UNL     1     -10.028   3.251  71.559  1.00  0.00    -0.148 A  
HETATM   32  C   UNL     1     -10.350   2.571  72.736  1.00  0.00    -0.157 A  
HETATM   33  N   UNL     1     -10.793   3.166  73.866  1.00  0.00    -0.204 NA 
HETATM   34  C   UNL     1     -10.921   4.507  73.826  1.00  0.00    -0.286 A  
HETATM   35  C   UNL     1     -10.619   5.284  72.715  1.00  0.00    -0.276 A  
HETATM   36  C   UNL     1     -10.160   4.654  71.548  1.00  0.00    -0.255 A  
HETATM   37  C   UNL     1      -9.824   5.367  70.374  1.00  0.00    -0.270 A  
ENDBRANCH  24  28
ENDBRANCH  12  13
ENDBRANCH  11  12
ENDBRANCH   9  11
ENDBRANCH   6   9
TORSDOF 5
ENDMDL
MODEL      129
REMARK 921   NORMALIZED FREE ENERGY PREDICTED BY IDOCK:   -4.19 KCAL/MOL
REMARK 922        TOTAL FREE ENERGY PREDICTED BY IDOCK:   -7.64 KCAL/MOL
REMARK 923 INTER-LIGAND FREE ENERGY PREDICTED BY IDOCK:   -6.27 KCAL/MOL
REMARK 924 INTRA-LIGAND FREE ENERGY PREDICTED BY IDOCK:   -1.37 KCAL/MOL
REMARK 927      BINDING AFFINITY PREDICTED BY RF-SCORE:    0.00 PKD
ROOT
HETATM    1  C   UNL     1     -11.792   8.203  72.416  1.00  0.00    -0.448 C  
HETATM    2  C   UNL     1     -10.601   7.457  71.888  1.00  0.00    -0.233 A  
HETATM    3  C   UNL     1     -10.620   6.060  71.802  1.00  0.00    -0.277 A  
HETATM    4  C   UNL     1      -9.497   5.336  71.362  1.00  0.00    -0.194 A  
HETATM    5  C   UNL     1      -9.592   3.835  71.311  1.00  0.00    -0.243 C  
HETATM    6  C   UNL     1      -8.327   6.037  70.999  1.00  0.00    -0.124 A  
HETATM    7  C   UNL     1      -8.314   7.440  71.066  1.00  0.00    -0.114 A  
HETATM    8  C   UNL     1      -9.443   8.142  71.508  1.00  0.00    -0.222 A  
ENDROOT
BRANCH   6   9
HETATM    9  C   UNL     1      -7.092   5.290  70.604  1.00  0.00    -0.060 C  
HETATM   10  O   UNL     1      -6.469   4.562  71.362  1.00  0.00    -0.018 OA 
BRANCH   9  11
HETATM   11  O   UNL     1      -6.780   5.514  69.301  1.00  0.00    -0.052 OA 
BRANCH  11  12
HETATM   12  C   UNL     1      -7.792   5.089  68.369  1.00  0.00    -0.082 C  
BRANCH  12  13
HETATM   13  C   UNL     1      -8.009   6.148  67.316  1.00  0.00    -0.102 A  
HETATM   14  C   UNL     1      -6.982   6.502  66.432  1.00  0.00    -0.066 A  
HETATM   15  C   UNL     1      -7.133   7.585  65.563  1.00  0.00    -0.061 A  
HETATM   16  C   UNL     1      -8.318   8.335  65.562  1.00  0.00    -0.163 A  
HETATM   17  C   UNL     1      -9.383   7.908  66.371  1.00  0.00    -0.247 A  
HETATM   18  C   UNL     1      -8.406   9.609  64.725  1.00  0.00    -0.156 C  
HETATM   19  C   UNL     1      -9.223   6.839  67.253  1.00  0.00    -0.140 A  
HETATM   20  C   UNL     1      -9.292  10.683  65.386  1.00  0.00    -0.210 C  
HETATM   21  C   UNL     1      -8.896   9.290  63.294  1.00  0.00    -0.137 C  
HETATM   22  O   UNL     1     -10.305  11.100  64.824  1.00  0.00    -0.287 OA 
HETATM   23  N   UNL     1      -8.893  10.460  62.403  1.00  0.00    -0.220 NA 
HETATM   24  N   UNL     1      -8.860  11.088  66.645  1.00  0.00    -0.159 N  
HETATM   25  H1  UNL     1      -9.216  10.250  61.459  1.00  0.00     0.000 HD 
HETATM   26  H2  UNL     1      -7.970  10.895  62.382  1.00  0.00     0.000 HD 
HETATM   27  H   UNL     1      -8.027  10.636  67.022  1.00  0.00     0.000 HD 
BRANCH  24  28
HETATM   28  C   UNL     1      -9.482  12.077  67.445  1.00  0.00    -0.177 A  
HETATM   29  C   UNL     1     -10.308  11.759  68.525  1.00  0.00    -0.228 A  
HETATM   30  C   UNL     1     -10.874  12.757  69.318  1.00  0.00    -0.044 A  
HETATM   31  C   UNL     1     -10.636  14.106  69.035  1.00  0.00    -0.227 A  
HETATM   32  C   UNL     1     -11.173  15.137  69.809  1.00  0.00    -0.279 A  
HETATM   33  N   UNL     1     -10.986  16.453  69.566  1.00  0.00    -0.323 NA 
HETATM   34  C   UNL     1     -10.225  16.762  68.497  1.00  0.00    -0.298 A  
HETATM   35  C   UNL     1      -9.633  15.819  67.666  1.00  0.00    -0.220 A  
HETATM   36  C   UNL     1      -9.834  14.456  67.931  1.00  0.00    -0.224 A  
HETATM   37  C   UNL     1      -9.265  13.431  67.141  1.00  0.00    -0.240 A  
ENDBRANCH  24  28
ENDBRANCH  12  13
ENDBRANCH  11  12
ENDBRANCH   9  11
ENDBRANCH   6   9
TORSDOF 5
ENDMDL
MODEL      130
REMARK 921   NORMALIZED FREE ENERGY PREDICTED BY IDOCK:   -4.17 KCAL/MOL
REMARK 922        TOTAL FREE ENERGY PREDICTED BY IDOCK:   -7.61 KCAL/MOL
REMARK 923 INTER-LIGAND FREE ENERGY PREDICTED BY IDOCK:   -7.09 KCAL/MOL
REMARK 924 INTRA-LIGAND FREE ENERGY PREDICTED BY IDOCK:   -0.52 KCAL/MOL
REMARK 927      BINDING AFFINITY PREDICTED BY RF-SCORE:    0.00 PKD
ROOT
HETATM    1  C   UNL     1     -12.060  14.511  71.135  1.00  0.00    -0.408 C  
HETATM    2  C   UNL     1     -11.628  15.470  70.063  1.00  0.00    -0.356 A  
HETATM    3  C   UNL     1     -10.761  16.526  70.363  1.00  0.00     0.017 A  
HETATM    4  C   UNL     1     -10.387  17.468  69.388  1.00  0.00    -0.067 A  
HETATM    5  C   UNL     1      -9.461  18.584  69.793  1.00  0.00     0.783 C  
HETATM    6  C   UNL     1     -10.898  17.342  68.078  1.00  0.00    -0.281 A  
HETATM    7  C   UNL     1     -11.753  16.271  67.771  1.00  0.00     0.278 A  
HETATM    8  C   UNL     1     -12.115  15.344  68.758  1.00  0.00    -0.183 A  
ENDROOT
BRANCH   6   9
HETATM    9  C   UNL     1     -10.581  18.374  67.041  1.00  0.00    -0.366 C  
HETATM   10  O   UNL     1     -11.049  19.502  67.043  1.00  0.00    -0.424 OA 
BRANCH   9  11
HETATM   11  O   UNL     1      -9.698  17.895  66.128  1.00  0.00    -0.452 OA 
BRANCH  11  12
HETATM   12  C   UNL     1      -8.698  17.016  66.676  1.00  0.00    -0.251 C  
BRANCH  12  13
HETATM   13  C   UNL     1      -8.944  15.597  66.223  1.00  0.00    -0.377 A  
HETATM   14  C   UNL     1      -9.797  15.326  65.146  1.00  0.00    -0.164 A  
HETATM   15  C   UNL     1     -10.143  14.011  64.827  1.00  0.00    -0.224 A  
HETATM   16  C   UNL     1      -9.642  12.941  65.582  1.00  0.00    -0.036 A  
HETATM   17  C   UNL     1      -8.703  13.213  66.590  1.00  0.00    -0.018 A  
HETATM   18  C   UNL     1     -10.156  11.527  65.324  1.00  0.00    -0.314 C  
HETATM   19  C   UNL     1      -8.373  14.528  66.920  1.00  0.00    -0.133 A  
HETATM   20  C   UNL     1     -10.205  10.678  66.610  1.00  0.00    -0.231 C  
HETATM   21  C   UNL     1      -9.313  10.830  64.232  1.00  0.00    -0.245 C  
HETATM   22  O   UNL     1      -9.539   9.647  66.711  1.00  0.00    -0.156 OA 
HETATM   23  N   UNL     1      -9.830   9.505  63.854  1.00  0.00    -0.242 NA 
HETATM   24  N   UNL     1     -11.019  11.198  67.611  1.00  0.00    -0.249 N  
HETATM   25  H1  UNL     1      -9.274   9.045  63.133  1.00  0.00     0.000 HD 
HETATM   26  H2  UNL     1     -10.809   9.565  63.575  1.00  0.00     0.000 HD 
HETATM   27  H   UNL     1     -11.485  12.085  67.420  1.00  0.00     0.000 HD 
BRANCH  24  28
HETATM   28  C   UNL     1     -11.253  10.598  68.871  1.00  0.00    -0.275 A  
HETATM   29  C   UNL     1     -12.405  10.846  69.619  1.00  0.00    -0.290 A  
HETATM   30  C   UNL     1     -12.623  10.208  70.840  1.00  0.00    -0.454 A  
HETATM   31  C   UNL     1     -11.678   9.313  71.349  1.00  0.00    -0.431 A  
HETATM   32  C   UNL     1     -11.861   8.643  72.562  1.00  0.00    -0.272 A  
HETATM   33  N   UNL     1     -10.969   7.785  73.104  1.00  0.00    -0.381 NA 
HETATM   34  C   UNL     1      -9.836   7.579  72.404  1.00  0.00    -0.171 A  
HETATM   35  C   UNL     1      -9.554   8.181  71.185  1.00  0.00    -0.196 A  
HETATM   36  C   UNL     1     -10.489   9.070  70.633  1.00  0.00    -0.285 A  
HETATM   37  C   UNL     1     -10.287   9.723  69.395  1.00  0.00    -0.232 A  
ENDBRANCH  24  28
ENDBRANCH  12  13
ENDBRANCH  11  12
ENDBRANCH   9  11
ENDBRANCH   6   9
TORSDOF 5
ENDMDL
MODEL      131
REMARK 921   NORMALIZED FREE ENERGY PREDICTED BY IDOCK:   -4.13 KCAL/MOL
REMARK 922        TOTAL FREE ENERGY PREDICTED BY IDOCK:   -7.56 KCAL/MOL
REMARK 923 INTER-LIGAND FREE ENERGY PREDICTED BY IDOCK:   -7.73 KCAL/MOL
REMARK 924 INTRA-LIGAND FREE ENERGY PREDICTED BY IDOCK:    0.17 KCAL/MOL
REMARK 927      BINDING AFFINITY PREDICTED BY RF-SCORE:    0.00 PKD
ROOT
HETATM    1  C   UNL     1     -10.841   1.990  73.564  1.00  0.00    -0.265 C  
HETATM    2  C   UNL     1     -10.692   3.481  73.466  1.00  0.00    -0.307 A  
HETATM    3  C   UNL     1     -11.011   4.150  72.279  1.00  0.00     0.216 A  
HETATM    4  C   UNL     1     -10.827   5.538  72.147  1.00  0.00    -0.293 A  
HETATM    5  C   UNL     1     -11.181   6.181  70.833  1.00  0.00    -0.365 C  
HETATM    6  C   UNL     1     -10.310   6.270  73.237  1.00  0.00    -0.248 A  
HETATM    7  C   UNL     1     -10.008   5.602  74.436  1.00  0.00    -0.262 A  
HETATM    8  C   UNL     1     -10.197   4.218  74.547  1.00  0.00    -0.275 A  
ENDROOT
BRANCH   6   9
HETATM    9  C   UNL     1     -10.029   7.733  73.099  1.00  0.00    -0.311 C  
HETATM   10  O   UNL     1      -9.219   8.335  73.787  1.00  0.00    -0.156 OA 
BRANCH   9  11
HETATM   11  O   UNL     1     -10.771   8.282  72.103  1.00  0.00    -0.269 OA 
BRANCH  11  12
HETATM   12  C   UNL     1     -10.447   9.655  71.811  1.00  0.00     0.450 C  
BRANCH  12  13
HETATM   13  C   UNL     1     -10.185   9.827  70.335  1.00  0.00    -0.343 A  
HETATM   14  C   UNL     1      -9.028   9.300  69.746  1.00  0.00    -0.180 A  
HETATM   15  C   UNL     1      -8.711   9.591  68.417  1.00  0.00    -0.124 A  
HETATM   16  C   UNL     1      -9.547  10.416  67.652  1.00  0.00    -0.168 A  
HETATM   17  C   UNL     1     -10.758  10.851  68.213  1.00  0.00    -0.244 A  
HETATM   18  C   UNL     1      -9.106  10.855  66.258  1.00  0.00    -0.192 C  
HETATM   19  C   UNL     1     -11.064  10.576  69.547  1.00  0.00    -0.320 A  
HETATM   20  C   UNL     1      -9.604  12.271  65.904  1.00  0.00    -0.198 C  
HETATM   21  C   UNL     1      -9.556   9.828  65.193  1.00  0.00    -0.287 C  
HETATM   22  O   UNL     1     -10.352  12.456  64.944  1.00  0.00    -0.280 OA 
HETATM   23  N   UNL     1      -9.061  10.135  63.842  1.00  0.00    -0.238 NA 
HETATM   24  N   UNL     1      -9.164  13.266  66.770  1.00  0.00    -0.269 N  
HETATM   25  H1  UNL     1      -9.357   9.457  63.140  1.00  0.00     0.000 HD 
HETATM   26  H2  UNL     1      -8.046  10.236  63.843  1.00  0.00     0.000 HD 
HETATM   27  H   UNL     1      -8.581  12.979  67.556  1.00  0.00     0.000 HD 
BRANCH  24  28
HETATM   28  C   UNL     1      -9.458  14.646  66.649  1.00  0.00    -0.278 A  
HETATM   29  C   UNL     1     -10.765  15.131  66.575  1.00  0.00    -0.310 A  
HETATM   30  C   UNL     1     -11.022  16.500  66.496  1.00  0.00     0.071 A  
HETATM   31  C   UNL     1      -9.967  17.418  66.473  1.00  0.00    -0.314 A  
HETATM   32  C   UNL     1     -10.179  18.797  66.406  1.00  0.00    -0.421 A  
HETATM   33  N   UNL     1      -9.195  19.721  66.363  1.00  0.00    -0.374 NA 
HETATM   34  C   UNL     1      -7.931  19.251  66.390  1.00  0.00    -0.299 A  
HETATM   35  C   UNL     1      -7.605  17.903  66.467  1.00  0.00    -0.285 A  
HETATM   36  C   UNL     1      -8.637  16.954  66.511  1.00  0.00    -0.305 A  
HETATM   37  C   UNL     1      -8.396  15.564  66.596  1.00  0.00    -0.286 A  
ENDBRANCH  24  28
ENDBRANCH  12  13
ENDBRANCH  11  12
ENDBRANCH   9  11
ENDBRANCH   6   9
TORSDOF 5
ENDMDL
MODEL      132
REMARK 921   NORMALIZED FREE ENERGY PREDICTED BY IDOCK:   -4.11 KCAL/MOL
REMARK 922        TOTAL FREE ENERGY PREDICTED BY IDOCK:   -7.54 KCAL/MOL
REMARK 923 INTER-LIGAND FREE ENERGY PREDICTED BY IDOCK:   -6.66 KCAL/MOL
REMARK 924 INTRA-LIGAND FREE ENERGY PREDICTED BY IDOCK:   -0.87 KCAL/MOL
REMARK 927      BINDING AFFINITY PREDICTED BY RF-SCORE:    0.00 PKD
ROOT
HETATM    1  C   UNL     1     -11.331   1.674  62.334  1.00  0.00    -0.227 C  
HETATM    2  C   UNL     1     -10.258   2.431  63.062  1.00  0.00    -0.122 A  
HETATM    3  C   UNL     1      -9.819   3.672  62.587  1.00  0.00    -0.123 A  
HETATM    4  C   UNL     1      -8.777   4.373  63.221  1.00  0.00    -0.121 A  
HETATM    5  C   UNL     1      -8.353   5.696  62.641  1.00  0.00    -0.091 C  
HETATM    6  C   UNL     1      -8.163   3.811  64.360  1.00  0.00    -0.090 A  
HETATM    7  C   UNL     1      -8.617   2.574  64.849  1.00  0.00    -0.100 A  
HETATM    8  C   UNL     1      -9.655   1.891  64.202  1.00  0.00    -0.132 A  
ENDROOT
BRANCH   6   9
HETATM    9  C   UNL     1      -7.000   4.495  65.008  1.00  0.00    -0.061 C  
HETATM   10  O   UNL     1      -5.835   4.205  64.786  1.00  0.00    -0.014 OA 
BRANCH   9  11
HETATM   11  O   UNL     1      -7.416   5.483  65.842  1.00  0.00    -0.079 OA 
BRANCH  11  12
HETATM   12  C   UNL     1      -6.997   5.317  67.210  1.00  0.00    -0.065 C  
BRANCH  12  13
HETATM   13  C   UNL     1      -6.860   6.662  67.881  1.00  0.00    -0.077 A  
HETATM   14  C   UNL     1      -6.892   6.774  69.277  1.00  0.00    -0.061 A  
HETATM   15  C   UNL     1      -6.921   8.029  69.889  1.00  0.00    -0.045 A  
HETATM   16  C   UNL     1      -6.918   9.197  69.114  1.00  0.00    -0.058 A  
HETATM   17  C   UNL     1      -6.776   9.080  67.723  1.00  0.00    -0.065 A  
HETATM   18  C   UNL     1      -7.113  10.553  69.790  1.00  0.00    -0.150 C  
HETATM   19  C   UNL     1      -6.767   7.826  67.111  1.00  0.00    -0.068 A  
HETATM   20  C   UNL     1      -7.877  11.548  68.895  1.00  0.00    -0.071 C  
HETATM   21  C   UNL     1      -5.755  11.140  70.238  1.00  0.00    -0.128 C  
HETATM   22  O   UNL     1      -7.356  12.605  68.538  1.00  0.00    -0.107 OA 
HETATM   23  N   UNL     1      -5.885  12.393  70.998  1.00  0.00    -0.520 NA 
HETATM   24  N   UNL     1      -9.149  11.126  68.523  1.00  0.00    -0.171 N  
HETATM   25  H1  UNL     1      -4.989  12.780  71.294  1.00  0.00     0.000 HD 
HETATM   26  H2  UNL     1      -6.507  12.268  71.797  1.00  0.00     0.000 HD 
HETATM   27  H   UNL     1      -9.452  10.208  68.849  1.00  0.00     0.000 HD 
BRANCH  24  28
HETATM   28  C   UNL     1     -10.059  11.866  67.730  1.00  0.00    -0.191 A  
HETATM   29  C   UNL     1     -10.866  12.876  68.257  1.00  0.00    -0.263 A  
HETATM   30  C   UNL     1     -11.724  13.613  67.440  1.00  0.00    -0.416 A  
HETATM   31  C   UNL     1     -11.803  13.342  66.071  1.00  0.00    -0.440 A  
HETATM   32  C   UNL     1     -12.640  14.063  65.215  1.00  0.00    -0.470 A  
HETATM   33  N   UNL     1     -12.765  13.827  63.890  1.00  0.00    -0.584 NA 
HETATM   34  C   UNL     1     -12.019  12.823  63.388  1.00  0.00    -0.535 A  
HETATM   35  C   UNL     1     -11.146  12.050  64.143  1.00  0.00    -0.431 A  
HETATM   36  C   UNL     1     -11.026  12.305  65.517  1.00  0.00    -0.337 A  
HETATM   37  C   UNL     1     -10.159  11.572  66.360  1.00  0.00    -0.250 A  
ENDBRANCH  24  28
ENDBRANCH  12  13
ENDBRANCH  11  12
ENDBRANCH   9  11
ENDBRANCH   6   9
TORSDOF 5
ENDMDL
MODEL      133
REMARK 921   NORMALIZED FREE ENERGY PREDICTED BY IDOCK:   -4.10 KCAL/MOL
REMARK 922        TOTAL FREE ENERGY PREDICTED BY IDOCK:   -7.52 KCAL/MOL
REMARK 923 INTER-LIGAND FREE ENERGY PREDICTED BY IDOCK:   -8.48 KCAL/MOL
REMARK 924 INTRA-LIGAND FREE ENERGY PREDICTED BY IDOCK:    0.95 KCAL/MOL
REMARK 927      BINDING AFFINITY PREDICTED BY RF-SCORE:    0.00 PKD
ROOT
HETATM    1  C   UNL     1     -12.179  11.170  71.433  1.00  0.00    -0.237 C  
HETATM    2  C   UNL     1     -11.520  10.206  70.489  1.00  0.00    -0.417 A  
HETATM    3  C   UNL     1     -10.480   9.380  70.930  1.00  0.00    -0.381 A  
HETATM    4  C   UNL     1      -9.812   8.509  70.051  1.00  0.00    -0.181 A  
HETATM    5  C   UNL     1      -8.694   7.663  70.600  1.00  0.00    -0.140 C  
HETATM    6  C   UNL     1     -10.201   8.468  68.695  1.00  0.00    -0.217 A  
HETATM    7  C   UNL     1     -11.259   9.282  68.256  1.00  0.00     0.202 A  
HETATM    8  C   UNL     1     -11.911  10.144  69.148  1.00  0.00     0.059 A  
ENDROOT
BRANCH   6   9
HETATM    9  C   UNL     1      -9.456   7.610  67.721  1.00  0.00    -0.142 C  
HETATM   10  O   UNL     1      -8.675   6.732  68.052  1.00  0.00    -0.119 OA 
BRANCH   9  11
HETATM   11  O   UNL     1      -9.783   7.926  66.441  1.00  0.00    -0.213 OA 
BRANCH  11  12
HETATM   12  C   UNL     1      -8.848   8.808  65.792  1.00  0.00    -0.195 C  
BRANCH  12  13
HETATM   13  C   UNL     1      -9.505  10.131  65.483  1.00  0.00    -0.286 A  
HETATM   14  C   UNL     1      -9.688  10.549  64.159  1.00  0.00    -0.388 A  
HETATM   15  C   UNL     1     -10.154  11.835  63.877  1.00  0.00    -0.399 A  
HETATM   16  C   UNL     1     -10.444  12.729  64.918  1.00  0.00    -0.342 A  
HETATM   17  C   UNL     1     -10.363  12.268  66.241  1.00  0.00    -0.257 A  
HETATM   18  C   UNL     1     -10.796  14.179  64.593  1.00  0.00    -0.401 C  
HETATM   19  C   UNL     1      -9.879  10.989  66.521  1.00  0.00    -0.241 A  
HETATM   20  C   UNL     1     -10.297  15.158  65.674  1.00  0.00    -0.357 C  
HETATM   21  C   UNL     1     -12.317  14.334  64.364  1.00  0.00    -0.391 C  
HETATM   22  O   UNL     1     -11.088  15.859  66.304  1.00  0.00    -0.182 OA 
HETATM   23  N   UNL     1     -12.706  15.686  63.934  1.00  0.00    -0.668 NA 
HETATM   24  N   UNL     1      -8.921  15.139  65.874  1.00  0.00    -0.425 N  
HETATM   25  H1  UNL     1     -13.709  15.789  63.782  1.00  0.00     0.000 HD 
HETATM   26  H2  UNL     1     -12.183  15.966  63.103  1.00  0.00     0.000 HD 
HETATM   27  H   UNL     1      -8.376  14.481  65.317  1.00  0.00     0.000 HD 
BRANCH  24  28
HETATM   28  C   UNL     1      -8.214  15.959  66.786  1.00  0.00    -0.272 A  
HETATM   29  C   UNL     1      -7.032  15.548  67.406  1.00  0.00    -0.232 A  
HETATM   30  C   UNL     1      -6.339  16.395  68.270  1.00  0.00    -0.129 A  
HETATM   31  C   UNL     1      -6.827  17.676  68.548  1.00  0.00    -0.223 A  
HETATM   32  C   UNL     1      -6.160  18.561  69.398  1.00  0.00    -0.259 A  
HETATM   33  N   UNL     1      -6.600  19.799  69.711  1.00  0.00    -0.344 NA 
HETATM   34  C   UNL     1      -7.764  20.181  69.149  1.00  0.00     0.173 A  
HETATM   35  C   UNL     1      -8.505  19.388  68.281  1.00  0.00    -0.376 A  
HETATM   36  C   UNL     1      -8.036  18.104  67.964  1.00  0.00    -0.264 A  
HETATM   37  C   UNL     1      -8.722  17.233  67.087  1.00  0.00    -0.231 A  
ENDBRANCH  24  28
ENDBRANCH  12  13
ENDBRANCH  11  12
ENDBRANCH   9  11
ENDBRANCH   6   9
TORSDOF 5
ENDMDL
MODEL      134
REMARK 921   NORMALIZED FREE ENERGY PREDICTED BY IDOCK:   -4.10 KCAL/MOL
REMARK 922        TOTAL FREE ENERGY PREDICTED BY IDOCK:   -7.52 KCAL/MOL
REMARK 923 INTER-LIGAND FREE ENERGY PREDICTED BY IDOCK:   -6.64 KCAL/MOL
REMARK 924 INTRA-LIGAND FREE ENERGY PREDICTED BY IDOCK:   -0.88 KCAL/MOL
REMARK 927      BINDING AFFINITY PREDICTED BY RF-SCORE:    0.00 PKD
ROOT
HETATM    1  C   UNL     1      -7.124   7.984  66.902  1.00  0.00    -0.081 C  
HETATM    2  C   UNL     1      -7.613   7.379  68.186  1.00  0.00    -0.114 A  
HETATM    3  C   UNL     1      -8.490   6.288  68.167  1.00  0.00    -0.114 A  
HETATM    4  C   UNL     1      -9.004   5.739  69.356  1.00  0.00    -0.121 A  
HETATM    5  C   UNL     1      -9.953   4.576  69.251  1.00  0.00    -0.192 C  
HETATM    6  C   UNL     1      -8.626   6.303  70.593  1.00  0.00    -0.139 A  
HETATM    7  C   UNL     1      -7.730   7.385  70.613  1.00  0.00    -0.091 A  
HETATM    8  C   UNL     1      -7.230   7.918  69.418  1.00  0.00    -0.079 A  
ENDROOT
BRANCH   6   9
HETATM    9  C   UNL     1      -9.219   5.792  71.869  1.00  0.00    -0.144 C  
HETATM   10  O   UNL     1      -8.579   5.632  72.897  1.00  0.00    -0.122 OA 
BRANCH   9  11
HETATM   11  O   UNL     1     -10.549   5.557  71.730  1.00  0.00    -0.225 OA 
BRANCH  11  12
HETATM   12  C   UNL     1     -11.355   6.057  72.814  1.00  0.00    -0.242 C  
BRANCH  12  13
HETATM   13  C   UNL     1     -11.793   7.473  72.529  1.00  0.00    -0.266 A  
HETATM   14  C   UNL     1     -13.141   7.840  72.628  1.00  0.00     0.341 A  
HETATM   15  C   UNL     1     -13.565   9.106  72.217  1.00  0.00    -0.548 A  
HETATM   16  C   UNL     1     -12.647  10.028  71.696  1.00  0.00    -0.524 A  
HETATM   17  C   UNL     1     -11.284   9.694  71.701  1.00  0.00    -0.287 A  
HETATM   18  C   UNL     1     -13.149  11.342  71.102  1.00  0.00    -0.216 C  
HETATM   19  C   UNL     1     -10.864   8.423  72.094  1.00  0.00    -0.407 A  
HETATM   20  C   UNL     1     -12.279  11.822  69.923  1.00  0.00    -0.223 C  
HETATM   21  C   UNL     1     -13.252  12.432  72.194  1.00  0.00    -0.385 C  
HETATM   22  O   UNL     1     -11.687  12.901  69.973  1.00  0.00    -0.289 OA 
HETATM   23  N   UNL     1     -13.839  13.690  71.708  1.00  0.00    -0.333 NA 
HETATM   24  N   UNL     1     -12.211  10.929  68.859  1.00  0.00    -0.435 N  
HETATM   25  H1  UNL     1     -13.907  14.409  72.429  1.00  0.00     0.000 HD 
HETATM   26  H2  UNL     1     -14.748  13.522  71.277  1.00  0.00     0.000 HD 
HETATM   27  H   UNL     1     -12.714  10.046  68.957  1.00  0.00     0.000 HD 
BRANCH  24  28
HETATM   28  C   UNL     1     -11.503  11.144  67.653  1.00  0.00    -0.250 A  
HETATM   29  C   UNL     1     -10.202  10.680  67.453  1.00  0.00    -0.243 A  
HETATM   30  C   UNL     1      -9.546  10.875  66.237  1.00  0.00    -0.234 A  
HETATM   31  C   UNL     1     -10.178  11.558  65.194  1.00  0.00    -0.322 A  
HETATM   32  C   UNL     1      -9.563  11.766  63.957  1.00  0.00    -0.095 A  
HETATM   33  N   UNL     1     -10.125  12.434  62.925  1.00  0.00     0.174 NA 
HETATM   34  C   UNL     1     -11.365  12.921  63.133  1.00  0.00     0.153 A  
HETATM   35  C   UNL     1     -12.074  12.764  64.317  1.00  0.00    -0.497 A  
HETATM   36  C   UNL     1     -11.479  12.068  65.380  1.00  0.00    -0.361 A  
HETATM   37  C   UNL     1     -12.129  11.857  66.617  1.00  0.00     0.276 A  
ENDBRANCH  24  28
ENDBRANCH  12  13
ENDBRANCH  11  12
ENDBRANCH   9  11
ENDBRANCH   6   9
TORSDOF 5
ENDMDL
MODEL      135
REMARK 921   NORMALIZED FREE ENERGY PREDICTED BY IDOCK:   -4.05 KCAL/MOL
REMARK 922        TOTAL FREE ENERGY PREDICTED BY IDOCK:   -7.46 KCAL/MOL
REMARK 923 INTER-LIGAND FREE ENERGY PREDICTED BY IDOCK:   -6.75 KCAL/MOL
REMARK 924 INTRA-LIGAND FREE ENERGY PREDICTED BY IDOCK:   -0.71 KCAL/MOL
REMARK 927      BINDING AFFINITY PREDICTED BY RF-SCORE:    0.00 PKD
ROOT
HETATM    1  C   UNL     1      -9.553  18.475  68.363  1.00  0.00    -0.383 C  
HETATM    2  C   UNL     1     -10.238  17.226  67.887  1.00  0.00    -0.332 A  
HETATM    3  C   UNL     1     -10.046  16.766  66.580  1.00  0.00    -0.322 A  
HETATM    4  C   UNL     1     -10.719  15.631  66.095  1.00  0.00    -0.305 A  
HETATM    5  C   UNL     1     -10.469  15.208  64.672  1.00  0.00    -0.086 C  
HETATM    6  C   UNL     1     -11.608  14.942  66.948  1.00  0.00    -0.286 A  
HETATM    7  C   UNL     1     -11.786  15.391  68.267  1.00  0.00    -0.313 A  
HETATM    8  C   UNL     1     -11.106  16.525  68.730  1.00  0.00    -0.309 A  
ENDROOT
BRANCH   6   9
HETATM    9  C   UNL     1     -12.398  13.778  66.435  1.00  0.00    -0.412 C  
HETATM   10  O   UNL     1     -13.428  13.892  65.789  1.00  0.00    -0.464 OA 
BRANCH   9  11
HETATM   11  O   UNL     1     -11.806  12.601  66.765  1.00  0.00    -0.388 OA 
BRANCH  11  12
HETATM   12  C   UNL     1     -11.870  12.278  68.166  1.00  0.00    -0.311 C  
BRANCH  12  13
HETATM   13  C   UNL     1     -10.729  11.367  68.546  1.00  0.00    -0.235 A  
HETATM   14  C   UNL     1      -9.404  11.820  68.498  1.00  0.00    -0.158 A  
HETATM   15  C   UNL     1      -8.343  10.935  68.700  1.00  0.00    -0.148 A  
HETATM   16  C   UNL     1      -8.588   9.578  68.953  1.00  0.00    -0.128 A  
HETATM   17  C   UNL     1      -9.917   9.153  69.107  1.00  0.00    -0.189 A  
HETATM   18  C   UNL     1      -7.420   8.596  69.009  1.00  0.00    -0.089 C  
HETATM   19  C   UNL     1     -10.976  10.034  68.886  1.00  0.00    -0.244 A  
HETATM   20  C   UNL     1      -7.802   7.199  68.480  1.00  0.00    -0.122 C  
HETATM   21  C   UNL     1      -6.849   8.507  70.444  1.00  0.00    -0.037 C  
HETATM   22  O   UNL     1      -7.737   6.209  69.208  1.00  0.00    -0.095 OA 
HETATM   23  N   UNL     1      -5.647   7.665  70.541  1.00  0.00    -0.023 NA 
HETATM   24  N   UNL     1      -8.242   7.187  67.161  1.00  0.00    -0.117 N  
HETATM   25  H1  UNL     1      -5.271   7.607  71.488  1.00  0.00     0.000 HD 
HETATM   26  H2  UNL     1      -4.932   7.978  69.885  1.00  0.00     0.000 HD 
HETATM   27  H   UNL     1      -8.292   8.082  66.675  1.00  0.00     0.000 HD 
BRANCH  24  28
HETATM   28  C   UNL     1      -8.625   6.033  66.436  1.00  0.00    -0.129 A  
HETATM   29  C   UNL     1      -9.949   5.593  66.370  1.00  0.00    -0.189 A  
HETATM   30  C   UNL     1     -10.299   4.474  65.615  1.00  0.00    -0.274 A  
HETATM   31  C   UNL     1      -9.322   3.756  64.918  1.00  0.00    -0.156 A  
HETATM   32  C   UNL     1      -9.630   2.636  64.141  1.00  0.00    -0.144 A  
HETATM   33  N   UNL     1      -8.721   1.900  63.465  1.00  0.00    -0.083 NA 
HETATM   34  C   UNL     1      -7.436   2.298  63.565  1.00  0.00    -0.054 A  
HETATM   35  C   UNL     1      -7.019   3.400  64.299  1.00  0.00    -0.049 A  
HETATM   36  C   UNL     1      -7.974   4.156  64.996  1.00  0.00    -0.093 A  
HETATM   37  C   UNL     1      -7.638   5.296  65.762  1.00  0.00    -0.083 A  
ENDBRANCH  24  28
ENDBRANCH  12  13
ENDBRANCH  11  12
ENDBRANCH   9  11
ENDBRANCH   6   9
TORSDOF 5
ENDMDL
MODEL      136
REMARK 921   NORMALIZED FREE ENERGY PREDICTED BY IDOCK:   -4.05 KCAL/MOL
REMARK 922        TOTAL FREE ENERGY PREDICTED BY IDOCK:   -7.45 KCAL/MOL
REMARK 923 INTER-LIGAND FREE ENERGY PREDICTED BY IDOCK:   -6.11 KCAL/MOL
REMARK 924 INTRA-LIGAND FREE ENERGY PREDICTED BY IDOCK:   -1.35 KCAL/MOL
REMARK 927      BINDING AFFINITY PREDICTED BY RF-SCORE:    0.00 PKD
ROOT
HETATM    1  C   UNL     1     -12.889  12.828  70.140  1.00  0.00     0.346 C  
HETATM    2  C   UNL     1     -12.033  12.273  69.038  1.00  0.00    -0.300 A  
HETATM    3  C   UNL     1     -11.441  13.126  68.101  1.00  0.00    -0.349 A  
HETATM    4  C   UNL     1     -10.681  12.625  67.029  1.00  0.00    -0.268 A  
HETATM    5  C   UNL     1     -10.089  13.607  66.054  1.00  0.00    -0.320 C  
HETATM    6  C   UNL     1     -10.514  11.229  66.898  1.00  0.00    -0.286 A  
HETATM    7  C   UNL     1     -11.091  10.373  67.850  1.00  0.00    -0.363 A  
HETATM    8  C   UNL     1     -11.846  10.893  68.910  1.00  0.00    -0.340 A  
ENDROOT
BRANCH   6   9
HETATM    9  C   UNL     1      -9.778  10.664  65.724  1.00  0.00    -0.221 C  
HETATM   10  O   UNL     1      -9.934  11.052  64.577  1.00  0.00    -0.258 OA 
BRANCH   9  11
HETATM   11  O   UNL     1      -8.912   9.691  66.111  1.00  0.00    -0.144 OA 
BRANCH  11  12
HETATM   12  C   UNL     1      -7.524  10.051  65.985  1.00  0.00    -0.112 C  
BRANCH  12  13
HETATM   13  C   UNL     1      -7.108  10.937  67.133  1.00  0.00    -0.103 A  
HETATM   14  C   UNL     1      -7.667  10.771  68.407  1.00  0.00    -0.113 A  
HETATM   15  C   UNL     1      -7.397  11.687  69.427  1.00  0.00     0.093 A  
HETATM   16  C   UNL     1      -6.562  12.788  69.190  1.00  0.00    -0.101 A  
HETATM   17  C   UNL     1      -5.920  12.888  67.946  1.00  0.00    -0.125 A  
HETATM   18  C   UNL     1      -6.407  13.864  70.262  1.00  0.00    -0.067 C  
HETATM   19  C   UNL     1      -6.205  11.984  66.922  1.00  0.00    -0.074 A  
HETATM   20  C   UNL     1      -6.209  15.268  69.658  1.00  0.00    -0.147 C  
HETATM   21  C   UNL     1      -5.255  13.510  71.230  1.00  0.00    -0.178 C  
HETATM   22  O   UNL     1      -5.183  15.912  69.881  1.00  0.00    -0.111 OA 
HETATM   23  N   UNL     1      -5.129  14.449  72.355  1.00  0.00    -0.200 NA 
HETATM   24  N   UNL     1      -7.252  15.695  68.843  1.00  0.00    -0.135 N  
HETATM   25  H1  UNL     1      -4.369  14.215  72.994  1.00  0.00     0.000 HD 
HETATM   26  H2  UNL     1      -6.013  14.532  72.858  1.00  0.00     0.000 HD 
HETATM   27  H   UNL     1      -8.030  15.050  68.703  1.00  0.00     0.000 HD 
BRANCH  24  28
HETATM   28  C   UNL     1      -7.324  16.951  68.194  1.00  0.00    -0.179 A  
HETATM   29  C   UNL     1      -8.167  17.975  68.630  1.00  0.00    -0.287 A  
HETATM   30  C   UNL     1      -8.184  19.215  67.991  1.00  0.00    -0.339 A  
HETATM   31  C   UNL     1      -7.364  19.453  66.884  1.00  0.00    -0.232 A  
HETATM   32  C   UNL     1      -7.341  20.682  66.222  1.00  0.00    -0.072 A  
HETATM   33  N   UNL     1      -6.580  20.954  65.139  1.00  0.00    -0.167 NA 
HETATM   34  C   UNL     1      -5.798  19.952  64.691  1.00  0.00    -0.238 A  
HETATM   35  C   UNL     1      -5.733  18.695  65.278  1.00  0.00    -0.260 A  
HETATM   36  C   UNL     1      -6.528  18.426  66.402  1.00  0.00    -0.235 A  
HETATM   37  C   UNL     1      -6.520  17.177  67.065  1.00  0.00    -0.225 A  
ENDBRANCH  24  28
ENDBRANCH  12  13
ENDBRANCH  11  12
ENDBRANCH   9  11
ENDBRANCH   6   9
TORSDOF 5
ENDMDL
MODEL      137
REMARK 921   NORMALIZED FREE ENERGY PREDICTED BY IDOCK:   -4.00 KCAL/MOL
REMARK 922        TOTAL FREE ENERGY PREDICTED BY IDOCK:   -7.40 KCAL/MOL
REMARK 923 INTER-LIGAND FREE ENERGY PREDICTED BY IDOCK:   -5.90 KCAL/MOL
REMARK 924 INTRA-LIGAND FREE ENERGY PREDICTED BY IDOCK:   -1.50 KCAL/MOL
REMARK 927      BINDING AFFINITY PREDICTED BY RF-SCORE:    0.00 PKD
ROOT
HETATM    1  C   UNL     1      -7.116   7.194  69.115  1.00  0.00    -0.083 C  
HETATM    2  C   UNL     1      -7.103   7.740  67.716  1.00  0.00    -0.082 A  
HETATM    3  C   UNL     1      -7.621   6.987  66.656  1.00  0.00    -0.089 A  
HETATM    4  C   UNL     1      -7.571   7.455  65.331  1.00  0.00    -0.096 A  
HETATM    5  C   UNL     1      -8.137   6.580  64.244  1.00  0.00    -0.051 C  
HETATM    6  C   UNL     1      -6.983   8.711  65.066  1.00  0.00    -0.076 A  
HETATM    7  C   UNL     1      -6.481   9.475  66.132  1.00  0.00    -0.070 A  
HETATM    8  C   UNL     1      -6.540   8.991  67.446  1.00  0.00    -0.065 A  
ENDROOT
BRANCH   6   9
HETATM    9  C   UNL     1      -6.843   9.198  63.658  1.00  0.00    -0.090 C  
HETATM   10  O   UNL     1      -6.201   8.613  62.800  1.00  0.00    -0.090 OA 
BRANCH   9  11
HETATM   11  O   UNL     1      -7.537  10.349  63.467  1.00  0.00    -0.131 OA 
BRANCH  11  12
HETATM   12  C   UNL     1      -8.967  10.184  63.459  1.00  0.00    -0.245 C  
BRANCH  12  13
HETATM   13  C   UNL     1      -9.582  10.890  64.642  1.00  0.00    -0.305 A  
HETATM   14  C   UNL     1      -9.162  12.174  65.009  1.00  0.00     0.335 A  
HETATM   15  C   UNL     1      -9.619  12.762  66.191  1.00  0.00    -0.214 A  
HETATM   16  C   UNL     1     -10.507  12.073  67.029  1.00  0.00    -0.248 A  
HETATM   17  C   UNL     1     -11.008  10.834  66.602  1.00  0.00    -0.173 A  
HETATM   18  C   UNL     1     -10.869  12.660  68.391  1.00  0.00    -0.268 C  
HETATM   19  C   UNL     1     -10.536  10.239  65.431  1.00  0.00    -0.125 A  
HETATM   20  C   UNL     1     -11.109  11.568  69.454  1.00  0.00    -0.226 C  
HETATM   21  C   UNL     1     -12.093  13.597  68.275  1.00  0.00    -0.271 C  
HETATM   22  O   UNL     1     -12.202  11.458  70.010  1.00  0.00    -0.309 OA 
HETATM   23  N   UNL     1     -12.422  14.285  69.533  1.00  0.00    -0.518 NA 
HETATM   24  N   UNL     1     -10.017  10.737  69.679  1.00  0.00    -0.442 N  
HETATM   25  H1  UNL     1     -13.229  14.904  69.456  1.00  0.00     0.000 HD 
HETATM   26  H2  UNL     1     -11.612  14.789  69.893  1.00  0.00     0.000 HD 
HETATM   27  H   UNL     1      -9.179  10.904  69.122  1.00  0.00     0.000 HD 
BRANCH  24  28
HETATM   28  C   UNL     1      -9.973   9.680  70.619  1.00  0.00    -0.231 A  
HETATM   29  C   UNL     1     -11.115   8.985  71.022  1.00  0.00    -0.356 A  
HETATM   30  C   UNL     1     -11.031   7.921  71.921  1.00  0.00    -0.308 A  
HETATM   31  C   UNL     1      -9.796   7.538  72.451  1.00  0.00    -0.219 A  
HETATM   32  C   UNL     1      -9.665   6.472  73.345  1.00  0.00    -0.169 A  
HETATM   33  N   UNL     1      -8.498   6.076  73.897  1.00  0.00    -0.117 NA 
HETATM   34  C   UNL     1      -7.400   6.774  73.543  1.00  0.00    -0.078 A  
HETATM   35  C   UNL     1      -7.412   7.842  72.655  1.00  0.00    -0.127 A  
HETATM   36  C   UNL     1      -8.631   8.243  72.088  1.00  0.00    -0.249 A  
HETATM   37  C   UNL     1      -8.734   9.316  71.173  1.00  0.00    -0.113 A  
ENDBRANCH  24  28
ENDBRANCH  12  13
ENDBRANCH  11  12
ENDBRANCH   9  11
ENDBRANCH   6   9
TORSDOF 5
ENDMDL
MODEL      138
REMARK 921   NORMALIZED FREE ENERGY PREDICTED BY IDOCK:   -3.94 KCAL/MOL
REMARK 922        TOTAL FREE ENERGY PREDICTED BY IDOCK:   -7.32 KCAL/MOL
REMARK 923 INTER-LIGAND FREE ENERGY PREDICTED BY IDOCK:   -6.44 KCAL/MOL
REMARK 924 INTRA-LIGAND FREE ENERGY PREDICTED BY IDOCK:   -0.88 KCAL/MOL
REMARK 927      BINDING AFFINITY PREDICTED BY RF-SCORE:    0.00 PKD
ROOT
HETATM    1  C   UNL     1     -10.583   5.385  66.507  1.00  0.00    -0.353 C  
HETATM    2  C   UNL     1     -10.303   5.658  67.956  1.00  0.00    -0.258 A  
HETATM    3  C   UNL     1      -9.006   5.529  68.464  1.00  0.00    -0.114 A  
HETATM    4  C   UNL     1      -8.730   5.727  69.829  1.00  0.00    -0.127 A  
HETATM    5  C   UNL     1      -7.310   5.556  70.301  1.00  0.00    -0.068 C  
HETATM    6  C   UNL     1      -9.786   6.062  70.703  1.00  0.00    -0.222 A  
HETATM    7  C   UNL     1     -11.085   6.211  70.190  1.00  0.00    -0.448 A  
HETATM    8  C   UNL     1     -11.340   6.009  68.827  1.00  0.00    -0.037 A  
ENDROOT
BRANCH   6   9
HETATM    9  C   UNL     1      -9.536   6.199  72.173  1.00  0.00    -0.150 C  
HETATM   10  O   UNL     1      -8.973   5.350  72.846  1.00  0.00    -0.122 OA 
BRANCH   9  11
HETATM   11  O   UNL     1      -9.995   7.390  72.638  1.00  0.00    -0.172 OA 
BRANCH  11  12
HETATM   12  C   UNL     1      -8.998   8.428  72.692  1.00  0.00    -0.234 C  
BRANCH  12  13
HETATM   13  C   UNL     1      -8.574   8.818  71.298  1.00  0.00    -0.258 A  
HETATM   14  C   UNL     1      -7.230   8.749  70.911  1.00  0.00    -0.083 A  
HETATM   15  C   UNL     1      -6.819   9.255  69.675  1.00  0.00    -0.055 A  
HETATM   16  C   UNL     1      -7.747   9.841  68.803  1.00  0.00    -0.081 A  
HETATM   17  C   UNL     1      -9.107   9.808  69.150  1.00  0.00    -0.166 A  
HETATM   18  C   UNL     1      -7.259  10.532  67.533  1.00  0.00    -0.090 C  
HETATM   19  C   UNL     1      -9.514   9.320  70.392  1.00  0.00    -0.292 A  
HETATM   20  C   UNL     1      -8.135  11.742  67.150  1.00  0.00    -0.169 C  
HETATM   21  C   UNL     1      -7.165   9.525  66.363  1.00  0.00    -0.089 C  
HETATM   22  O   UNL     1      -8.738  11.771  66.077  1.00  0.00    -0.126 OA 
HETATM   23  N   UNL     1      -6.591  10.104  65.139  1.00  0.00    -0.119 NA 
HETATM   24  N   UNL     1      -8.195  12.736  68.121  1.00  0.00    -0.160 N  
HETATM   25  H1  UNL     1      -6.529   9.440  64.368  1.00  0.00     0.000 HD 
HETATM   26  H2  UNL     1      -5.681  10.524  65.331  1.00  0.00     0.000 HD 
HETATM   27  H   UNL     1      -7.684  12.574  68.989  1.00  0.00     0.000 HD 
BRANCH  24  28
HETATM   28  C   UNL     1      -8.907  13.954  68.004  1.00  0.00    -0.184 A  
HETATM   29  C   UNL     1     -10.258  14.003  67.656  1.00  0.00    -0.241 A  
HETATM   30  C   UNL     1     -10.941  15.218  67.586  1.00  0.00    -0.311 A  
HETATM   31  C   UNL     1     -10.276  16.419  67.851  1.00  0.00    -0.268 A  
HETATM   32  C   UNL     1     -10.923  17.656  67.804  1.00  0.00    -0.103 A  
HETATM   33  N   UNL     1     -10.320  18.844  68.033  1.00  0.00    -0.391 NA 
HETATM   34  C   UNL     1      -9.005  18.801  68.325  1.00  0.00    -0.324 A  
HETATM   35  C   UNL     1      -8.265  17.628  68.410  1.00  0.00    -0.289 A  
HETATM   36  C   UNL     1      -8.903  16.402  68.170  1.00  0.00    -0.192 A  
HETATM   37  C   UNL     1      -8.229  15.161  68.240  1.00  0.00    -0.144 A  
ENDBRANCH  24  28
ENDBRANCH  12  13
ENDBRANCH  11  12
ENDBRANCH   9  11
ENDBRANCH   6   9
TORSDOF 5
ENDMDL
MODEL      139
REMARK 921   NORMALIZED FREE ENERGY PREDICTED BY IDOCK:   -3.94 KCAL/MOL
REMARK 922        TOTAL FREE ENERGY PREDICTED BY IDOCK:   -7.32 KCAL/MOL
REMARK 923 INTER-LIGAND FREE ENERGY PREDICTED BY IDOCK:   -6.50 KCAL/MOL
REMARK 924 INTRA-LIGAND FREE ENERGY PREDICTED BY IDOCK:   -0.82 KCAL/MOL
REMARK 927      BINDING AFFINITY PREDICTED BY RF-SCORE:    0.00 PKD
ROOT
HETATM    1  C   UNL     1      -5.440   2.689  64.046  1.00  0.00    -0.009 C  
HETATM    2  C   UNL     1      -6.262   3.588  64.923  1.00  0.00    -0.024 A  
HETATM    3  C   UNL     1      -6.520   3.240  66.253  1.00  0.00    -0.036 A  
HETATM    4  C   UNL     1      -7.333   4.040  67.077  1.00  0.00    -0.072 A  
HETATM    5  C   UNL     1      -7.574   3.590  68.493  1.00  0.00    -0.053 C  
HETATM    6  C   UNL     1      -7.900   5.219  66.547  1.00  0.00    -0.100 A  
HETATM    7  C   UNL     1      -7.625   5.579  65.217  1.00  0.00    -0.080 A  
HETATM    8  C   UNL     1      -6.814   4.768  64.413  1.00  0.00    -0.049 A  
ENDROOT
BRANCH   6   9
HETATM    9  C   UNL     1      -8.833   6.046  67.374  1.00  0.00    -0.106 C  
HETATM   10  O   UNL     1     -10.038   5.856  67.430  1.00  0.00    -0.138 OA 
BRANCH   9  11
HETATM   11  O   UNL     1      -8.159   7.006  68.059  1.00  0.00    -0.116 OA 
BRANCH  11  12
HETATM   12  C   UNL     1      -7.500   7.976  67.224  1.00  0.00    -0.093 C  
BRANCH  12  13
HETATM   13  C   UNL     1      -8.465   9.066  66.827  1.00  0.00    -0.121 A  
HETATM   14  C   UNL     1      -8.947   9.154  65.515  1.00  0.00    -0.252 A  
HETATM   15  C   UNL     1      -9.715  10.249  65.112  1.00  0.00    -0.364 A  
HETATM   16  C   UNL     1     -10.015  11.278  66.016  1.00  0.00    -0.273 A  
HETATM   17  C   UNL     1      -9.622  11.130  67.355  1.00  0.00    -0.183 A  
HETATM   18  C   UNL     1     -10.715  12.540  65.519  1.00  0.00    -0.303 C  
HETATM   19  C   UNL     1      -8.838  10.046  67.752  1.00  0.00    -0.125 A  
HETATM   20  C   UNL     1     -10.266  13.799  66.287  1.00  0.00    -0.297 C  
HETATM   21  C   UNL     1     -12.251  12.373  65.579  1.00  0.00    -0.286 C  
HETATM   22  O   UNL     1     -11.074  14.468  66.931  1.00  0.00    -0.309 OA 
HETATM   23  N   UNL     1     -12.983  13.513  65.005  1.00  0.00    -0.735 NA 
HETATM   24  N   UNL     1      -8.903  14.066  66.204  1.00  0.00    -0.385 N  
HETATM   25  H1  UNL     1     -13.997  13.403  65.045  1.00  0.00     0.000 HD 
HETATM   26  H2  UNL     1     -12.676  13.697  64.051  1.00  0.00     0.000 HD 
HETATM   27  H   UNL     1      -8.330  13.411  65.673  1.00  0.00     0.000 HD 
BRANCH  24  28
HETATM   28  C   UNL     1      -8.248  15.172  66.796  1.00  0.00    -0.137 A  
HETATM   29  C   UNL     1      -8.293  16.455  66.246  1.00  0.00    -0.362 A  
HETATM   30  C   UNL     1      -7.669  17.532  66.875  1.00  0.00    -0.248 A  
HETATM   31  C   UNL     1      -6.967  17.343  68.070  1.00  0.00    -0.187 A  
HETATM   32  C   UNL     1      -6.337  18.395  68.739  1.00  0.00    -0.220 A  
HETATM   33  N   UNL     1      -5.633  18.260  69.884  1.00  0.00    -0.225 NA 
HETATM   34  C   UNL     1      -5.551  17.014  70.393  1.00  0.00    -0.180 A  
HETATM   35  C   UNL     1      -6.147  15.899  69.818  1.00  0.00    -0.169 A  
HETATM   36  C   UNL     1      -6.875  16.053  68.629  1.00  0.00    -0.131 A  
HETATM   37  C   UNL     1      -7.518  14.975  67.980  1.00  0.00    -0.130 A  
ENDBRANCH  24  28
ENDBRANCH  12  13
ENDBRANCH  11  12
ENDBRANCH   9  11
ENDBRANCH   6   9
TORSDOF 5
ENDMDL
MODEL      140
REMARK 921   NORMALIZED FREE ENERGY PREDICTED BY IDOCK:   -3.88 KCAL/MOL
REMARK 922        TOTAL FREE ENERGY PREDICTED BY IDOCK:   -7.24 KCAL/MOL
REMARK 923 INTER-LIGAND FREE ENERGY PREDICTED BY IDOCK:   -5.86 KCAL/MOL
REMARK 924 INTRA-LIGAND FREE ENERGY PREDICTED BY IDOCK:   -1.39 KCAL/MOL
REMARK 927      BINDING AFFINITY PREDICTED BY RF-SCORE:    0.00 PKD
ROOT
HETATM    1  C   UNL     1     -11.412   5.998  67.649  1.00  0.00     0.598 C  
HETATM    2  C   UNL     1     -10.032   6.362  68.115  1.00  0.00    -0.143 A  
HETATM    3  C   UNL     1      -8.946   6.298  67.236  1.00  0.00    -0.113 A  
HETATM    4  C   UNL     1      -7.637   6.582  67.665  1.00  0.00    -0.105 A  
HETATM    5  C   UNL     1      -6.520   6.478  66.661  1.00  0.00    -0.043 C  
HETATM    6  C   UNL     1      -7.417   6.939  69.013  1.00  0.00    -0.095 A  
HETATM    7  C   UNL     1      -8.510   7.022  69.891  1.00  0.00    -0.140 A  
HETATM    8  C   UNL     1      -9.806   6.734  69.445  1.00  0.00    -0.162 A  
ENDROOT
BRANCH   6   9
HETATM    9  C   UNL     1      -6.026   7.168  69.516  1.00  0.00    -0.026 C  
HETATM   10  O   UNL     1      -5.126   6.348  69.416  1.00  0.00    -0.011 OA 
BRANCH   9  11
HETATM   11  O   UNL     1      -5.903   8.402  70.068  1.00  0.00    -0.025 OA 
BRANCH  11  12
HETATM   12  C   UNL     1      -5.352   9.395  69.182  1.00  0.00    -0.036 C  
BRANCH  12  13
HETATM   13  C   UNL     1      -6.381   9.810  68.159  1.00  0.00    -0.055 A  
HETATM   14  C   UNL     1      -6.105   9.723  66.789  1.00  0.00    -0.063 A  
HETATM   15  C   UNL     1      -6.995  10.249  65.850  1.00  0.00    -0.126 A  
HETATM   16  C   UNL     1      -8.179  10.874  66.265  1.00  0.00    -0.165 A  
HETATM   17  C   UNL     1      -8.501  10.860  67.631  1.00  0.00    -0.123 A  
HETATM   18  C   UNL     1      -9.059  11.585  65.240  1.00  0.00    -0.027 C  
HETATM   19  C   UNL     1      -7.603  10.352  68.570  1.00  0.00    -0.095 A  
HETATM   20  C   UNL     1      -9.766  12.821  65.832  1.00  0.00    -0.198 C  
HETATM   21  C   UNL     1     -10.082  10.604  64.624  1.00  0.00    -0.349 C  
HETATM   22  O   UNL     1     -10.995  12.887  65.870  1.00  0.00    -0.272 OA 
HETATM   23  N   UNL     1     -10.884  11.200  63.544  1.00  0.00    -0.640 NA 
HETATM   24  N   UNL     1      -8.903  13.793  66.327  1.00  0.00    -0.438 N  
HETATM   25  H1  UNL     1     -11.559  10.553  63.137  1.00  0.00     0.000 HD 
HETATM   26  H2  UNL     1     -10.282  11.597  62.823  1.00  0.00     0.000 HD 
HETATM   27  H   UNL     1      -7.903  13.600  66.276  1.00  0.00     0.000 HD 
BRANCH  24  28
HETATM   28  C   UNL     1      -9.300  15.027  66.895  1.00  0.00    -0.241 A  
HETATM   29  C   UNL     1      -9.432  15.212  68.273  1.00  0.00    -0.201 A  
HETATM   30  C   UNL     1      -9.787  16.452  68.803  1.00  0.00    -0.250 A  
HETATM   31  C   UNL     1     -10.034  17.538  67.958  1.00  0.00    -0.310 A  
HETATM   32  C   UNL     1     -10.381  18.800  68.447  1.00  0.00    -0.307 A  
HETATM   33  N   UNL     1     -10.647  19.874  67.671  1.00  0.00    -0.384 NA 
HETATM   34  C   UNL     1     -10.563  19.685  66.339  1.00  0.00    -0.486 A  
HETATM   35  C   UNL     1     -10.216  18.479  65.745  1.00  0.00    -0.127 A  
HETATM   36  C   UNL     1      -9.942  17.372  66.562  1.00  0.00    -0.314 A  
HETATM   37  C   UNL     1      -9.577  16.108  66.043  1.00  0.00    -0.381 A  
ENDBRANCH  24  28
ENDBRANCH  12  13
ENDBRANCH  11  12
ENDBRANCH   9  11
ENDBRANCH   6   9
TORSDOF 5
ENDMDL
MODEL      141
REMARK 921   NORMALIZED FREE ENERGY PREDICTED BY IDOCK:   -3.80 KCAL/MOL
REMARK 922        TOTAL FREE ENERGY PREDICTED BY IDOCK:   -7.14 KCAL/MOL
REMARK 923 INTER-LIGAND FREE ENERGY PREDICTED BY IDOCK:   -7.10 KCAL/MOL
REMARK 924 INTRA-LIGAND FREE ENERGY PREDICTED BY IDOCK:   -0.05 KCAL/MOL
REMARK 927      BINDING AFFINITY PREDICTED BY RF-SCORE:    0.00 PKD
ROOT
HETATM    1  C   UNL     1      -9.565  18.494  68.369  1.00  0.00    -0.383 C  
HETATM    2  C   UNL     1     -10.174  17.215  67.871  1.00  0.00    -0.330 A  
HETATM    3  C   UNL     1      -9.963  16.796  66.552  1.00  0.00    -0.308 A  
HETATM    4  C   UNL     1     -10.568  15.631  66.048  1.00  0.00    -0.336 A  
HETATM    5  C   UNL     1     -10.303  15.255  64.614  1.00  0.00     0.066 C  
HETATM    6  C   UNL     1     -11.405  14.869  66.891  1.00  0.00    -0.338 A  
HETATM    7  C   UNL     1     -11.600  15.279  68.221  1.00  0.00    -0.357 A  
HETATM    8  C   UNL     1     -10.990  16.444  68.704  1.00  0.00    -0.345 A  
ENDROOT
BRANCH   6   9
HETATM    9  C   UNL     1     -12.124  13.670  66.359  1.00  0.00    -0.433 C  
HETATM   10  O   UNL     1     -13.184  13.729  65.754  1.00  0.00    -0.467 OA 
BRANCH   9  11
HETATM   11  O   UNL     1     -11.434  12.530  66.618  1.00  0.00    -0.317 OA 
BRANCH  11  12
HETATM   12  C   UNL     1     -10.004  12.668  66.519  1.00  0.00    -0.251 C  
BRANCH  12  13
HETATM   13  C   UNL     1      -9.373  11.340  66.179  1.00  0.00    -0.230 A  
HETATM   14  C   UNL     1      -9.632  10.716  64.952  1.00  0.00    -0.323 A  
HETATM   15  C   UNL     1      -9.173   9.421  64.701  1.00  0.00    -0.185 A  
HETATM   16  C   UNL     1      -8.445   8.725  65.676  1.00  0.00    -0.174 A  
HETATM   17  C   UNL     1      -8.096   9.395  66.859  1.00  0.00    -0.109 A  
HETATM   18  C   UNL     1      -8.092   7.257  65.451  1.00  0.00    -0.133 C  
HETATM   19  C   UNL     1      -8.572  10.681  67.116  1.00  0.00    -0.127 A  
HETATM   20  C   UNL     1      -8.074   6.450  66.765  1.00  0.00    -0.109 C  
HETATM   21  C   UNL     1      -6.744   7.128  64.705  1.00  0.00    -0.046 C  
HETATM   22  O   UNL     1      -7.045   5.897  67.153  1.00  0.00    -0.067 OA 
HETATM   23  N   UNL     1      -6.403   5.740  64.355  1.00  0.00    -0.032 NA 
HETATM   24  N   UNL     1      -9.284   6.446  67.451  1.00  0.00    -0.117 N  
HETATM   25  H1  UNL     1      -5.514   5.655  63.862  1.00  0.00     0.000 HD 
HETATM   26  H2  UNL     1      -7.156   5.306  63.822  1.00  0.00     0.000 HD 
HETATM   27  H   UNL     1     -10.054   6.980  67.047  1.00  0.00     0.000 HD 
BRANCH  24  28
HETATM   28  C   UNL     1      -9.535   5.761  68.664  1.00  0.00    -0.123 A  
HETATM   29  C   UNL     1      -9.948   6.416  69.826  1.00  0.00    -0.196 A  
HETATM   30  C   UNL     1     -10.225   5.707  70.994  1.00  0.00    -0.281 A  
HETATM   31  C   UNL     1     -10.079   4.316  71.029  1.00  0.00    -0.165 A  
HETATM   32  C   UNL     1     -10.356   3.565  72.174  1.00  0.00    -0.020 A  
HETATM   33  N   UNL     1     -10.213   2.225  72.263  1.00  0.00    -0.158 NA 
HETATM   34  C   UNL     1      -9.772   1.596  71.155  1.00  0.00    -0.120 A  
HETATM   35  C   UNL     1      -9.477   2.240  69.960  1.00  0.00    -0.131 A  
HETATM   36  C   UNL     1      -9.630   3.632  69.882  1.00  0.00    -0.238 A  
HETATM   37  C   UNL     1      -9.359   4.368  68.705  1.00  0.00    -0.213 A  
ENDBRANCH  24  28
ENDBRANCH  12  13
ENDBRANCH  11  12
ENDBRANCH   9  11
ENDBRANCH   6   9
TORSDOF 5
ENDMDL
MODEL      142
REMARK 921   NORMALIZED FREE ENERGY PREDICTED BY IDOCK:   -3.80 KCAL/MOL
REMARK 922        TOTAL FREE ENERGY PREDICTED BY IDOCK:   -7.14 KCAL/MOL
REMARK 923 INTER-LIGAND FREE ENERGY PREDICTED BY IDOCK:   -7.83 KCAL/MOL
REMARK 924 INTRA-LIGAND FREE ENERGY PREDICTED BY IDOCK:    0.70 KCAL/MOL
REMARK 927      BINDING AFFINITY PREDICTED BY RF-SCORE:    0.00 PKD
ROOT
HETATM    1  C   UNL     1      -5.125   9.952  62.365  1.00  0.00    -0.085 C  
HETATM    2  C   UNL     1      -6.368  10.006  63.206  1.00  0.00    -0.135 A  
HETATM    3  C   UNL     1      -6.289   9.880  64.597  1.00  0.00    -0.117 A  
HETATM    4  C   UNL     1      -7.444   9.874  65.400  1.00  0.00    -0.132 A  
HETATM    5  C   UNL     1      -7.276   9.719  66.888  1.00  0.00    -0.090 C  
HETATM    6  C   UNL     1      -8.709   9.997  64.786  1.00  0.00    -0.206 A  
HETATM    7  C   UNL     1      -8.787  10.143  63.391  1.00  0.00    -0.240 A  
HETATM    8  C   UNL     1      -7.625  10.146  62.609  1.00  0.00    -0.146 A  
ENDROOT
BRANCH   6   9
HETATM    9  C   UNL     1      -9.958   9.912  65.606  1.00  0.00    -0.283 C  
HETATM   10  O   UNL     1     -10.387   8.872  66.081  1.00  0.00    -0.187 OA 
BRANCH   9  11
HETATM   11  O   UNL     1     -10.524  11.136  65.763  1.00  0.00    -0.249 OA 
BRANCH  11  12
HETATM   12  C   UNL     1     -10.108  11.833  66.952  1.00  0.00    -0.207 C  
BRANCH  12  13
HETATM   13  C   UNL     1     -10.803  11.260  68.163  1.00  0.00    -0.263 A  
HETATM   14  C   UNL     1     -11.435  12.098  69.091  1.00  0.00    -0.352 A  
HETATM   15  C   UNL     1     -11.941  11.581  70.286  1.00  0.00    -0.455 A  
HETATM   16  C   UNL     1     -11.824  10.215  70.575  1.00  0.00    -0.408 A  
HETATM   17  C   UNL     1     -11.289   9.365  69.594  1.00  0.00    -0.023 A  
HETATM   18  C   UNL     1     -12.235   9.695  71.950  1.00  0.00    -0.413 C  
HETATM   19  C   UNL     1     -10.765   9.885  68.410  1.00  0.00    -0.271 A  
HETATM   20  C   UNL     1     -11.364   8.510  72.413  1.00  0.00    -0.342 C  
HETATM   21  C   UNL     1     -13.735   9.319  71.966  1.00  0.00    -0.428 C  
HETATM   22  O   UNL     1     -11.865   7.408  72.639  1.00  0.00    -0.237 OA 
HETATM   23  N   UNL     1     -14.221   8.919  73.296  1.00  0.00    -1.237 NA 
HETATM   24  N   UNL     1     -10.007   8.799  72.510  1.00  0.00    -0.183 N  
HETATM   25  H1  UNL     1     -15.210   8.671  73.307  1.00  0.00     0.000 HD 
HETATM   26  H2  UNL     1     -14.021   9.642  73.987  1.00  0.00     0.000 HD 
HETATM   27  H   UNL     1      -9.710   9.741  72.253  1.00  0.00     0.000 HD 
BRANCH  24  28
HETATM   28  C   UNL     1      -9.005   7.895  72.936  1.00  0.00    -0.213 A  
HETATM   29  C   UNL     1      -8.170   8.157  74.023  1.00  0.00    -0.314 A  
HETATM   30  C   UNL     1      -7.218   7.227  74.442  1.00  0.00    -0.122 A  
HETATM   31  C   UNL     1      -7.071   6.012  73.765  1.00  0.00    -0.081 A  
HETATM   32  C   UNL     1      -6.139   5.048  74.157  1.00  0.00    -0.055 A  
HETATM   33  N   UNL     1      -5.946   3.869  73.526  1.00  0.00    -0.007 NA 
HETATM   34  C   UNL     1      -6.722   3.634  72.448  1.00  0.00    -0.029 A  
HETATM   35  C   UNL     1      -7.687   4.515  71.978  1.00  0.00    -0.089 A  
HETATM   36  C   UNL     1      -7.876   5.736  72.643  1.00  0.00    -0.102 A  
HETATM   37  C   UNL     1      -8.839   6.688  72.236  1.00  0.00    -0.133 A  
ENDBRANCH  24  28
ENDBRANCH  12  13
ENDBRANCH  11  12
ENDBRANCH   9  11
ENDBRANCH   6   9
TORSDOF 5
ENDMDL
MODEL      143
REMARK 921   NORMALIZED FREE ENERGY PREDICTED BY IDOCK:   -3.77 KCAL/MOL
REMARK 922        TOTAL FREE ENERGY PREDICTED BY IDOCK:   -7.10 KCAL/MOL
REMARK 923 INTER-LIGAND FREE ENERGY PREDICTED BY IDOCK:   -6.77 KCAL/MOL
REMARK 924 INTRA-LIGAND FREE ENERGY PREDICTED BY IDOCK:   -0.33 KCAL/MOL
REMARK 927      BINDING AFFINITY PREDICTED BY RF-SCORE:    0.00 PKD
ROOT
HETATM    1  C   UNL     1     -10.328  20.427  67.601  1.00  0.00    -0.330 C  
HETATM    2  C   UNL     1      -9.832  19.014  67.505  1.00  0.00    -0.386 A  
HETATM    3  C   UNL     1     -10.311  18.160  66.504  1.00  0.00    -0.397 A  
HETATM    4  C   UNL     1      -9.902  16.817  66.428  1.00  0.00    -0.312 A  
HETATM    5  C   UNL     1     -10.473  15.959  65.331  1.00  0.00    -0.429 C  
HETATM    6  C   UNL     1      -8.988  16.321  67.383  1.00  0.00    -0.197 A  
HETATM    7  C   UNL     1      -8.492  17.182  68.376  1.00  0.00    -0.241 A  
HETATM    8  C   UNL     1      -8.913  18.517  68.435  1.00  0.00    -0.346 A  
ENDROOT
BRANCH   6   9
HETATM    9  C   UNL     1      -8.597  14.876  67.375  1.00  0.00    -0.193 C  
HETATM   10  O   UNL     1      -7.449  14.486  67.233  1.00  0.00    -0.191 OA 
BRANCH   9  11
HETATM   11  O   UNL     1      -9.677  14.075  67.568  1.00  0.00    -0.224 OA 
BRANCH  11  12
HETATM   12  C   UNL     1      -9.778  12.983  66.635  1.00  0.00    -0.256 C  
BRANCH  12  13
HETATM   13  C   UNL     1      -9.963  11.681  67.373  1.00  0.00    -0.200 A  
HETATM   14  C   UNL     1      -9.418  11.497  68.651  1.00  0.00    -0.146 A  
HETATM   15  C   UNL     1      -9.457  10.244  69.266  1.00  0.00    -0.230 A  
HETATM   16  C   UNL     1     -10.041   9.149  68.614  1.00  0.00    -0.212 A  
HETATM   17  C   UNL     1     -10.681   9.365  67.383  1.00  0.00    -0.280 A  
HETATM   18  C   UNL     1      -9.932   7.756  69.228  1.00  0.00    -0.182 C  
HETATM   19  C   UNL     1     -10.625  10.612  66.760  1.00  0.00    -0.297 A  
HETATM   20  C   UNL     1      -9.840   6.650  68.158  1.00  0.00    -0.132 C  
HETATM   21  C   UNL     1     -11.107   7.492  70.198  1.00  0.00    -0.231 C  
HETATM   22  O   UNL     1     -10.697   5.768  68.086  1.00  0.00    -0.240 OA 
HETATM   23  N   UNL     1     -10.997   6.210  70.911  1.00  0.00    -0.283 NA 
HETATM   24  N   UNL     1      -8.752   6.770  67.301  1.00  0.00    -0.119 N  
HETATM   25  H1  UNL     1     -11.772   6.036  71.551  1.00  0.00     0.000 HD 
HETATM   26  H2  UNL     1     -10.103   6.142  71.397  1.00  0.00     0.000 HD 
HETATM   27  H   UNL     1      -8.135   7.571  67.437  1.00  0.00     0.000 HD 
BRANCH  24  28
HETATM   28  C   UNL     1      -8.430   5.872  66.255  1.00  0.00    -0.128 A  
HETATM   29  C   UNL     1      -8.502   6.231  64.908  1.00  0.00    -0.017 A  
HETATM   30  C   UNL     1      -8.141   5.335  63.902  1.00  0.00    -0.117 A  
HETATM   31  C   UNL     1      -7.710   4.044  64.226  1.00  0.00    -0.084 A  
HETATM   32  C   UNL     1      -7.328   3.119  63.253  1.00  0.00    -0.053 A  
HETATM   33  N   UNL     1      -6.923   1.856  63.514  1.00  0.00    -0.034 NA 
HETATM   34  C   UNL     1      -6.895   1.494  64.812  1.00  0.00    -0.034 A  
HETATM   35  C   UNL     1      -7.243   2.335  65.862  1.00  0.00    -0.064 A  
HETATM   36  C   UNL     1      -7.661   3.643  65.576  1.00  0.00    -0.078 A  
HETATM   37  C   UNL     1      -8.027   4.567  66.582  1.00  0.00    -0.102 A  
ENDBRANCH  24  28
ENDBRANCH  12  13
ENDBRANCH  11  12
ENDBRANCH   9  11
ENDBRANCH   6   9
TORSDOF 5
ENDMDL
MODEL      144
REMARK 921   NORMALIZED FREE ENERGY PREDICTED BY IDOCK:   -3.77 KCAL/MOL
REMARK 922        TOTAL FREE ENERGY PREDICTED BY IDOCK:   -7.10 KCAL/MOL
REMARK 923 INTER-LIGAND FREE ENERGY PREDICTED BY IDOCK:   -6.50 KCAL/MOL
REMARK 924 INTRA-LIGAND FREE ENERGY PREDICTED BY IDOCK:   -0.60 KCAL/MOL
REMARK 927      BINDING AFFINITY PREDICTED BY RF-SCORE:    0.00 PKD
ROOT
HETATM    1  C   UNL     1      -9.793  17.839  68.022  1.00  0.00    -0.317 C  
HETATM    2  C   UNL     1     -10.432  16.574  67.527  1.00  0.00    -0.310 A  
HETATM    3  C   UNL     1     -10.219  16.138  66.214  1.00  0.00    -0.333 A  
HETATM    4  C   UNL     1     -10.851  14.987  65.712  1.00  0.00    -0.355 A  
HETATM    5  C   UNL     1     -10.581  14.591  64.284  1.00  0.00     0.372 C  
HETATM    6  C   UNL     1     -11.719  14.256  66.552  1.00  0.00    -0.409 A  
HETATM    7  C   UNL     1     -11.917  14.682  67.876  1.00  0.00    -0.299 A  
HETATM    8  C   UNL     1     -11.279  15.833  68.357  1.00  0.00    -0.362 A  
ENDROOT
BRANCH   6   9
HETATM    9  C   UNL     1     -12.467  13.074  66.021  1.00  0.00    -0.186 C  
HETATM   10  O   UNL     1     -13.452  13.162  65.305  1.00  0.00    -0.428 OA 
BRANCH   9  11
HETATM   11  O   UNL     1     -11.891  11.911  66.421  1.00  0.00    -0.561 OA 
BRANCH  11  12
HETATM   12  C   UNL     1     -12.126  11.578  67.802  1.00  0.00     0.189 C  
BRANCH  12  13
HETATM   13  C   UNL     1     -10.850  11.096  68.448  1.00  0.00    -0.248 A  
HETATM   14  C   UNL     1      -9.614  11.270  67.812  1.00  0.00    -0.181 A  
HETATM   15  C   UNL     1      -8.457  10.689  68.337  1.00  0.00    -0.132 A  
HETATM   16  C   UNL     1      -8.516   9.922  69.508  1.00  0.00    -0.184 A  
HETATM   17  C   UNL     1      -9.735   9.843  70.198  1.00  0.00    -0.255 A  
HETATM   18  C   UNL     1      -7.277   9.162  69.977  1.00  0.00    -0.066 C  
HETATM   19  C   UNL     1     -10.894  10.407  69.663  1.00  0.00    -0.320 A  
HETATM   20  C   UNL     1      -7.634   7.833  70.672  1.00  0.00    -0.078 C  
HETATM   21  C   UNL     1      -6.406  10.051  70.895  1.00  0.00    -0.029 C  
HETATM   22  O   UNL     1      -7.323   7.631  71.846  1.00  0.00    -0.065 OA 
HETATM   23  N   UNL     1      -5.139   9.416  71.289  1.00  0.00    -0.034 NA 
HETATM   24  N   UNL     1      -8.344   6.941  69.875  1.00  0.00    -0.137 N  
HETATM   25  H1  UNL     1      -4.564  10.002  71.894  1.00  0.00     0.000 HD 
HETATM   26  H2  UNL     1      -4.613   9.118  70.467  1.00  0.00     0.000 HD 
HETATM   27  H   UNL     1      -8.579   7.244  68.930  1.00  0.00     0.000 HD 
BRANCH  24  28
HETATM   28  C   UNL     1      -8.765   5.649  70.268  1.00  0.00    -0.131 A  
HETATM   29  C   UNL     1      -8.447   4.501  69.539  1.00  0.00    -0.093 A  
HETATM   30  C   UNL     1      -8.845   3.237  69.974  1.00  0.00    -0.149 A  
HETATM   31  C   UNL     1      -9.590   3.095  71.150  1.00  0.00    -0.230 A  
HETATM   32  C   UNL     1      -9.999   1.849  71.628  1.00  0.00    -0.131 A  
HETATM   33  N   UNL     1     -10.734   1.662  72.746  1.00  0.00    -0.150 NA 
HETATM   34  C   UNL     1     -11.080   2.773  73.427  1.00  0.00    -0.181 A  
HETATM   35  C   UNL     1     -10.718   4.060  73.050  1.00  0.00    -0.251 A  
HETATM   36  C   UNL     1      -9.955   4.239  71.887  1.00  0.00    -0.255 A  
HETATM   37  C   UNL     1      -9.538   5.512  71.432  1.00  0.00    -0.195 A  
ENDBRANCH  24  28
ENDBRANCH  12  13
ENDBRANCH  11  12
ENDBRANCH   9  11
ENDBRANCH   6   9
TORSDOF 5
ENDMDL
MODEL      145
REMARK 921   NORMALIZED FREE ENERGY PREDICTED BY IDOCK:   -3.76 KCAL/MOL
REMARK 922        TOTAL FREE ENERGY PREDICTED BY IDOCK:   -7.08 KCAL/MOL
REMARK 923 INTER-LIGAND FREE ENERGY PREDICTED BY IDOCK:   -5.89 KCAL/MOL
REMARK 924 INTRA-LIGAND FREE ENERGY PREDICTED BY IDOCK:   -1.19 KCAL/MOL
REMARK 927      BINDING AFFINITY PREDICTED BY RF-SCORE:    0.00 PKD
ROOT
HETATM    1  C   UNL     1      -9.059   8.037  73.309  1.00  0.00    -0.349 C  
HETATM    2  C   UNL     1      -8.224   6.816  73.057  1.00  0.00    -0.115 A  
HETATM    3  C   UNL     1      -8.793   5.540  73.126  1.00  0.00    -0.119 A  
HETATM    4  C   UNL     1      -8.018   4.380  72.947  1.00  0.00    -0.091 A  
HETATM    5  C   UNL     1      -8.702   3.043  73.051  1.00  0.00    -0.083 C  
HETATM    6  C   UNL     1      -6.636   4.509  72.693  1.00  0.00    -0.046 A  
HETATM    7  C   UNL     1      -6.067   5.790  72.603  1.00  0.00    -0.041 A  
HETATM    8  C   UNL     1      -6.857   6.933  72.785  1.00  0.00    -0.070 A  
ENDROOT
BRANCH   6   9
HETATM    9  C   UNL     1      -5.772   3.292  72.578  1.00  0.00    -0.008 C  
HETATM   10  O   UNL     1      -5.158   2.807  73.515  1.00  0.00     0.000 OA 
BRANCH   9  11
HETATM   11  O   UNL     1      -5.786   2.799  71.312  1.00  0.00    -0.012 OA 
BRANCH  11  12
HETATM   12  C   UNL     1      -5.319   3.723  70.312  1.00  0.00    -0.008 C  
BRANCH  12  13
HETATM   13  C   UNL     1      -6.387   3.951  69.271  1.00  0.00    -0.029 A  
HETATM   14  C   UNL     1      -6.085   3.877  67.905  1.00  0.00    -0.032 A  
HETATM   15  C   UNL     1      -7.035   4.238  66.946  1.00  0.00    -0.059 A  
HETATM   16  C   UNL     1      -8.306   4.680  67.337  1.00  0.00    -0.104 A  
HETATM   17  C   UNL     1      -8.638   4.647  68.701  1.00  0.00    -0.099 A  
HETATM   18  C   UNL     1      -9.273   5.223  66.288  1.00  0.00    -0.152 C  
HETATM   19  C   UNL     1      -7.683   4.306  69.658  1.00  0.00    -0.053 A  
HETATM   20  C   UNL     1     -10.170   6.347  66.844  1.00  0.00    -0.215 C  
HETATM   21  C   UNL     1     -10.125   4.081  65.687  1.00  0.00    -0.116 C  
HETATM   22  O   UNL     1     -11.395   6.222  66.871  1.00  0.00    -0.260 OA 
HETATM   23  N   UNL     1     -10.997   4.522  64.587  1.00  0.00    -0.575 NA 
HETATM   24  N   UNL     1      -9.475   7.452  67.323  1.00  0.00    -0.140 N  
HETATM   25  H1  UNL     1     -11.559   3.768  64.190  1.00  0.00     0.000 HD 
HETATM   26  H2  UNL     1     -10.455   4.990  63.862  1.00  0.00     0.000 HD 
HETATM   27  H   UNL     1      -8.456   7.416  67.285  1.00  0.00     0.000 HD 
BRANCH  24  28
HETATM   28  C   UNL     1     -10.065   8.622  67.859  1.00  0.00    -0.203 A  
HETATM   29  C   UNL     1     -10.325   8.775  69.222  1.00  0.00    -0.221 A  
HETATM   30  C   UNL     1     -10.871   9.957  69.722  1.00  0.00    -0.300 A  
HETATM   31  C   UNL     1     -11.186  11.012  68.860  1.00  0.00    -0.326 A  
HETATM   32  C   UNL     1     -11.723  12.217  69.320  1.00  0.00    -0.328 A  
HETATM   33  N   UNL     1     -12.060  13.257  68.526  1.00  0.00    -0.298 NA 
HETATM   34  C   UNL     1     -11.850  13.093  67.204  1.00  0.00    -0.369 A  
HETATM   35  C   UNL     1     -11.311  11.944  66.639  1.00  0.00    -0.400 A  
HETATM   36  C   UNL     1     -10.966  10.872  67.476  1.00  0.00    -0.352 A  
HETATM   37  C   UNL     1     -10.407   9.668  66.987  1.00  0.00    -0.315 A  
ENDBRANCH  24  28
ENDBRANCH  12  13
ENDBRANCH  11  12
ENDBRANCH   9  11
ENDBRANCH   6   9
TORSDOF 5
ENDMDL
MODEL      146
REMARK 921   NORMALIZED FREE ENERGY PREDICTED BY IDOCK:   -3.67 KCAL/MOL
REMARK 922        TOTAL FREE ENERGY PREDICTED BY IDOCK:   -6.96 KCAL/MOL
REMARK 923 INTER-LIGAND FREE ENERGY PREDICTED BY IDOCK:   -6.05 KCAL/MOL
REMARK 924 INTRA-LIGAND FREE ENERGY PREDICTED BY IDOCK:   -0.92 KCAL/MOL
REMARK 927      BINDING AFFINITY PREDICTED BY RF-SCORE:    0.00 PKD
ROOT
HETATM    1  C   UNL     1     -12.479   7.053  71.138  1.00  0.00    -0.407 C  
HETATM    2  C   UNL     1     -11.301   6.226  70.711  1.00  0.00    -0.397 A  
HETATM    3  C   UNL     1     -11.144   5.853  69.371  1.00  0.00    -0.369 A  
HETATM    4  C   UNL     1     -10.078   5.034  68.958  1.00  0.00    -0.238 A  
HETATM    5  C   UNL     1      -9.987   4.665  67.501  1.00  0.00    -0.174 C  
HETATM    6  C   UNL     1      -9.149   4.578  69.917  1.00  0.00    -0.165 A  
HETATM    7  C   UNL     1      -9.294   4.968  71.259  1.00  0.00    -0.197 A  
HETATM    8  C   UNL     1     -10.364   5.784  71.651  1.00  0.00    -0.266 A  
ENDROOT
BRANCH   6   9
HETATM    9  C   UNL     1      -8.052   3.640  69.520  1.00  0.00    -0.053 C  
HETATM   10  O   UNL     1      -8.155   2.424  69.555  1.00  0.00    -0.045 OA 
BRANCH   9  11
HETATM   11  O   UNL     1      -6.954   4.321  69.101  1.00  0.00    -0.048 OA 
BRANCH  11  12
HETATM   12  C   UNL     1      -6.591   4.074  67.730  1.00  0.00    -0.042 C  
BRANCH  12  13
HETATM   13  C   UNL     1      -6.499   5.375  66.971  1.00  0.00    -0.044 A  
HETATM   14  C   UNL     1      -5.276   6.044  66.840  1.00  0.00    -0.005 A  
HETATM   15  C   UNL     1      -5.220   7.319  66.273  1.00  0.00    -0.024 A  
HETATM   16  C   UNL     1      -6.390   7.950  65.826  1.00  0.00    -0.042 A  
HETATM   17  C   UNL     1      -7.595   7.230  65.860  1.00  0.00    -0.090 A  
HETATM   18  C   UNL     1      -6.335   9.402  65.360  1.00  0.00    -0.066 C  
HETATM   19  C   UNL     1      -7.653   5.965  66.445  1.00  0.00    -0.091 A  
HETATM   20  C   UNL     1      -7.631  10.171  65.685  1.00  0.00    -0.144 C  
HETATM   21  C   UNL     1      -6.010   9.480  63.850  1.00  0.00    -0.094 C  
HETATM   22  O   UNL     1      -8.318  10.659  64.788  1.00  0.00    -0.156 OA 
HETATM   23  N   UNL     1      -5.829  10.856  63.363  1.00  0.00    -0.365 NA 
HETATM   24  N   UNL     1      -7.943  10.222  67.040  1.00  0.00    -0.110 N  
HETATM   25  H1  UNL     1      -5.613  10.908  62.368  1.00  0.00     0.000 HD 
HETATM   26  H2  UNL     1      -5.121  11.344  63.913  1.00  0.00     0.000 HD 
HETATM   27  H   UNL     1      -7.315   9.740  67.683  1.00  0.00     0.000 HD 
BRANCH  24  28
HETATM   28  C   UNL     1      -9.061  10.886  67.599  1.00  0.00    -0.148 A  
HETATM   29  C   UNL     1     -10.245  10.222  67.923  1.00  0.00    -0.217 A  
HETATM   30  C   UNL     1     -11.315  10.900  68.508  1.00  0.00    -0.367 A  
HETATM   31  C   UNL     1     -11.226  12.271  68.770  1.00  0.00    -0.312 A  
HETATM   32  C   UNL     1     -12.268  12.986  69.365  1.00  0.00    -0.113 A  
HETATM   33  N   UNL     1     -12.237  14.312  69.621  1.00  0.00    -0.335 NA 
HETATM   34  C   UNL     1     -11.111  14.963  69.267  1.00  0.00    -0.271 A  
HETATM   35  C   UNL     1     -10.010  14.351  68.681  1.00  0.00    -0.241 A  
HETATM   36  C   UNL     1     -10.056  12.974  68.421  1.00  0.00    -0.225 A  
HETATM   37  C   UNL     1      -8.981  12.269  67.832  1.00  0.00    -0.186 A  
ENDBRANCH  24  28
ENDBRANCH  12  13
ENDBRANCH  11  12
ENDBRANCH   9  11
ENDBRANCH   6   9
TORSDOF 5
ENDMDL
MODEL      147
REMARK 921   NORMALIZED FREE ENERGY PREDICTED BY IDOCK:   -3.67 KCAL/MOL
REMARK 922        TOTAL FREE ENERGY PREDICTED BY IDOCK:   -6.96 KCAL/MOL
REMARK 923 INTER-LIGAND FREE ENERGY PREDICTED BY IDOCK:   -7.01 KCAL/MOL
REMARK 924 INTRA-LIGAND FREE ENERGY PREDICTED BY IDOCK:    0.05 KCAL/MOL
REMARK 927      BINDING AFFINITY PREDICTED BY RF-SCORE:    0.00 PKD
ROOT
HETATM    1  C   UNL     1      -5.135  14.942  69.000  1.00  0.00    -0.091 C  
HETATM    2  C   UNL     1      -5.705  16.172  68.356  1.00  0.00    -0.108 A  
HETATM    3  C   UNL     1      -5.975  17.313  69.120  1.00  0.00    -0.205 A  
HETATM    4  C   UNL     1      -6.559  18.458  68.548  1.00  0.00    -0.242 A  
HETATM    5  C   UNL     1      -6.832  19.639  69.440  1.00  0.00    -0.377 C  
HETATM    6  C   UNL     1      -6.879  18.453  67.174  1.00  0.00    -0.207 A  
HETATM    7  C   UNL     1      -6.589  17.316  66.402  1.00  0.00    -0.281 A  
HETATM    8  C   UNL     1      -6.008  16.185  66.991  1.00  0.00     0.029 A  
ENDROOT
BRANCH   6   9
HETATM    9  C   UNL     1      -7.574  19.626  66.556  1.00  0.00    -0.269 C  
HETATM   10  O   UNL     1      -7.159  20.772  66.626  1.00  0.00    -0.266 OA 
BRANCH   9  11
HETATM   11  O   UNL     1      -8.698  19.239  65.899  1.00  0.00    -0.443 OA 
BRANCH  11  12
HETATM   12  C   UNL     1      -9.692  18.624  66.740  1.00  0.00    -0.329 C  
BRANCH  12  13
HETATM   13  C   UNL     1      -9.958  17.209  66.287  1.00  0.00    -0.316 A  
HETATM   14  C   UNL     1     -10.810  16.950  65.206  1.00  0.00    -0.113 A  
HETATM   15  C   UNL     1     -11.175  15.640  64.887  1.00  0.00    -0.376 A  
HETATM   16  C   UNL     1     -10.693  14.564  65.644  1.00  0.00    -0.335 A  
HETATM   17  C   UNL     1      -9.754  14.822  66.655  1.00  0.00    -0.281 A  
HETATM   18  C   UNL     1     -11.227  13.157  65.385  1.00  0.00    -0.315 C  
HETATM   19  C   UNL     1      -9.406  16.132  66.986  1.00  0.00    -0.232 A  
HETATM   20  C   UNL     1     -11.293  12.309  66.671  1.00  0.00    -0.343 C  
HETATM   21  C   UNL     1     -10.390  12.447  64.296  1.00  0.00    -0.362 C  
HETATM   22  O   UNL     1     -10.643  11.269  66.775  1.00  0.00    -0.237 OA 
HETATM   23  N   UNL     1     -10.925  11.130  63.917  1.00  0.00    -0.514 NA 
HETATM   24  N   UNL     1     -12.103  12.842  67.668  1.00  0.00    -0.278 N  
HETATM   25  H1  UNL     1     -10.373  10.661  63.198  1.00  0.00     0.000 HD 
HETATM   26  H2  UNL     1     -11.902  11.204  63.634  1.00  0.00     0.000 HD 
HETATM   27  H   UNL     1     -12.556  13.736  67.476  1.00  0.00     0.000 HD 
BRANCH  24  28
HETATM   28  C   UNL     1     -12.350  12.246  68.928  1.00  0.00     0.255 A  
HETATM   29  C   UNL     1     -12.755  12.984  70.042  1.00  0.00     0.186 A  
HETATM   30  C   UNL     1     -13.029  12.360  71.259  1.00  0.00    -0.297 A  
HETATM   31  C   UNL     1     -12.886  10.976  71.393  1.00  0.00    -0.548 A  
HETATM   32  C   UNL     1     -13.160  10.309  72.589  1.00  0.00     0.537 A  
HETATM   33  N   UNL     1     -13.020   8.978  72.773  1.00  0.00    -0.295 NA 
HETATM   34  C   UNL     1     -12.586   8.270  71.710  1.00  0.00    -0.333 A  
HETATM   35  C   UNL     1     -12.296   8.827  70.472  1.00  0.00     0.258 A  
HETATM   36  C   UNL     1     -12.445  10.210  70.295  1.00  0.00    -0.174 A  
HETATM   37  C   UNL     1     -12.177  10.859  69.068  1.00  0.00    -0.112 A  
ENDBRANCH  24  28
ENDBRANCH  12  13
ENDBRANCH  11  12
ENDBRANCH   9  11
ENDBRANCH   6   9
TORSDOF 5
ENDMDL
MODEL      148
REMARK 921   NORMALIZED FREE ENERGY PREDICTED BY IDOCK:   -3.60 KCAL/MOL
REMARK 922        TOTAL FREE ENERGY PREDICTED BY IDOCK:   -6.88 KCAL/MOL
REMARK 923 INTER-LIGAND FREE ENERGY PREDICTED BY IDOCK:   -5.88 KCAL/MOL
REMARK 924 INTRA-LIGAND FREE ENERGY PREDICTED BY IDOCK:   -1.00 KCAL/MOL
REMARK 927      BINDING AFFINITY PREDICTED BY RF-SCORE:    0.00 PKD
ROOT
HETATM    1  C   UNL     1     -11.738  13.129  67.151  1.00  0.00    -0.430 C  
HETATM    2  C   UNL     1     -10.485  12.351  66.868  1.00  0.00    -0.243 A  
HETATM    3  C   UNL     1     -10.534  10.961  66.710  1.00  0.00    -0.302 A  
HETATM    4  C   UNL     1      -9.366  10.206  66.499  1.00  0.00    -0.200 A  
HETATM    5  C   UNL     1      -9.500   8.714  66.353  1.00  0.00    -0.295 C  
HETATM    6  C   UNL     1      -8.120  10.866  66.446  1.00  0.00    -0.164 A  
HETATM    7  C   UNL     1      -8.073  12.264  66.584  1.00  0.00     0.059 A  
HETATM    8  C   UNL     1      -9.248  12.998  66.795  1.00  0.00    -0.229 A  
ENDROOT
BRANCH   6   9
HETATM    9  C   UNL     1      -6.854  10.081  66.302  1.00  0.00    -0.099 C  
HETATM   10  O   UNL     1      -6.150   9.754  67.245  1.00  0.00    -0.054 OA 
BRANCH   9  11
HETATM   11  O   UNL     1      -6.616   9.768  65.002  1.00  0.00    -0.086 OA 
BRANCH  11  12
HETATM   12  C   UNL     1      -5.754   8.631  64.815  1.00  0.00    -0.058 C  
BRANCH  12  13
HETATM   13  C   UNL     1      -6.532   7.350  64.992  1.00  0.00    -0.037 A  
HETATM   14  C   UNL     1      -7.551   7.000  64.097  1.00  0.00    -0.112 A  
HETATM   15  C   UNL     1      -8.370   5.897  64.348  1.00  0.00    -0.048 A  
HETATM   16  C   UNL     1      -8.185   5.123  65.503  1.00  0.00    -0.121 A  
HETATM   17  C   UNL     1      -7.095   5.414  66.338  1.00  0.00    -0.069 A  
HETATM   18  C   UNL     1      -9.187   4.023  65.844  1.00  0.00    -0.152 C  
HETATM   19  C   UNL     1      -6.289   6.527  66.096  1.00  0.00    -0.042 A  
HETATM   20  C   UNL     1      -9.371   3.850  67.365  1.00  0.00    -0.191 C  
HETATM   21  C   UNL     1      -8.780   2.687  65.181  1.00  0.00    -0.113 C  
HETATM   22  O   UNL     1      -9.100   2.784  67.917  1.00  0.00    -0.144 OA 
HETATM   23  N   UNL     1      -9.768   1.615  65.377  1.00  0.00    -0.310 NA 
HETATM   24  N   UNL     1      -9.824   4.990  68.021  1.00  0.00    -0.153 N  
HETATM   25  H1  UNL     1      -9.499   0.734  64.939  1.00  0.00     0.000 HD 
HETATM   26  H2  UNL     1     -10.691   1.911  65.060  1.00  0.00     0.000 HD 
HETATM   27  H   UNL     1      -9.972   5.827  67.457  1.00  0.00     0.000 HD 
BRANCH  24  28
HETATM   28  C   UNL     1     -10.096   5.084  69.407  1.00  0.00    -0.218 A  
HETATM   29  C   UNL     1     -11.123   5.879  69.918  1.00  0.00    -0.417 A  
HETATM   30  C   UNL     1     -11.391   5.919  71.287  1.00  0.00    -0.238 A  
HETATM   31  C   UNL     1     -10.620   5.169  72.181  1.00  0.00    -0.273 A  
HETATM   32  C   UNL     1     -10.861   5.170  73.557  1.00  0.00    -0.303 A  
HETATM   33  N   UNL     1     -10.133   4.478  74.461  1.00  0.00    -0.199 NA 
HETATM   34  C   UNL     1      -9.113   3.745  73.973  1.00  0.00    -0.089 A  
HETATM   35  C   UNL     1      -8.791   3.661  72.624  1.00  0.00    -0.106 A  
HETATM   36  C   UNL     1      -9.555   4.384  71.696  1.00  0.00    -0.227 A  
HETATM   37  C   UNL     1      -9.301   4.353  70.306  1.00  0.00    -0.218 A  
ENDBRANCH  24  28
ENDBRANCH  12  13
ENDBRANCH  11  12
ENDBRANCH   9  11
ENDBRANCH   6   9
TORSDOF 5
ENDMDL
MODEL      149
REMARK 921   NORMALIZED FREE ENERGY PREDICTED BY IDOCK:   -3.60 KCAL/MOL
REMARK 922        TOTAL FREE ENERGY PREDICTED BY IDOCK:   -6.87 KCAL/MOL
REMARK 923 INTER-LIGAND FREE ENERGY PREDICTED BY IDOCK:   -5.14 KCAL/MOL
REMARK 924 INTRA-LIGAND FREE ENERGY PREDICTED BY IDOCK:   -1.73 KCAL/MOL
REMARK 927      BINDING AFFINITY PREDICTED BY RF-SCORE:    0.00 PKD
ROOT
HETATM    1  C   UNL     1     -10.128   4.952  69.235  1.00  0.00    -0.248 C  
HETATM    2  C   UNL     1      -9.349   4.988  67.952  1.00  0.00    -0.147 A  
HETATM    3  C   UNL     1      -9.914   4.507  66.765  1.00  0.00    -0.240 A  
HETATM    4  C   UNL     1      -9.183   4.481  65.564  1.00  0.00    -0.152 A  
HETATM    5  C   UNL     1      -9.857   3.936  64.333  1.00  0.00    -0.188 C  
HETATM    6  C   UNL     1      -7.852   4.949  65.558  1.00  0.00    -0.095 A  
HETATM    7  C   UNL     1      -7.291   5.450  66.744  1.00  0.00    -0.086 A  
HETATM    8  C   UNL     1      -8.035   5.466  67.931  1.00  0.00    -0.096 A  
ENDROOT
BRANCH   6   9
HETATM    9  C   UNL     1      -7.025   4.858  64.313  1.00  0.00    -0.049 C  
HETATM   10  O   UNL     1      -6.858   3.824  63.685  1.00  0.00    -0.041 OA 
BRANCH   9  11
HETATM   11  O   UNL     1      -6.514   6.070  63.976  1.00  0.00    -0.029 OA 
BRANCH  11  12
HETATM   12  C   UNL     1      -7.398   6.885  63.184  1.00  0.00    -0.076 C  
BRANCH  12  13
HETATM   13  C   UNL     1      -7.829   8.101  63.967  1.00  0.00    -0.143 A  
HETATM   14  C   UNL     1      -7.117   9.304  63.874  1.00  0.00    -0.095 A  
HETATM   15  C   UNL     1      -7.424  10.378  64.712  1.00  0.00    -0.049 A  
HETATM   16  C   UNL     1      -8.450  10.268  65.661  1.00  0.00    -0.165 A  
HETATM   17  C   UNL     1      -9.230   9.101  65.674  1.00  0.00    -0.296 A  
HETATM   18  C   UNL     1      -8.664  11.389  66.676  1.00  0.00    -0.178 C  
HETATM   19  C   UNL     1      -8.910   8.022  64.850  1.00  0.00     0.190 A  
HETATM   20  C   UNL     1      -9.157  10.859  68.038  1.00  0.00    -0.152 C  
HETATM   21  C   UNL     1      -9.632  12.456  66.115  1.00  0.00    -0.233 C  
HETATM   22  O   UNL     1     -10.245  11.209  68.495  1.00  0.00    -0.183 OA 
HETATM   23  N   UNL     1      -9.790  13.621  66.999  1.00  0.00    -0.245 NA 
HETATM   24  N   UNL     1      -8.292   9.957  68.649  1.00  0.00    -0.106 N  
HETATM   25  H1  UNL     1     -10.428  14.326  66.629  1.00  0.00     0.000 HD 
HETATM   26  H2  UNL     1      -8.883  14.033  67.220  1.00  0.00     0.000 HD 
HETATM   27  H   UNL     1      -7.438   9.714  68.147  1.00  0.00     0.000 HD 
BRANCH  24  28
HETATM   28  C   UNL     1      -8.499   9.350  69.910  1.00  0.00    -0.177 A  
HETATM   29  C   UNL     1      -7.545   9.388  70.929  1.00  0.00    -0.097 A  
HETATM   30  C   UNL     1      -7.797   8.813  72.174  1.00  0.00    -0.006 A  
HETATM   31  C   UNL     1      -9.013   8.168  72.423  1.00  0.00    -0.265 A  
HETATM   32  C   UNL     1      -9.310   7.589  73.659  1.00  0.00    -0.277 A  
HETATM   33  N   UNL     1     -10.462   6.940  73.942  1.00  0.00    -0.371 NA 
HETATM   34  C   UNL     1     -11.366   6.863  72.945  1.00  0.00    -0.162 A  
HETATM   35  C   UNL     1     -11.179   7.412  71.683  1.00  0.00    -0.276 A  
HETATM   36  C   UNL     1      -9.980   8.083  71.402  1.00  0.00    -0.221 A  
HETATM   37  C   UNL     1      -9.709   8.676  70.148  1.00  0.00    -0.182 A  
ENDBRANCH  24  28
ENDBRANCH  12  13
ENDBRANCH  11  12
ENDBRANCH   9  11
ENDBRANCH   6   9
TORSDOF 5
ENDMDL
MODEL      150
REMARK 921   NORMALIZED FREE ENERGY PREDICTED BY IDOCK:   -3.57 KCAL/MOL
REMARK 922        TOTAL FREE ENERGY PREDICTED BY IDOCK:   -6.84 KCAL/MOL
REMARK 923 INTER-LIGAND FREE ENERGY PREDICTED BY IDOCK:   -6.18 KCAL/MOL
REMARK 924 INTRA-LIGAND FREE ENERGY PREDICTED BY IDOCK:   -0.66 KCAL/MOL
REMARK 927      BINDING AFFINITY PREDICTED BY RF-SCORE:    0.00 PKD
ROOT
HETATM    1  C   UNL     1     -10.659  16.936  67.596  1.00  0.00    -0.325 C  
HETATM    2  C   UNL     1     -10.544  15.439  67.566  1.00  0.00    -0.283 A  
HETATM    3  C   UNL     1     -11.177  14.699  66.561  1.00  0.00    -0.346 A  
HETATM    4  C   UNL     1     -11.128  13.294  66.544  1.00  0.00    -0.313 A  
HETATM    5  C   UNL     1     -11.848  12.569  65.438  1.00  0.00    -0.479 C  
HETATM    6  C   UNL     1     -10.425  12.617  67.564  1.00  0.00    -0.229 A  
HETATM    7  C   UNL     1      -9.771  13.360  68.561  1.00  0.00    -0.156 A  
HETATM    8  C   UNL     1      -9.833  14.760  68.561  1.00  0.00    -0.218 A  
ENDROOT
BRANCH   6   9
HETATM    9  C   UNL     1     -10.423  11.121  67.616  1.00  0.00    -0.196 C  
HETATM   10  O   UNL     1      -9.639  10.423  66.992  1.00  0.00    -0.161 OA 
BRANCH   9  11
HETATM   11  O   UNL     1     -11.384  10.660  68.457  1.00  0.00    -0.268 OA 
BRANCH  11  12
HETATM   12  C   UNL     1     -10.981  10.598  69.838  1.00  0.00    -0.274 C  
BRANCH  12  13
HETATM   13  C   UNL     1     -10.568   9.193  70.200  1.00  0.00    -0.258 A  
HETATM   14  C   UNL     1      -9.598   8.961  71.184  1.00  0.00    -0.342 A  
HETATM   15  C   UNL     1      -9.107   7.673  71.408  1.00  0.00    -0.146 A  
HETATM   16  C   UNL     1      -9.577   6.591  70.650  1.00  0.00    -0.183 A  
HETATM   17  C   UNL     1     -10.626   6.813  69.743  1.00  0.00    -0.263 A  
HETATM   18  C   UNL     1      -8.916   5.223  70.794  1.00  0.00    -0.160 C  
HETATM   19  C   UNL     1     -11.102   8.102  69.506  1.00  0.00     0.040 A  
HETATM   20  C   UNL     1      -8.911   4.432  69.471  1.00  0.00    -0.089 C  
HETATM   21  C   UNL     1      -9.588   4.407  71.923  1.00  0.00    -0.151 C  
HETATM   22  O   UNL     1      -9.487   3.348  69.380  1.00  0.00    -0.171 OA 
HETATM   23  N   UNL     1      -8.922   3.123  72.190  1.00  0.00    -0.092 NA 
HETATM   24  N   UNL     1      -8.243   5.066  68.428  1.00  0.00    -0.086 N  
HETATM   25  H1  UNL     1      -9.366   2.585  72.935  1.00  0.00     0.000 HD 
HETATM   26  H2  UNL     1      -7.931   3.263  72.385  1.00  0.00     0.000 HD 
HETATM   27  H   UNL     1      -7.842   5.984  68.618  1.00  0.00     0.000 HD 
BRANCH  24  28
HETATM   28  C   UNL     1      -8.073   4.540  67.125  1.00  0.00    -0.102 A  
HETATM   29  C   UNL     1      -6.819   4.224  66.599  1.00  0.00    -0.055 A  
HETATM   30  C   UNL     1      -6.689   3.670  65.326  1.00  0.00    -0.045 A  
HETATM   31  C   UNL     1      -7.820   3.433  64.538  1.00  0.00    -0.082 A  
HETATM   32  C   UNL     1      -7.737   2.870  63.263  1.00  0.00    -0.064 A  
HETATM   33  N   UNL     1      -8.798   2.639  62.458  1.00  0.00    -0.078 NA 
HETATM   34  C   UNL     1     -10.006   2.985  62.947  1.00  0.00    -0.099 A  
HETATM   35  C   UNL     1     -10.206   3.540  64.204  1.00  0.00    -0.219 A  
HETATM   36  C   UNL     1      -9.096   3.774  65.029  1.00  0.00    -0.141 A  
HETATM   37  C   UNL     1      -9.209   4.331  66.324  1.00  0.00    -0.146 A  
ENDBRANCH  24  28
ENDBRANCH  12  13
ENDBRANCH  11  12
ENDBRANCH   9  11
ENDBRANCH   6   9
TORSDOF 5
ENDMDL
MODEL      151
REMARK 921   NORMALIZED FREE ENERGY PREDICTED BY IDOCK:   -3.56 KCAL/MOL
REMARK 922        TOTAL FREE ENERGY PREDICTED BY IDOCK:   -6.82 KCAL/MOL
REMARK 923 INTER-LIGAND FREE ENERGY PREDICTED BY IDOCK:   -4.46 KCAL/MOL
REMARK 924 INTRA-LIGAND FREE ENERGY PREDICTED BY IDOCK:   -2.36 KCAL/MOL
REMARK 927      BINDING AFFINITY PREDICTED BY RF-SCORE:    0.00 PKD
ROOT
HETATM    1  C   UNL     1      -5.697   6.986  68.539  1.00  0.00    -0.018 C  
HETATM    2  C   UNL     1      -6.111   7.775  67.331  1.00  0.00    -0.049 A  
HETATM    3  C   UNL     1      -6.774   7.151  66.269  1.00  0.00    -0.053 A  
HETATM    4  C   UNL     1      -7.122   7.859  65.104  1.00  0.00    -0.060 A  
HETATM    5  C   UNL     1      -7.821   7.113  63.999  1.00  0.00    -0.113 C  
HETATM    6  C   UNL     1      -6.795   9.228  65.008  1.00  0.00    -0.086 A  
HETATM    7  C   UNL     1      -6.147   9.860  66.082  1.00  0.00    -0.067 A  
HETATM    8  C   UNL     1      -5.807   9.137  67.233  1.00  0.00    -0.046 A  
ENDROOT
BRANCH   6   9
HETATM    9  C   UNL     1      -7.081   9.987  63.750  1.00  0.00    -0.129 C  
HETATM   10  O   UNL     1      -6.590   9.711  62.666  1.00  0.00    -0.098 OA 
BRANCH   9  11
HETATM   11  O   UNL     1      -7.965  10.993  63.975  1.00  0.00     0.249 OA 
BRANCH  11  12
HETATM   12  C   UNL     1      -9.342  10.574  64.012  1.00  0.00    -0.267 C  
BRANCH  12  13
HETATM   13  C   UNL     1      -9.872  10.644  65.423  1.00  0.00    -0.325 A  
HETATM   14  C   UNL     1      -9.594  11.747  66.240  1.00  0.00    -0.242 A  
HETATM   15  C   UNL     1      -9.953  11.741  67.590  1.00  0.00    -0.204 A  
HETATM   16  C   UNL     1     -10.597  10.629  68.148  1.00  0.00    -0.237 A  
HETATM   17  C   UNL     1     -10.970   9.574  67.301  1.00  0.00    -0.062 A  
HETATM   18  C   UNL     1     -10.837  10.571  69.655  1.00  0.00    -0.320 C  
HETATM   19  C   UNL     1     -10.594   9.572  65.957  1.00  0.00     0.194 A  
HETATM   20  C   UNL     1     -10.756   9.134  70.206  1.00  0.00    -0.231 C  
HETATM   21  C   UNL     1     -12.188  11.229  70.019  1.00  0.00    -0.314 C  
HETATM   22  O   UNL     1     -11.727   8.612  70.755  1.00  0.00    -0.277 OA 
HETATM   23  N   UNL     1     -12.425  11.309  71.469  1.00  0.00    -0.279 NA 
HETATM   24  N   UNL     1      -9.533   8.506  69.994  1.00  0.00    -0.163 N  
HETATM   25  H1  UNL     1     -13.316  11.743  71.710  1.00  0.00     0.000 HD 
HETATM   26  H2  UNL     1     -11.652  11.784  71.936  1.00  0.00     0.000 HD 
HETATM   27  H   UNL     1      -8.820   9.030  69.487  1.00  0.00     0.000 HD 
BRANCH  24  28
HETATM   28  C   UNL     1      -9.197   7.200  70.425  1.00  0.00    -0.156 A  
HETATM   29  C   UNL     1      -8.688   6.937  71.699  1.00  0.00    -0.124 A  
HETATM   30  C   UNL     1      -8.404   5.634  72.106  1.00  0.00    -0.115 A  
HETATM   31  C   UNL     1      -8.609   4.559  71.235  1.00  0.00    -0.128 A  
HETATM   32  C   UNL     1      -8.349   3.238  71.605  1.00  0.00    -0.061 A  
HETATM   33  N   UNL     1      -8.514   2.169  70.794  1.00  0.00    -0.049 NA 
HETATM   34  C   UNL     1      -8.963   2.427  69.549  1.00  0.00    -0.104 A  
HETATM   35  C   UNL     1      -9.265   3.699  69.079  1.00  0.00    -0.225 A  
HETATM   36  C   UNL     1      -9.089   4.799  69.932  1.00  0.00    -0.155 A  
HETATM   37  C   UNL     1      -9.376   6.126  69.538  1.00  0.00    -0.147 A  
ENDBRANCH  24  28
ENDBRANCH  12  13
ENDBRANCH  11  12
ENDBRANCH   9  11
ENDBRANCH   6   9
TORSDOF 5
ENDMDL
MODEL      152
REMARK 921   NORMALIZED FREE ENERGY PREDICTED BY IDOCK:   -3.56 KCAL/MOL
REMARK 922        TOTAL FREE ENERGY PREDICTED BY IDOCK:   -6.82 KCAL/MOL
REMARK 923 INTER-LIGAND FREE ENERGY PREDICTED BY IDOCK:   -4.65 KCAL/MOL
REMARK 924 INTRA-LIGAND FREE ENERGY PREDICTED BY IDOCK:   -2.17 KCAL/MOL
REMARK 927      BINDING AFFINITY PREDICTED BY RF-SCORE:    0.00 PKD
ROOT
HETATM    1  C   UNL     1      -8.685   6.728  65.402  1.00  0.00     0.005 C  
HETATM    2  C   UNL     1      -7.891   5.820  66.295  1.00  0.00    -0.101 A  
HETATM    3  C   UNL     1      -8.161   4.447  66.331  1.00  0.00    -0.102 A  
HETATM    4  C   UNL     1      -7.467   3.586  67.200  1.00  0.00    -0.074 A  
HETATM    5  C   UNL     1      -7.825   2.123  67.189  1.00  0.00    -0.066 C  
HETATM    6  C   UNL     1      -6.478   4.120  68.053  1.00  0.00    -0.038 A  
HETATM    7  C   UNL     1      -6.193   5.494  68.003  1.00  0.00    -0.037 A  
HETATM    8  C   UNL     1      -6.896   6.336  67.131  1.00  0.00    -0.066 A  
ENDROOT
BRANCH   6   9
HETATM    9  C   UNL     1      -5.780   3.241  69.044  1.00  0.00    -0.022 C  
HETATM   10  O   UNL     1      -5.175   2.225  68.740  1.00  0.00    -0.011 OA 
BRANCH   9  11
HETATM   11  O   UNL     1      -5.894   3.737  70.303  1.00  0.00    -0.016 OA 
BRANCH  11  12
HETATM   12  C   UNL     1      -6.977   3.174  71.066  1.00  0.00    -0.033 C  
BRANCH  12  13
HETATM   13  C   UNL     1      -8.185   4.076  71.004  1.00  0.00    -0.078 A  
HETATM   14  C   UNL     1      -9.343   3.679  70.324  1.00  0.00    -0.241 A  
HETATM   15  C   UNL     1     -10.400   4.574  70.137  1.00  0.00     0.061 A  
HETATM   16  C   UNL     1     -10.316   5.884  70.627  1.00  0.00    -0.296 A  
HETATM   17  C   UNL     1      -9.201   6.242  71.400  1.00  0.00    -0.153 A  
HETATM   18  C   UNL     1     -11.405   6.894  70.274  1.00  0.00    -0.373 C  
HETATM   19  C   UNL     1      -8.138   5.354  71.570  1.00  0.00    -0.117 A  
HETATM   20  C   UNL     1     -10.853   8.327  70.134  1.00  0.00    -0.237 C  
HETATM   21  C   UNL     1     -12.554   6.843  71.309  1.00  0.00    -0.345 C  
HETATM   22  O   UNL     1     -11.251   9.232  70.868  1.00  0.00    -0.260 OA 
HETATM   23  N   UNL     1     -13.689   7.711  70.962  1.00  0.00    -0.616 NA 
HETATM   24  N   UNL     1      -9.874   8.471  69.156  1.00  0.00    -0.181 N  
HETATM   25  H1  UNL     1     -14.447   7.677  71.644  1.00  0.00     0.000 HD 
HETATM   26  H2  UNL     1     -14.034   7.499  70.026  1.00  0.00     0.000 HD 
HETATM   27  H   UNL     1      -9.599   7.633  68.643  1.00  0.00     0.000 HD 
BRANCH  24  28
HETATM   28  C   UNL     1      -9.230   9.684  68.814  1.00  0.00    -0.141 A  
HETATM   29  C   UNL     1      -9.819  10.638  67.982  1.00  0.00    -0.177 A  
HETATM   30  C   UNL     1      -9.174  11.841  67.696  1.00  0.00    -0.180 A  
HETATM   31  C   UNL     1      -7.909  12.110  68.229  1.00  0.00    -0.153 A  
HETATM   32  C   UNL     1      -7.232  13.306  67.978  1.00  0.00    -0.121 A  
HETATM   33  N   UNL     1      -6.003  13.604  68.454  1.00  0.00    -0.088 NA 
HETATM   34  C   UNL     1      -5.415  12.664  69.221  1.00  0.00    -0.073 A  
HETATM   35  C   UNL     1      -5.999  11.446  69.544  1.00  0.00    -0.086 A  
HETATM   36  C   UNL     1      -7.276  11.150  69.044  1.00  0.00    -0.118 A  
HETATM   37  C   UNL     1      -7.947   9.938  69.326  1.00  0.00    -0.121 A  
ENDBRANCH  24  28
ENDBRANCH  12  13
ENDBRANCH  11  12
ENDBRANCH   9  11
ENDBRANCH   6   9
TORSDOF 5
ENDMDL
MODEL      153
REMARK 921   NORMALIZED FREE ENERGY PREDICTED BY IDOCK:   -3.53 KCAL/MOL
REMARK 922        TOTAL FREE ENERGY PREDICTED BY IDOCK:   -6.79 KCAL/MOL
REMARK 923 INTER-LIGAND FREE ENERGY PREDICTED BY IDOCK:   -5.26 KCAL/MOL
REMARK 924 INTRA-LIGAND FREE ENERGY PREDICTED BY IDOCK:   -1.53 KCAL/MOL
REMARK 927      BINDING AFFINITY PREDICTED BY RF-SCORE:    0.00 PKD
ROOT
HETATM    1  C   UNL     1     -12.181  12.293  66.476  1.00  0.00     0.150 C  
HETATM    2  C   UNL     1     -10.925  11.726  65.880  1.00  0.00    -0.354 A  
HETATM    3  C   UNL     1     -10.874  11.387  64.523  1.00  0.00    -0.375 A  
HETATM    4  C   UNL     1      -9.727  10.803  63.956  1.00  0.00    -0.367 A  
HETATM    5  C   UNL     1      -9.756  10.454  62.492  1.00  0.00    -0.136 C  
HETATM    6  C   UNL     1      -8.604  10.556  64.775  1.00  0.00    -0.173 A  
HETATM    7  C   UNL     1      -8.648  10.915  66.132  1.00  0.00    -0.170 A  
HETATM    8  C   UNL     1      -9.801  11.494  66.679  1.00  0.00    -0.228 A  
ENDROOT
BRANCH   6   9
HETATM    9  C   UNL     1      -7.400   9.863  64.217  1.00  0.00    -0.133 C  
HETATM   10  O   UNL     1      -6.468  10.448  63.687  1.00  0.00    -0.125 OA 
BRANCH   9  11
HETATM   11  O   UNL     1      -7.479   8.520  64.400  1.00  0.00    -0.100 OA 
BRANCH  11  12
HETATM   12  C   UNL     1      -6.318   7.938  65.020  1.00  0.00    -0.041 C  
BRANCH  12  13
HETATM   13  C   UNL     1      -6.160   8.460  66.427  1.00  0.00    -0.052 A  
HETATM   14  C   UNL     1      -6.879   7.894  67.488  1.00  0.00    -0.070 A  
HETATM   15  C   UNL     1      -6.849   8.475  68.757  1.00  0.00    -0.062 A  
HETATM   16  C   UNL     1      -6.098   9.636  68.990  1.00  0.00    -0.041 A  
HETATM   17  C   UNL     1      -5.295  10.134  67.952  1.00  0.00    -0.038 A  
HETATM   18  C   UNL     1      -6.204  10.348  70.336  1.00  0.00    -0.126 C  
HETATM   19  C   UNL     1      -5.340   9.564  66.679  1.00  0.00    -0.045 A  
HETATM   20  C   UNL     1      -6.056  11.877  70.202  1.00  0.00    -0.137 C  
HETATM   21  C   UNL     1      -5.176   9.777  71.339  1.00  0.00    -0.072 C  
HETATM   22  O   UNL     1      -5.140  12.474  70.768  1.00  0.00    -0.105 OA 
HETATM   23  N   UNL     1      -5.305  10.343  72.691  1.00  0.00    -0.303 NA 
HETATM   24  N   UNL     1      -7.006  12.476  69.382  1.00  0.00    -0.316 N  
HETATM   25  H1  UNL     1      -4.627   9.966  73.353  1.00  0.00     0.000 HD 
HETATM   26  H2  UNL     1      -6.256  10.228  73.041  1.00  0.00     0.000 HD 
HETATM   27  H   UNL     1      -7.690  11.866  68.935  1.00  0.00     0.000 HD 
BRANCH  24  28
HETATM   28  C   UNL     1      -7.102  13.864  69.119  1.00  0.00    -0.069 A  
HETATM   29  C   UNL     1      -6.700  14.833  70.040  1.00  0.00    -0.148 A  
HETATM   30  C   UNL     1      -6.771  16.192  69.733  1.00  0.00    -0.103 A  
HETATM   31  C   UNL     1      -7.266  16.613  68.495  1.00  0.00    -0.183 A  
HETATM   32  C   UNL     1      -7.345  17.962  68.143  1.00  0.00    -0.241 A  
HETATM   33  N   UNL     1      -7.832  18.419  66.968  1.00  0.00    -0.223 NA 
HETATM   34  C   UNL     1      -8.262  17.486  66.096  1.00  0.00    -0.187 A  
HETATM   35  C   UNL     1      -8.220  16.119  66.336  1.00  0.00    -0.336 A  
HETATM   36  C   UNL     1      -7.712  15.658  67.560  1.00  0.00    -0.192 A  
HETATM   37  C   UNL     1      -7.628  14.285  67.886  1.00  0.00    -0.159 A  
ENDBRANCH  24  28
ENDBRANCH  12  13
ENDBRANCH  11  12
ENDBRANCH   9  11
ENDBRANCH   6   9
TORSDOF 5
ENDMDL
MODEL      154
REMARK 921   NORMALIZED FREE ENERGY PREDICTED BY IDOCK:   -3.53 KCAL/MOL
REMARK 922        TOTAL FREE ENERGY PREDICTED BY IDOCK:   -6.79 KCAL/MOL
REMARK 923 INTER-LIGAND FREE ENERGY PREDICTED BY IDOCK:   -5.74 KCAL/MOL
REMARK 924 INTRA-LIGAND FREE ENERGY PREDICTED BY IDOCK:   -1.04 KCAL/MOL
REMARK 927      BINDING AFFINITY PREDICTED BY RF-SCORE:    0.00 PKD
ROOT
HETATM    1  C   UNL     1     -11.879  16.115  64.237  1.00  0.00     0.108 C  
HETATM    2  C   UNL     1     -10.992  15.160  64.983  1.00  0.00    -0.443 A  
HETATM    3  C   UNL     1     -10.944  13.808  64.624  1.00  0.00    -0.406 A  
HETATM    4  C   UNL     1     -10.162  12.886  65.342  1.00  0.00    -0.301 A  
HETATM    5  C   UNL     1     -10.175  11.446  64.902  1.00  0.00    -0.330 C  
HETATM    6  C   UNL     1      -9.412  13.336  66.450  1.00  0.00    -0.225 A  
HETATM    7  C   UNL     1      -9.444  14.696  66.798  1.00  0.00    -0.275 A  
HETATM    8  C   UNL     1     -10.230  15.599  66.070  1.00  0.00    -0.354 A  
ENDROOT
BRANCH   6   9
HETATM    9  C   UNL     1      -8.635  12.363  67.281  1.00  0.00    -0.185 C  
HETATM   10  O   UNL     1      -7.472  12.063  67.062  1.00  0.00    -0.148 OA 
BRANCH   9  11
HETATM   11  O   UNL     1      -9.386  11.888  68.308  1.00  0.00    -0.186 OA 
BRANCH  11  12
HETATM   12  C   UNL     1      -8.738  10.870  69.094  1.00  0.00    -0.043 C  
BRANCH  12  13
HETATM   13  C   UNL     1      -9.041   9.503  68.532  1.00  0.00    -0.131 A  
HETATM   14  C   UNL     1     -10.281   9.230  67.940  1.00  0.00    -0.263 A  
HETATM   15  C   UNL     1     -10.615   7.928  67.560  1.00  0.00    -0.312 A  
HETATM   16  C   UNL     1      -9.715   6.874  67.767  1.00  0.00    -0.148 A  
HETATM   17  C   UNL     1      -8.434   7.172  68.259  1.00  0.00    -0.124 A  
HETATM   18  C   UNL     1     -10.157   5.438  67.497  1.00  0.00    -0.220 C  
HETATM   19  C   UNL     1      -8.108   8.469  68.656  1.00  0.00    -0.121 A  
HETATM   20  C   UNL     1      -9.496   4.431  68.460  1.00  0.00    -0.156 C  
HETATM   21  C   UNL     1      -9.890   5.051  66.024  1.00  0.00    -0.188 C  
HETATM   22  O   UNL     1      -8.774   3.530  68.034  1.00  0.00    -0.094 OA 
HETATM   23  N   UNL     1     -10.400   3.717  65.671  1.00  0.00    -0.408 NA 
HETATM   24  N   UNL     1      -9.766   4.662  69.805  1.00  0.00    -0.193 N  
HETATM   25  H1  UNL     1     -10.225   3.462  64.699  1.00  0.00     0.000 HD 
HETATM   26  H2  UNL     1     -11.393   3.639  65.892  1.00  0.00     0.000 HD 
HETATM   27  H   UNL     1     -10.346   5.470  70.034  1.00  0.00     0.000 HD 
BRANCH  24  28
HETATM   28  C   UNL     1      -9.302   3.869  70.882  1.00  0.00    -0.152 A  
HETATM   29  C   UNL     1     -10.140   3.015  71.601  1.00  0.00    -0.063 A  
HETATM   30  C   UNL     1      -9.643   2.217  72.631  1.00  0.00    -0.150 A  
HETATM   31  C   UNL     1      -8.289   2.270  72.977  1.00  0.00    -0.062 A  
HETATM   32  C   UNL     1      -7.748   1.480  73.994  1.00  0.00    -0.033 A  
HETATM   33  N   UNL     1      -6.452   1.509  74.377  1.00  0.00    -0.008 NA 
HETATM   34  C   UNL     1      -5.651   2.366  73.713  1.00  0.00     0.000 A  
HETATM   35  C   UNL     1      -6.080   3.188  72.679  1.00  0.00    -0.009 A  
HETATM   36  C   UNL     1      -7.427   3.149  72.292  1.00  0.00    -0.052 A  
HETATM   37  C   UNL     1      -7.948   3.946  71.247  1.00  0.00    -0.067 A  
ENDBRANCH  24  28
ENDBRANCH  12  13
ENDBRANCH  11  12
ENDBRANCH   9  11
ENDBRANCH   6   9
TORSDOF 5
ENDMDL
MODEL      155
REMARK 921   NORMALIZED FREE ENERGY PREDICTED BY IDOCK:   -3.45 KCAL/MOL
REMARK 922        TOTAL FREE ENERGY PREDICTED BY IDOCK:   -6.68 KCAL/MOL
REMARK 923 INTER-LIGAND FREE ENERGY PREDICTED BY IDOCK:   -6.13 KCAL/MOL
REMARK 924 INTRA-LIGAND FREE ENERGY PREDICTED BY IDOCK:   -0.55 KCAL/MOL
REMARK 927      BINDING AFFINITY PREDICTED BY RF-SCORE:    0.00 PKD
ROOT
HETATM    1  C   UNL     1     -10.272   7.153  67.064  1.00  0.00    -0.339 C  
HETATM    2  C   UNL     1      -9.175   8.162  66.883  1.00  0.00    -0.198 A  
HETATM    3  C   UNL     1      -8.964   8.765  65.638  1.00  0.00    -0.248 A  
HETATM    4  C   UNL     1      -7.909   9.672  65.432  1.00  0.00    -0.117 A  
HETATM    5  C   UNL     1      -7.740  10.268  64.059  1.00  0.00    -0.100 C  
HETATM    6  C   UNL     1      -7.045   9.978  66.505  1.00  0.00    -0.097 A  
HETATM    7  C   UNL     1      -7.268   9.388  67.760  1.00  0.00    -0.083 A  
HETATM    8  C   UNL     1      -8.324   8.486  67.945  1.00  0.00    -0.126 A  
ENDROOT
BRANCH   6   9
HETATM    9  C   UNL     1      -5.867  10.877  66.293  1.00  0.00    -0.139 C  
HETATM   10  O   UNL     1      -5.381  11.110  65.198  1.00  0.00    -0.220 OA 
BRANCH   9  11
HETATM   11  O   UNL     1      -5.437  11.404  67.469  1.00  0.00    -0.042 OA 
BRANCH  11  12
HETATM   12  C   UNL     1      -5.371  12.842  67.483  1.00  0.00    -0.057 C  
BRANCH  12  13
HETATM   13  C   UNL     1      -6.727  13.424  67.796  1.00  0.00    -0.163 A  
HETATM   14  C   UNL     1      -6.849  14.579  68.579  1.00  0.00    -0.096 A  
HETATM   15  C   UNL     1      -8.105  15.027  68.995  1.00  0.00    -0.178 A  
HETATM   16  C   UNL     1      -9.264  14.326  68.636  1.00  0.00    -0.167 A  
HETATM   17  C   UNL     1      -9.144  13.234  67.762  1.00  0.00    -0.202 A  
HETATM   18  C   UNL     1     -10.610  14.734  69.230  1.00  0.00    -0.248 C  
HETATM   19  C   UNL     1      -7.888  12.776  67.363  1.00  0.00    -0.172 A  
HETATM   20  C   UNL     1     -11.546  13.528  69.442  1.00  0.00    -0.312 C  
HETATM   21  C   UNL     1     -11.288  15.815  68.358  1.00  0.00    -0.372 C  
HETATM   22  O   UNL     1     -12.631  13.461  68.865  1.00  0.00     0.100 OA 
HETATM   23  N   UNL     1     -12.536  16.334  68.939  1.00  0.00     0.071 NA 
HETATM   24  N   UNL     1     -11.039  12.550  70.292  1.00  0.00     0.053 N  
HETATM   25  H1  UNL     1     -12.984  17.047  68.363  1.00  0.00     0.000 HD 
HETATM   26  H2  UNL     1     -12.378  16.679  69.885  1.00  0.00     0.000 HD 
HETATM   27  H   UNL     1     -10.106  12.702  70.676  1.00  0.00     0.000 HD 
BRANCH  24  28
HETATM   28  C   UNL     1     -11.711  11.363  70.668  1.00  0.00    -0.097 A  
HETATM   29  C   UNL     1     -12.953  11.372  71.305  1.00  0.00    -0.415 A  
HETATM   30  C   UNL     1     -13.607  10.183  71.627  1.00  0.00    -0.275 A  
HETATM   31  C   UNL     1     -13.020   8.949  71.330  1.00  0.00    -0.323 A  
HETATM   32  C   UNL     1     -13.645   7.735  71.625  1.00  0.00    -0.357 A  
HETATM   33  N   UNL     1     -13.110   6.520  71.375  1.00  0.00     0.039 NA 
HETATM   34  C   UNL     1     -11.891   6.509  70.800  1.00  0.00    -0.332 A  
HETATM   35  C   UNL     1     -11.184   7.654  70.454  1.00  0.00    -0.258 A  
HETATM   36  C   UNL     1     -11.751   8.909  70.719  1.00  0.00    -0.269 A  
HETATM   37  C   UNL     1     -11.105  10.125  70.396  1.00  0.00    -0.393 A  
ENDBRANCH  24  28
ENDBRANCH  12  13
ENDBRANCH  11  12
ENDBRANCH   9  11
ENDBRANCH   6   9
TORSDOF 5
ENDMDL
MODEL      156
REMARK 921   NORMALIZED FREE ENERGY PREDICTED BY IDOCK:   -3.43 KCAL/MOL
REMARK 922        TOTAL FREE ENERGY PREDICTED BY IDOCK:   -6.66 KCAL/MOL
REMARK 923 INTER-LIGAND FREE ENERGY PREDICTED BY IDOCK:   -7.43 KCAL/MOL
REMARK 924 INTRA-LIGAND FREE ENERGY PREDICTED BY IDOCK:    0.78 KCAL/MOL
REMARK 927      BINDING AFFINITY PREDICTED BY RF-SCORE:    0.00 PKD
ROOT
HETATM    1  C   UNL     1     -13.968  15.950  72.934  1.00  0.00    -0.428 C  
HETATM    2  C   UNL     1     -13.265  15.035  71.974  1.00  0.00    -0.457 A  
HETATM    3  C   UNL     1     -12.747  15.530  70.772  1.00  0.00    -0.511 A  
HETATM    4  C   UNL     1     -12.133  14.682  69.833  1.00  0.00    -0.385 A  
HETATM    5  C   UNL     1     -11.613  15.289  68.557  1.00  0.00    -0.368 C  
HETATM    6  C   UNL     1     -12.040  13.301  70.111  1.00  0.00    -0.403 A  
HETATM    7  C   UNL     1     -12.542  12.806  71.326  1.00  0.00    -0.347 A  
HETATM    8  C   UNL     1     -13.151  13.668  72.248  1.00  0.00    -0.491 A  
ENDROOT
BRANCH   6   9
HETATM    9  C   UNL     1     -11.465  12.363  69.096  1.00  0.00    -0.302 C  
HETATM   10  O   UNL     1     -10.441  12.588  68.470  1.00  0.00    -0.230 OA 
BRANCH   9  11
HETATM   11  O   UNL     1     -12.217  11.237  68.988  1.00  0.00    -0.444 OA 
BRANCH  11  12
HETATM   12  C   UNL     1     -12.241  10.426  70.177  1.00  0.00    -0.229 C  
BRANCH  12  13
HETATM   13  C   UNL     1     -11.082   9.459  70.174  1.00  0.00    -0.277 A  
HETATM   14  C   UNL     1      -9.760   9.924  70.188  1.00  0.00    -0.255 A  
HETATM   15  C   UNL     1      -8.693   9.036  70.030  1.00  0.00    -0.164 A  
HETATM   16  C   UNL     1      -8.929   7.666  69.853  1.00  0.00    -0.144 A  
HETATM   17  C   UNL     1     -10.248   7.194  69.948  1.00  0.00    -0.215 A  
HETATM   18  C   UNL     1      -7.766   6.735  69.520  1.00  0.00    -0.104 C  
HETATM   19  C   UNL     1     -11.314   8.083  70.087  1.00  0.00    -0.081 A  
HETATM   20  C   UNL     1      -8.190   5.574  68.599  1.00  0.00    -0.102 C  
HETATM   21  C   UNL     1      -7.103   6.204  70.812  1.00  0.00    -0.069 C  
HETATM   22  O   UNL     1      -8.083   4.404  68.968  1.00  0.00    -0.072 OA 
HETATM   23  N   UNL     1      -5.902   5.393  70.559  1.00  0.00    -0.020 NA 
HETATM   24  N   UNL     1      -8.715   5.974  67.375  1.00  0.00    -0.106 N  
HETATM   25  H1  UNL     1      -5.465   5.042  71.412  1.00  0.00     0.000 HD 
HETATM   26  H2  UNL     1      -5.230   5.909  69.993  1.00  0.00     0.000 HD 
HETATM   27  H   UNL     1      -8.791   6.977  67.204  1.00  0.00     0.000 HD 
BRANCH  24  28
HETATM   28  C   UNL     1      -9.151   5.105  66.347  1.00  0.00    -0.131 A  
HETATM   29  C   UNL     1     -10.502   4.852  66.099  1.00  0.00    -0.346 A  
HETATM   30  C   UNL     1     -10.900   4.020  65.053  1.00  0.00     0.013 A  
HETATM   31  C   UNL     1      -9.946   3.406  64.236  1.00  0.00    -0.181 A  
HETATM   32  C   UNL     1     -10.301   2.575  63.170  1.00  0.00    -0.155 A  
HETATM   33  N   UNL     1      -9.417   1.945  62.365  1.00  0.00    -0.086 NA 
HETATM   34  C   UNL     1      -8.112   2.152  62.630  1.00  0.00    -0.068 A  
HETATM   35  C   UNL     1      -7.647   2.967  63.655  1.00  0.00    -0.067 A  
HETATM   36  C   UNL     1      -8.575   3.615  64.484  1.00  0.00    -0.097 A  
HETATM   37  C   UNL     1      -8.191   4.465  65.546  1.00  0.00    -0.110 A  
ENDBRANCH  24  28
ENDBRANCH  12  13
ENDBRANCH  11  12
ENDBRANCH   9  11
ENDBRANCH   6   9
TORSDOF 5
ENDMDL
MODEL      157
REMARK 921   NORMALIZED FREE ENERGY PREDICTED BY IDOCK:   -3.39 KCAL/MOL
REMARK 922        TOTAL FREE ENERGY PREDICTED BY IDOCK:   -6.60 KCAL/MOL
REMARK 923 INTER-LIGAND FREE ENERGY PREDICTED BY IDOCK:   -4.84 KCAL/MOL
REMARK 924 INTRA-LIGAND FREE ENERGY PREDICTED BY IDOCK:   -1.76 KCAL/MOL
REMARK 927      BINDING AFFINITY PREDICTED BY RF-SCORE:    0.00 PKD
ROOT
HETATM    1  C   UNL     1     -11.253   7.230  66.973  1.00  0.00     0.159 C  
HETATM    2  C   UNL     1     -10.406   6.000  67.121  1.00  0.00    -0.284 A  
HETATM    3  C   UNL     1     -10.458   5.240  68.295  1.00  0.00    -0.140 A  
HETATM    4  C   UNL     1      -9.634   4.115  68.478  1.00  0.00    -0.192 A  
HETATM    5  C   UNL     1      -9.739   3.358  69.775  1.00  0.00    -0.074 C  
HETATM    6  C   UNL     1      -8.737   3.746  67.453  1.00  0.00    -0.125 A  
HETATM    7  C   UNL     1      -8.699   4.496  66.266  1.00  0.00    -0.113 A  
HETATM    8  C   UNL     1      -9.527   5.615  66.104  1.00  0.00    -0.157 A  
ENDROOT
BRANCH   6   9
HETATM    9  C   UNL     1      -7.792   2.602  67.652  1.00  0.00    -0.064 C  
HETATM   10  O   UNL     1      -7.361   1.913  66.740  1.00  0.00    -0.054 OA 
BRANCH   9  11
HETATM   11  O   UNL     1      -7.470   2.456  68.963  1.00  0.00    -0.044 OA 
BRANCH  11  12
HETATM   12  C   UNL     1      -6.135   2.881  69.296  1.00  0.00    -0.024 C  
BRANCH  12  13
HETATM   13  C   UNL     1      -6.179   4.159  70.098  1.00  0.00    -0.026 A  
HETATM   14  C   UNL     1      -6.506   4.140  71.460  1.00  0.00    -0.019 A  
HETATM   15  C   UNL     1      -6.696   5.332  72.162  1.00  0.00    -0.061 A  
HETATM   16  C   UNL     1      -6.563   6.567  71.514  1.00  0.00    -0.054 A  
HETATM   17  C   UNL     1      -6.129   6.581  70.179  1.00  0.00    -0.030 A  
HETATM   18  C   UNL     1      -6.932   7.852  72.251  1.00  0.00    -0.076 C  
HETATM   19  C   UNL     1      -5.958   5.390  69.473  1.00  0.00    -0.020 A  
HETATM   20  C   UNL     1      -7.518   8.921  71.308  1.00  0.00    -0.103 C  
HETATM   21  C   UNL     1      -5.714   8.406  73.027  1.00  0.00    -0.067 C  
HETATM   22  O   UNL     1      -6.962  10.011  71.165  1.00  0.00    -0.320 OA 
HETATM   23  N   UNL     1      -6.035   9.581  73.852  1.00  0.00    -0.317 NA 
HETATM   24  N   UNL     1      -8.672   8.526  70.639  1.00  0.00    -0.143 N  
HETATM   25  H1  UNL     1      -5.231   9.946  74.364  1.00  0.00     0.000 HD 
HETATM   26  H2  UNL     1      -6.807   9.377  74.486  1.00  0.00     0.000 HD 
HETATM   27  H   UNL     1      -9.011   7.579  70.811  1.00  0.00     0.000 HD 
BRANCH  24  28
HETATM   28  C   UNL     1      -9.414   9.330  69.742  1.00  0.00    -0.191 A  
HETATM   29  C   UNL     1     -10.627   9.925  70.093  1.00  0.00    -0.350 A  
HETATM   30  C   UNL     1     -11.315  10.743  69.197  1.00  0.00    -0.348 A  
HETATM   31  C   UNL     1     -10.807  10.972  67.915  1.00  0.00    -0.285 A  
HETATM   32  C   UNL     1     -11.457  11.794  66.990  1.00  0.00    -0.298 A  
HETATM   33  N   UNL     1     -11.016  12.031  65.735  1.00  0.00    -0.297 NA 
HETATM   34  C   UNL     1      -9.868  11.421  65.379  1.00  0.00    -0.236 A  
HETATM   35  C   UNL     1      -9.134  10.594  66.220  1.00  0.00    -0.186 A  
HETATM   36  C   UNL     1      -9.603  10.357  67.521  1.00  0.00    -0.178 A  
HETATM   37  C   UNL     1      -8.917   9.534  68.444  1.00  0.00    -0.127 A  
ENDBRANCH  24  28
ENDBRANCH  12  13
ENDBRANCH  11  12
ENDBRANCH   9  11
ENDBRANCH   6   9
TORSDOF 5
ENDMDL
MODEL      158
REMARK 921   NORMALIZED FREE ENERGY PREDICTED BY IDOCK:   -3.32 KCAL/MOL
REMARK 922        TOTAL FREE ENERGY PREDICTED BY IDOCK:   -6.51 KCAL/MOL
REMARK 923 INTER-LIGAND FREE ENERGY PREDICTED BY IDOCK:   -4.66 KCAL/MOL
REMARK 924 INTRA-LIGAND FREE ENERGY PREDICTED BY IDOCK:   -1.86 KCAL/MOL
REMARK 927      BINDING AFFINITY PREDICTED BY RF-SCORE:    0.00 PKD
ROOT
HETATM    1  C   UNL     1      -7.005   9.415  71.287  1.00  0.00     0.027 C  
HETATM    2  C   UNL     1      -7.553   9.869  69.965  1.00  0.00    -0.179 A  
HETATM    3  C   UNL     1      -6.803  10.712  69.138  1.00  0.00    -0.079 A  
HETATM    4  C   UNL     1      -7.317  11.194  67.921  1.00  0.00    -0.092 A  
HETATM    5  C   UNL     1      -6.453  12.108  67.094  1.00  0.00    -0.135 C  
HETATM    6  C   UNL     1      -8.619  10.817  67.528  1.00  0.00    -0.125 A  
HETATM    7  C   UNL     1      -9.365   9.954  68.348  1.00  0.00    -0.135 A  
HETATM    8  C   UNL     1      -8.835   9.486  69.558  1.00  0.00    -0.185 A  
ENDROOT
BRANCH   6   9
HETATM    9  C   UNL     1      -9.223  11.378  66.278  1.00  0.00    -0.208 C  
HETATM   10  O   UNL     1      -9.496  12.558  66.129  1.00  0.00    -0.237 OA 
BRANCH   9  11
HETATM   11  O   UNL     1      -9.400  10.409  65.343  1.00  0.00    -0.176 OA 
BRANCH  11  12
HETATM   12  C   UNL     1      -8.196  10.027  64.652  1.00  0.00    -0.163 C  
BRANCH  12  13
HETATM   13  C   UNL     1      -7.824   8.605  64.996  1.00  0.00    -0.116 A  
HETATM   14  C   UNL     1      -8.152   7.550  64.136  1.00  0.00    -0.055 A  
HETATM   15  C   UNL     1      -7.946   6.225  64.526  1.00  0.00    -0.121 A  
HETATM   16  C   UNL     1      -7.408   5.931  65.787  1.00  0.00    -0.076 A  
HETATM   17  C   UNL     1      -6.982   6.993  66.599  1.00  0.00    -0.073 A  
HETATM   18  C   UNL     1      -7.340   4.481  66.261  1.00  0.00    -0.081 C  
HETATM   19  C   UNL     1      -7.206   8.316  66.216  1.00  0.00    -0.074 A  
HETATM   20  C   UNL     1      -7.534   4.353  67.785  1.00  0.00    -0.069 C  
HETATM   21  C   UNL     1      -6.016   3.821  65.814  1.00  0.00    -0.023 C  
HETATM   22  O   UNL     1      -6.650   3.875  68.496  1.00  0.00    -0.043 OA 
HETATM   23  N   UNL     1      -5.939   2.388  66.140  1.00  0.00    -0.022 NA 
HETATM   24  N   UNL     1      -8.748   4.847  68.252  1.00  0.00    -0.101 N  
HETATM   25  H1  UNL     1      -5.065   1.953  65.845  1.00  0.00     0.000 HD 
HETATM   26  H2  UNL     1      -6.741   1.887  65.758  1.00  0.00     0.000 HD 
HETATM   27  H   UNL     1      -9.381   5.259  67.566  1.00  0.00     0.000 HD 
BRANCH  24  28
HETATM   28  C   UNL     1      -9.177   4.823  69.601  1.00  0.00    -0.122 A  
HETATM   29  C   UNL     1      -9.618   3.657  70.228  1.00  0.00    -0.246 A  
HETATM   30  C   UNL     1      -9.997   3.660  71.571  1.00  0.00    -0.181 A  
HETATM   31  C   UNL     1      -9.957   4.844  72.315  1.00  0.00    -0.232 A  
HETATM   32  C   UNL     1     -10.317   4.890  73.664  1.00  0.00    -0.214 A  
HETATM   33  N   UNL     1     -10.312   6.010  74.419  1.00  0.00    -0.284 NA 
HETATM   34  C   UNL     1      -9.928   7.146  73.802  1.00  0.00    -0.331 A  
HETATM   35  C   UNL     1      -9.540   7.214  72.470  1.00  0.00    -0.172 A  
HETATM   36  C   UNL     1      -9.549   6.043  71.698  1.00  0.00    -0.170 A  
HETATM   37  C   UNL     1      -9.164   6.019  70.337  1.00  0.00    -0.167 A  
ENDBRANCH  24  28
ENDBRANCH  12  13
ENDBRANCH  11  12
ENDBRANCH   9  11
ENDBRANCH   6   9
TORSDOF 5
ENDMDL
MODEL      159
REMARK 921   NORMALIZED FREE ENERGY PREDICTED BY IDOCK:   -3.26 KCAL/MOL
REMARK 922        TOTAL FREE ENERGY PREDICTED BY IDOCK:   -6.43 KCAL/MOL
REMARK 923 INTER-LIGAND FREE ENERGY PREDICTED BY IDOCK:   -5.50 KCAL/MOL
REMARK 924 INTRA-LIGAND FREE ENERGY PREDICTED BY IDOCK:   -0.93 KCAL/MOL
REMARK 927      BINDING AFFINITY PREDICTED BY RF-SCORE:    0.00 PKD
ROOT
HETATM    1  C   UNL     1     -10.301   4.494  74.195  1.00  0.00    -0.293 C  
HETATM    2  C   UNL     1      -9.912   4.899  72.803  1.00  0.00    -0.203 A  
HETATM    3  C   UNL     1     -10.838   5.523  71.960  1.00  0.00    -0.287 A  
HETATM    4  C   UNL     1     -10.512   5.862  70.634  1.00  0.00    -0.316 A  
HETATM    5  C   UNL     1     -11.568   6.518  69.786  1.00  0.00    -0.392 C  
HETATM    6  C   UNL     1      -9.221   5.564  70.146  1.00  0.00    -0.173 A  
HETATM    7  C   UNL     1      -8.285   4.956  70.998  1.00  0.00    -0.104 A  
HETATM    8  C   UNL     1      -8.630   4.625  72.315  1.00  0.00    -0.122 A  
ENDROOT
BRANCH   6   9
HETATM    9  C   UNL     1      -8.872   5.840  68.717  1.00  0.00    -0.110 C  
HETATM   10  O   UNL     1      -9.055   5.043  67.810  1.00  0.00    -0.110 OA 
BRANCH   9  11
HETATM   11  O   UNL     1      -8.355   7.087  68.571  1.00  0.00    -0.120 OA 
BRANCH  11  12
HETATM   12  C   UNL     1      -7.932   7.399  67.231  1.00  0.00    -0.115 C  
BRANCH  12  13
HETATM   13  C   UNL     1      -8.573   8.685  66.768  1.00  0.00    -0.126 A  
HETATM   14  C   UNL     1      -8.563   9.044  65.414  1.00  0.00    -0.200 A  
HETATM   15  C   UNL     1      -9.017  10.301  65.009  1.00  0.00    -0.225 A  
HETATM   16  C   UNL     1      -9.490  11.224  65.952  1.00  0.00    -0.247 A  
HETATM   17  C   UNL     1      -9.600  10.818  67.291  1.00  0.00    -0.182 A  
HETATM   18  C   UNL     1      -9.830  12.646  65.515  1.00  0.00    -0.177 C  
HETATM   19  C   UNL     1      -9.127   9.569  67.698  1.00  0.00    -0.131 A  
HETATM   20  C   UNL     1      -9.533  13.684  66.615  1.00  0.00    -0.277 C  
HETATM   21  C   UNL     1     -11.302  12.739  65.050  1.00  0.00    -0.309 C  
HETATM   22  O   UNL     1     -10.432  14.381  67.086  1.00  0.00    -0.261 OA 
HETATM   23  N   UNL     1     -11.660  14.058  64.506  1.00  0.00    -0.414 NA 
HETATM   24  N   UNL     1      -8.204  13.723  67.023  1.00  0.00    -0.379 N  
HETATM   25  H1  UNL     1     -12.631  14.119  64.200  1.00  0.00     0.000 HD 
HETATM   26  H2  UNL     1     -11.024  14.324  63.754  1.00  0.00     0.000 HD 
HETATM   27  H   UNL     1      -7.560  13.063  66.585  1.00  0.00     0.000 HD 
BRANCH  24  28
HETATM   28  C   UNL     1      -7.671  14.602  67.996  1.00  0.00    -0.132 A  
HETATM   29  C   UNL     1      -7.742  14.339  69.365  1.00  0.00     0.126 A  
HETATM   30  C   UNL     1      -7.172  15.208  70.296  1.00  0.00     0.246 A  
HETATM   31  C   UNL     1      -6.527  16.374  69.874  1.00  0.00    -0.069 A  
HETATM   32  C   UNL     1      -5.933  17.265  70.771  1.00  0.00     0.550 A  
HETATM   33  N   UNL     1      -5.316  18.413  70.413  1.00  0.00    -0.236 NA 
HETATM   34  C   UNL     1      -5.286  18.690  69.094  1.00  0.00    -0.192 A  
HETATM   35  C   UNL     1      -5.833  17.871  68.115  1.00  0.00    -0.170 A  
HETATM   36  C   UNL     1      -6.471  16.683  68.500  1.00  0.00    -0.139 A  
HETATM   37  C   UNL     1      -7.050  15.788  67.571  1.00  0.00    -0.215 A  
ENDBRANCH  24  28
ENDBRANCH  12  13
ENDBRANCH  11  12
ENDBRANCH   9  11
ENDBRANCH   6   9
TORSDOF 5
ENDMDL
MODEL      160
REMARK 921   NORMALIZED FREE ENERGY PREDICTED BY IDOCK:   -3.24 KCAL/MOL
REMARK 922        TOTAL FREE ENERGY PREDICTED BY IDOCK:   -6.41 KCAL/MOL
REMARK 923 INTER-LIGAND FREE ENERGY PREDICTED BY IDOCK:   -6.51 KCAL/MOL
REMARK 924 INTRA-LIGAND FREE ENERGY PREDICTED BY IDOCK:    0.10 KCAL/MOL
REMARK 927      BINDING AFFINITY PREDICTED BY RF-SCORE:    0.00 PKD
ROOT
HETATM    1  C   UNL     1     -11.442   5.990  67.665  1.00  0.00     0.598 C  
HETATM    2  C   UNL     1     -10.042   6.238  68.145  1.00  0.00    -0.173 A  
HETATM    3  C   UNL     1      -8.967   6.198  67.250  1.00  0.00    -0.112 A  
HETATM    4  C   UNL     1      -7.642   6.374  67.687  1.00  0.00    -0.101 A  
HETATM    5  C   UNL     1      -6.540   6.303  66.664  1.00  0.00    -0.051 C  
HETATM    6  C   UNL     1      -7.393   6.593  69.058  1.00  0.00    -0.094 A  
HETATM    7  C   UNL     1      -8.473   6.653  69.955  1.00  0.00    -0.139 A  
HETATM    8  C   UNL     1      -9.786   6.475  69.500  1.00  0.00    -0.167 A  
ENDROOT
BRANCH   6   9
HETATM    9  C   UNL     1      -5.988   6.703  69.563  1.00  0.00    -0.022 C  
HETATM   10  O   UNL     1      -5.129   5.858  69.364  1.00  0.00    -0.004 OA 
BRANCH   9  11
HETATM   11  O   UNL     1      -5.801   7.864  70.242  1.00  0.00    -0.023 OA 
BRANCH  11  12
HETATM   12  C   UNL     1      -5.339   8.958  69.427  1.00  0.00    -0.035 C  
BRANCH  12  13
HETATM   13  C   UNL     1      -6.440   9.426  68.507  1.00  0.00    -0.053 A  
HETATM   14  C   UNL     1      -6.143   9.960  67.247  1.00  0.00    -0.059 A  
HETATM   15  C   UNL     1      -7.147  10.532  66.462  1.00  0.00    -0.120 A  
HETATM   16  C   UNL     1      -8.469  10.581  66.926  1.00  0.00    -0.125 A  
HETATM   17  C   UNL     1      -8.778   9.947  68.139  1.00  0.00    -0.122 A  
HETATM   18  C   UNL     1      -9.520  11.351  66.131  1.00  0.00    -0.237 C  
HETATM   19  C   UNL     1      -7.772   9.393  68.931  1.00  0.00    -0.076 A  
HETATM   20  C   UNL     1     -10.581  12.003  67.041  1.00  0.00    -0.227 C  
HETATM   21  C   UNL     1     -10.184  10.438  65.074  1.00  0.00    -0.264 C  
HETATM   22  O   UNL     1     -11.769  11.697  66.946  1.00  0.00    -0.552 OA 
HETATM   23  N   UNL     1     -11.126  11.152  64.197  1.00  0.00    -0.380 NA 
HETATM   24  N   UNL     1     -10.066  12.909  67.963  1.00  0.00    -0.228 N  
HETATM   25  H1  UNL     1     -11.563  10.549  63.500  1.00  0.00     0.000 HD 
HETATM   26  H2  UNL     1     -10.672  11.950  63.754  1.00  0.00     0.000 HD 
HETATM   27  H   UNL     1      -9.055  13.045  67.971  1.00  0.00     0.000 HD 
BRANCH  24  28
HETATM   28  C   UNL     1     -10.831  13.657  68.890  1.00  0.00    -0.235 A  
HETATM   29  C   UNL     1     -10.766  15.050  68.966  1.00  0.00    -0.239 A  
HETATM   30  C   UNL     1     -11.562  15.760  69.864  1.00  0.00    -0.355 A  
HETATM   31  C   UNL     1     -12.435  15.086  70.723  1.00  0.00    -0.411 A  
HETATM   32  C   UNL     1     -13.257  15.758  71.630  1.00  0.00    -0.386 A  
HETATM   33  N   UNL     1     -14.103  15.151  72.492  1.00  0.00    -0.481 NA 
HETATM   34  C   UNL     1     -14.134  13.803  72.450  1.00  0.00    -0.492 A  
HETATM   35  C   UNL     1     -13.369  13.035  71.582  1.00  0.00    -0.379 A  
HETATM   36  C   UNL     1     -12.495  13.678  70.693  1.00  0.00    -0.417 A  
HETATM   37  C   UNL     1     -11.684  12.975  69.772  1.00  0.00    -0.346 A  
ENDBRANCH  24  28
ENDBRANCH  12  13
ENDBRANCH  11  12
ENDBRANCH   9  11
ENDBRANCH   6   9
TORSDOF 5
ENDMDL
MODEL      161
REMARK 921   NORMALIZED FREE ENERGY PREDICTED BY IDOCK:   -3.13 KCAL/MOL
REMARK 922        TOTAL FREE ENERGY PREDICTED BY IDOCK:   -6.27 KCAL/MOL
REMARK 923 INTER-LIGAND FREE ENERGY PREDICTED BY IDOCK:   -5.17 KCAL/MOL
REMARK 924 INTRA-LIGAND FREE ENERGY PREDICTED BY IDOCK:   -1.10 KCAL/MOL
REMARK 927      BINDING AFFINITY PREDICTED BY RF-SCORE:    0.00 PKD
ROOT
HETATM    1  C   UNL     1      -7.582   7.076  63.013  1.00  0.00    -0.104 C  
HETATM    2  C   UNL     1      -7.672   6.689  64.460  1.00  0.00    -0.112 A  
HETATM    3  C   UNL     1      -6.511   6.502  65.218  1.00  0.00    -0.039 A  
HETATM    4  C   UNL     1      -6.570   6.087  66.560  1.00  0.00    -0.058 A  
HETATM    5  C   UNL     1      -5.275   5.893  67.304  1.00  0.00    -0.005 C  
HETATM    6  C   UNL     1      -7.829   5.854  67.154  1.00  0.00    -0.102 A  
HETATM    7  C   UNL     1      -8.996   6.062  66.400  1.00  0.00    -0.150 A  
HETATM    8  C   UNL     1      -8.916   6.474  65.063  1.00  0.00     0.369 A  
ENDROOT
BRANCH   6   9
HETATM    9  C   UNL     1      -7.920   5.335  68.555  1.00  0.00    -0.087 C  
HETATM   10  O   UNL     1      -7.525   4.230  68.894  1.00  0.00    -0.055 OA 
BRANCH   9  11
HETATM   11  O   UNL     1      -8.472   6.258  69.384  1.00  0.00    -0.122 OA 
BRANCH  11  12
HETATM   12  C   UNL     1      -7.666   7.435  69.579  1.00  0.00    -0.108 C  
BRANCH  12  13
HETATM   13  C   UNL     1      -8.167   8.561  68.707  1.00  0.00    -0.122 A  
HETATM   14  C   UNL     1      -7.272   9.369  67.994  1.00  0.00    -0.078 A  
HETATM   15  C   UNL     1      -7.724  10.501  67.313  1.00  0.00    -0.106 A  
HETATM   16  C   UNL     1      -9.082  10.847  67.333  1.00  0.00    -0.144 A  
HETATM   17  C   UNL     1      -9.988   9.975  67.957  1.00  0.00    -0.176 A  
HETATM   18  C   UNL     1      -9.534  12.171  66.722  1.00  0.00    -0.213 C  
HETATM   19  C   UNL     1      -9.533   8.855  68.653  1.00  0.00    -0.153 A  
HETATM   20  C   UNL     1     -10.733  12.784  67.473  1.00  0.00    -0.229 C  
HETATM   21  C   UNL     1      -9.853  11.999  65.218  1.00  0.00    -0.213 C  
HETATM   22  O   UNL     1     -11.806  12.976  66.901  1.00  0.00    -0.366 OA 
HETATM   23  N   UNL     1     -10.184  13.264  64.545  1.00  0.00    -0.592 NA 
HETATM   24  N   UNL     1     -10.491  13.052  68.817  1.00  0.00    -0.384 N  
HETATM   25  H1  UNL     1     -10.393  13.151  63.553  1.00  0.00     0.000 HD 
HETATM   26  H2  UNL     1      -9.443  13.951  64.682  1.00  0.00     0.000 HD 
HETATM   27  H   UNL     1      -9.572  12.806  69.185  1.00  0.00     0.000 HD 
BRANCH  24  28
HETATM   28  C   UNL     1     -11.416  13.636  69.714  1.00  0.00    -0.187 A  
HETATM   29  C   UNL     1     -12.771  13.300  69.722  1.00  0.00     0.262 A  
HETATM   30  C   UNL     1     -13.649  13.866  70.646  1.00  0.00     0.343 A  
HETATM   31  C   UNL     1     -13.189  14.800  71.579  1.00  0.00    -0.433 A  
HETATM   32  C   UNL     1     -14.031  15.383  72.529  1.00  0.00    -0.543 A  
HETATM   33  N   UNL     1     -13.638  16.303  73.438  1.00  0.00    -0.522 NA 
HETATM   34  C   UNL     1     -12.339  16.662  73.403  1.00  0.00    -0.235 A  
HETATM   35  C   UNL     1     -11.412  16.139  72.510  1.00  0.00    -0.143 A  
HETATM   36  C   UNL     1     -11.834  15.185  71.572  1.00  0.00    -0.436 A  
HETATM   37  C   UNL     1     -10.957  14.597  70.631  1.00  0.00     0.072 A  
ENDBRANCH  24  28
ENDBRANCH  12  13
ENDBRANCH  11  12
ENDBRANCH   9  11
ENDBRANCH   6   9
TORSDOF 5
ENDMDL
MODEL      162
REMARK 921   NORMALIZED FREE ENERGY PREDICTED BY IDOCK:   -3.04 KCAL/MOL
REMARK 922        TOTAL FREE ENERGY PREDICTED BY IDOCK:   -6.16 KCAL/MOL
REMARK 923 INTER-LIGAND FREE ENERGY PREDICTED BY IDOCK:   -5.22 KCAL/MOL
REMARK 924 INTRA-LIGAND FREE ENERGY PREDICTED BY IDOCK:   -0.94 KCAL/MOL
REMARK 927      BINDING AFFINITY PREDICTED BY RF-SCORE:    0.00 PKD
ROOT
HETATM    1  C   UNL     1     -11.892  12.065  69.198  1.00  0.00    -0.369 C  
HETATM    2  C   UNL     1     -10.707  11.750  68.331  1.00  0.00    -0.249 A  
HETATM    3  C   UNL     1      -9.886  10.655  68.622  1.00  0.00    -0.183 A  
HETATM    4  C   UNL     1      -8.740  10.373  67.857  1.00  0.00    -0.118 A  
HETATM    5  C   UNL     1      -7.901   9.184  68.243  1.00  0.00    -0.102 C  
HETATM    6  C   UNL     1      -8.412  11.215  66.773  1.00  0.00    -0.153 A  
HETATM    7  C   UNL     1      -9.246  12.303  66.469  1.00  0.00    -0.219 A  
HETATM    8  C   UNL     1     -10.383  12.568  67.244  1.00  0.00    -0.228 A  
ENDROOT
BRANCH   6   9
HETATM    9  C   UNL     1      -7.156  10.987  65.992  1.00  0.00    -0.010 C  
HETATM   10  O   UNL     1      -6.048  11.326  66.378  1.00  0.00    -0.140 OA 
BRANCH   9  11
HETATM   11  O   UNL     1      -7.415  10.340  64.827  1.00  0.00    -0.143 OA 
BRANCH  11  12
HETATM   12  C   UNL     1      -6.273   9.683  64.247  1.00  0.00    -0.103 C  
BRANCH  12  13
HETATM   13  C   UNL     1      -6.375   8.190  64.441  1.00  0.00    -0.065 A  
HETATM   14  C   UNL     1      -6.949   7.376  63.455  1.00  0.00    -0.056 A  
HETATM   15  C   UNL     1      -7.183   6.021  63.699  1.00  0.00    -0.060 A  
HETATM   16  C   UNL     1      -6.846   5.454  64.936  1.00  0.00    -0.049 A  
HETATM   17  C   UNL     1      -6.172   6.248  65.878  1.00  0.00    -0.037 A  
HETATM   18  C   UNL     1      -7.255   4.015  65.245  1.00  0.00    -0.068 C  
HETATM   19  C   UNL     1      -5.957   7.606  65.640  1.00  0.00    -0.038 A  
HETATM   20  C   UNL     1      -7.580   3.806  66.737  1.00  0.00    -0.080 C  
HETATM   21  C   UNL     1      -6.166   3.025  64.771  1.00  0.00    -0.023 C  
HETATM   22  O   UNL     1      -6.933   3.011  67.419  1.00  0.00    -0.048 OA 
HETATM   23  N   UNL     1      -6.551   1.614  64.935  1.00  0.00    -0.026 NA 
HETATM   24  N   UNL     1      -8.615   4.603  67.216  1.00  0.00    -0.104 N  
HETATM   25  H1  UNL     1      -5.833   0.961  64.623  1.00  0.00     0.000 HD 
HETATM   26  H2  UNL     1      -7.440   1.426  64.472  1.00  0.00     0.000 HD 
HETATM   27  H   UNL     1      -9.045   5.255  66.560  1.00  0.00     0.000 HD 
BRANCH  24  28
HETATM   28  C   UNL     1      -9.120   4.582  68.538  1.00  0.00    -0.121 A  
HETATM   29  C   UNL     1      -8.688   3.660  69.493  1.00  0.00    -0.127 A  
HETATM   30  C   UNL     1      -9.177   3.692  70.798  1.00  0.00    -0.201 A  
HETATM   31  C   UNL     1     -10.130   4.644  71.174  1.00  0.00    -0.243 A  
HETATM   32  C   UNL     1     -10.639   4.718  72.473  1.00  0.00    -0.200 A  
HETATM   33  N   UNL     1     -11.572   5.607  72.879  1.00  0.00    -0.247 NA 
HETATM   34  C   UNL     1     -12.023   6.470  71.946  1.00  0.00    -0.341 A  
HETATM   35  C   UNL     1     -11.579   6.493  70.630  1.00  0.00    -0.442 A  
HETATM   36  C   UNL     1     -10.610   5.565  70.222  1.00  0.00    -0.357 A  
HETATM   37  C   UNL     1     -10.099   5.521  68.904  1.00  0.00    -0.266 A  
ENDBRANCH  24  28
ENDBRANCH  12  13
ENDBRANCH  11  12
ENDBRANCH   9  11
ENDBRANCH   6   9
TORSDOF 5
ENDMDL
MODEL      163
REMARK 921   NORMALIZED FREE ENERGY PREDICTED BY IDOCK:   -3.02 KCAL/MOL
REMARK 922        TOTAL FREE ENERGY PREDICTED BY IDOCK:   -6.13 KCAL/MOL
REMARK 923 INTER-LIGAND FREE ENERGY PREDICTED BY IDOCK:   -4.54 KCAL/MOL
REMARK 924 INTRA-LIGAND FREE ENERGY PREDICTED BY IDOCK:   -1.60 KCAL/MOL
REMARK 927      BINDING AFFINITY PREDICTED BY RF-SCORE:    0.00 PKD
ROOT
HETATM    1  C   UNL     1     -10.674   5.697  68.272  1.00  0.00    -0.227 C  
HETATM    2  C   UNL     1      -9.890   5.108  67.136  1.00  0.00    -0.191 A  
HETATM    3  C   UNL     1     -10.539   4.681  65.972  1.00  0.00    -0.244 A  
HETATM    4  C   UNL     1      -9.832   4.077  64.917  1.00  0.00    -0.203 A  
HETATM    5  C   UNL     1     -10.604   3.632  63.704  1.00  0.00    -0.279 C  
HETATM    6  C   UNL     1      -8.437   3.898  65.037  1.00  0.00    -0.109 A  
HETATM    7  C   UNL     1      -7.782   4.345  66.197  1.00  0.00    -0.094 A  
HETATM    8  C   UNL     1      -8.505   4.943  67.237  1.00  0.00    -0.105 A  
ENDROOT
BRANCH   6   9
HETATM    9  C   UNL     1      -7.671   3.186  63.966  1.00  0.00    -0.076 C  
HETATM   10  O   UNL     1      -7.698   1.976  63.805  1.00  0.00    -0.058 OA 
BRANCH   9  11
HETATM   11  O   UNL     1      -6.973   4.063  63.199  1.00  0.00    -0.041 OA 
BRANCH  11  12
HETATM   12  C   UNL     1      -7.736   5.200  62.755  1.00  0.00    -0.071 C  
BRANCH  12  13
HETATM   13  C   UNL     1      -7.286   6.446  63.477  1.00  0.00    -0.066 A  
HETATM   14  C   UNL     1      -5.937   6.822  63.486  1.00  0.00    -0.035 A  
HETATM   15  C   UNL     1      -5.501   7.886  64.279  1.00  0.00    -0.040 A  
HETATM   16  C   UNL     1      -6.408   8.593  65.080  1.00  0.00    -0.060 A  
HETATM   17  C   UNL     1      -7.773   8.282  64.983  1.00  0.00    -0.105 A  
HETATM   18  C   UNL     1      -5.892   9.643  66.061  1.00  0.00    -0.061 C  
HETATM   19  C   UNL     1      -8.205   7.207  64.205  1.00  0.00     0.036 A  
HETATM   20  C   UNL     1      -6.747   9.719  67.342  1.00  0.00    -0.074 C  
HETATM   21  C   UNL     1      -5.793  11.027  65.378  1.00  0.00     0.083 C  
HETATM   22  O   UNL     1      -7.332  10.757  67.649  1.00  0.00    -0.091 OA 
HETATM   23  N   UNL     1      -5.192  12.059  66.238  1.00  0.00    -0.433 NA 
HETATM   24  N   UNL     1      -6.809   8.530  68.061  1.00  0.00    -0.069 N  
HETATM   25  H1  UNL     1      -5.127  12.972  65.787  1.00  0.00     0.000 HD 
HETATM   26  H2  UNL     1      -4.281  11.758  66.581  1.00  0.00     0.000 HD 
HETATM   27  H   UNL     1      -6.314   7.725  67.678  1.00  0.00     0.000 HD 
BRANCH  24  28
HETATM   28  C   UNL     1      -7.504   8.346  69.280  1.00  0.00    -0.084 A  
HETATM   29  C   UNL     1      -6.866   7.942  70.454  1.00  0.00    -0.041 A  
HETATM   30  C   UNL     1      -7.573   7.808  71.649  1.00  0.00    -0.088 A  
HETATM   31  C   UNL     1      -8.947   8.062  71.691  1.00  0.00    -0.192 A  
HETATM   32  C   UNL     1      -9.692   7.950  72.867  1.00  0.00    -0.273 A  
HETATM   33  N   UNL     1     -11.023   8.167  72.954  1.00  0.00    -0.327 NA 
HETATM   34  C   UNL     1     -11.648   8.514  71.811  1.00  0.00    -0.312 A  
HETATM   35  C   UNL     1     -11.006   8.665  70.589  1.00  0.00    -0.274 A  
HETATM   36  C   UNL     1      -9.624   8.437  70.513  1.00  0.00    -0.188 A  
HETATM   37  C   UNL     1      -8.890   8.572  69.312  1.00  0.00    -0.142 A  
ENDBRANCH  24  28
ENDBRANCH  12  13
ENDBRANCH  11  12
ENDBRANCH   9  11
ENDBRANCH   6   9
TORSDOF 5
ENDMDL
MODEL      164
REMARK 921   NORMALIZED FREE ENERGY PREDICTED BY IDOCK:   -2.97 KCAL/MOL
REMARK 922        TOTAL FREE ENERGY PREDICTED BY IDOCK:   -6.06 KCAL/MOL
REMARK 923 INTER-LIGAND FREE ENERGY PREDICTED BY IDOCK:   -6.26 KCAL/MOL
REMARK 924 INTRA-LIGAND FREE ENERGY PREDICTED BY IDOCK:    0.20 KCAL/MOL
REMARK 927      BINDING AFFINITY PREDICTED BY RF-SCORE:    0.00 PKD
ROOT
HETATM    1  C   UNL     1     -13.570  15.876  72.569  1.00  0.00    -0.488 C  
HETATM    2  C   UNL     1     -13.168  14.596  71.897  1.00  0.00    -0.436 A  
HETATM    3  C   UNL     1     -12.683  14.606  70.584  1.00  0.00    -0.417 A  
HETATM    4  C   UNL     1     -12.351  13.414  69.916  1.00  0.00    -0.259 A  
HETATM    5  C   UNL     1     -11.849  13.508  68.500  1.00  0.00    -0.398 C  
HETATM    6  C   UNL     1     -12.512  12.182  70.585  1.00  0.00    -0.330 A  
HETATM    7  C   UNL     1     -12.979  12.173  71.910  1.00  0.00    -0.419 A  
HETATM    8  C   UNL     1     -13.306  13.371  72.558  1.00  0.00    -0.588 A  
ENDROOT
BRANCH   6   9
HETATM    9  C   UNL     1     -12.243  10.894  69.872  1.00  0.00    -0.336 C  
HETATM   10  O   UNL     1     -12.905   9.881  70.033  1.00  0.00     0.158 OA 
BRANCH   9  11
HETATM   11  O   UNL     1     -11.192  11.016  69.020  1.00  0.00    -0.214 OA 
BRANCH  11  12
HETATM   12  C   UNL     1      -9.916  10.696  69.604  1.00  0.00    -0.050 C  
BRANCH  12  13
HETATM   13  C   UNL     1      -9.888   9.252  70.040  1.00  0.00    -0.232 A  
HETATM   14  C   UNL     1      -9.435   8.896  71.316  1.00  0.00    -0.343 A  
HETATM   15  C   UNL     1      -9.265   7.553  71.662  1.00  0.00    -0.152 A  
HETATM   16  C   UNL     1      -9.545   6.540  70.734  1.00  0.00    -0.190 A  
HETATM   17  C   UNL     1     -10.102   6.898  69.497  1.00  0.00    -0.183 A  
HETATM   18  C   UNL     1      -9.201   5.091  71.071  1.00  0.00    -0.191 C  
HETATM   19  C   UNL     1     -10.253   8.240  69.146  1.00  0.00    -0.223 A  
HETATM   20  C   UNL     1      -8.783   4.284  69.825  1.00  0.00    -0.073 C  
HETATM   21  C   UNL     1     -10.377   4.406  71.805  1.00  0.00    -0.071 C  
HETATM   22  O   UNL     1      -9.426   3.297  69.467  1.00  0.00    -0.164 OA 
HETATM   23  N   UNL     1     -10.065   3.042  72.259  1.00  0.00    -0.165 NA 
HETATM   24  N   UNL     1      -7.672   4.791  69.160  1.00  0.00    -0.070 N  
HETATM   25  H1  UNL     1     -10.841   2.590  72.743  1.00  0.00     0.000 HD 
HETATM   26  H2  UNL     1      -9.224   3.037  72.836  1.00  0.00     0.000 HD 
HETATM   27  H   UNL     1      -7.252   5.643  69.532  1.00  0.00     0.000 HD 
BRANCH  24  28
HETATM   28  C   UNL     1      -7.076   4.221  68.009  1.00  0.00    -0.060 A  
HETATM   29  C   UNL     1      -5.895   3.478  68.065  1.00  0.00    -0.026 A  
HETATM   30  C   UNL     1      -5.355   2.896  66.918  1.00  0.00    -0.013 A  
HETATM   31  C   UNL     1      -5.980   3.062  65.679  1.00  0.00    -0.023 A  
HETATM   32  C   UNL     1      -5.480   2.489  64.508  1.00  0.00    -0.009 A  
HETATM   33  N   UNL     1      -6.037   2.635  63.285  1.00  0.00    -0.010 NA 
HETATM   34  C   UNL     1      -7.152   3.390  63.223  1.00  0.00    -0.048 A  
HETATM   35  C   UNL     1      -7.743   3.997  64.324  1.00  0.00    -0.084 A  
HETATM   36  C   UNL     1      -7.154   3.837  65.587  1.00  0.00    -0.066 A  
HETATM   37  C   UNL     1      -7.689   4.415  66.761  1.00  0.00    -0.094 A  
ENDBRANCH  24  28
ENDBRANCH  12  13
ENDBRANCH  11  12
ENDBRANCH   9  11
ENDBRANCH   6   9
TORSDOF 5
ENDMDL
MODEL      165
REMARK 921   NORMALIZED FREE ENERGY PREDICTED BY IDOCK:   -2.86 KCAL/MOL
REMARK 922        TOTAL FREE ENERGY PREDICTED BY IDOCK:   -5.93 KCAL/MOL
REMARK 923 INTER-LIGAND FREE ENERGY PREDICTED BY IDOCK:   -6.04 KCAL/MOL
REMARK 924 INTRA-LIGAND FREE ENERGY PREDICTED BY IDOCK:    0.11 KCAL/MOL
REMARK 927      BINDING AFFINITY PREDICTED BY RF-SCORE:    0.00 PKD
ROOT
HETATM    1  C   UNL     1     -10.689   5.449  67.063  1.00  0.00    -0.233 C  
HETATM    2  C   UNL     1      -9.476   5.956  66.338  1.00  0.00    -0.174 A  
HETATM    3  C   UNL     1      -9.334   5.750  64.962  1.00  0.00     0.399 A  
HETATM    4  C   UNL     1      -8.181   6.168  64.273  1.00  0.00    -0.044 A  
HETATM    5  C   UNL     1      -8.097   5.897  62.794  1.00  0.00    -0.104 C  
HETATM    6  C   UNL     1      -7.147   6.809  64.988  1.00  0.00    -0.064 A  
HETATM    7  C   UNL     1      -7.298   7.034  66.366  1.00  0.00    -0.080 A  
HETATM    8  C   UNL     1      -8.453   6.609  67.034  1.00  0.00    -0.113 A  
ENDROOT
BRANCH   6   9
HETATM    9  C   UNL     1      -5.875   7.192  64.296  1.00  0.00    -0.037 C  
HETATM   10  O   UNL     1      -5.365   6.533  63.405  1.00  0.00    -0.024 OA 
BRANCH   9  11
HETATM   11  O   UNL     1      -5.392   8.367  64.777  1.00  0.00    -0.036 OA 
BRANCH  11  12
HETATM   12  C   UNL     1      -5.465   9.462  63.846  1.00  0.00    -0.063 C  
BRANCH  12  13
HETATM   13  C   UNL     1      -6.885   9.961  63.737  1.00  0.00    -0.125 A  
HETATM   14  C   UNL     1      -7.354  10.538  62.549  1.00  0.00    -0.142 A  
HETATM   15  C   UNL     1      -8.615  11.137  62.499  1.00  0.00    -0.273 A  
HETATM   16  C   UNL     1      -9.431  11.171  63.639  1.00  0.00    -0.278 A  
HETATM   17  C   UNL     1      -9.001  10.497  64.792  1.00  0.00    -0.227 A  
HETATM   18  C   UNL     1     -10.732  11.968  63.613  1.00  0.00    -0.506 C  
HETATM   19  C   UNL     1      -7.734   9.916  64.847  1.00  0.00    -0.134 A  
HETATM   20  C   UNL     1     -11.066  12.590  64.984  1.00  0.00    -0.299 C  
HETATM   21  C   UNL     1     -11.900  11.093  63.103  1.00  0.00     0.853 C  
HETATM   22  O   UNL     1     -12.100  12.288  65.579  1.00  0.00    -0.523 OA 
HETATM   23  N   UNL     1     -13.160  11.836  62.946  1.00  0.00    -0.703 NA 
HETATM   24  N   UNL     1     -10.098  13.464  65.468  1.00  0.00    -0.390 N  
HETATM   25  H1  UNL     1     -13.930  11.258  62.609  1.00  0.00     0.000 HD 
HETATM   26  H2  UNL     1     -13.027  12.649  62.344  1.00  0.00     0.000 HD 
HETATM   27  H   UNL     1      -9.262  13.599  64.898  1.00  0.00     0.000 HD 
BRANCH  24  28
HETATM   28  C   UNL     1     -10.177  14.181  66.686  1.00  0.00    -0.270 A  
HETATM   29  C   UNL     1      -9.202  15.098  67.082  1.00  0.00    -0.226 A  
HETATM   30  C   UNL     1      -9.330  15.818  68.270  1.00  0.00    -0.193 A  
HETATM   31  C   UNL     1     -10.438  15.621  69.101  1.00  0.00    -0.236 A  
HETATM   32  C   UNL     1     -10.611  16.327  70.293  1.00  0.00    -0.089 A  
HETATM   33  N   UNL     1     -11.653  16.159  71.137  1.00  0.00    -0.431 NA 
HETATM   34  C   UNL     1     -12.572  15.241  70.778  1.00  0.00    -0.417 A  
HETATM   35  C   UNL     1     -12.506  14.491  69.611  1.00  0.00    -0.208 A  
HETATM   36  C   UNL     1     -11.419  14.675  68.743  1.00  0.00    -0.322 A  
HETATM   37  C   UNL     1     -11.275  13.959  67.533  1.00  0.00    -0.323 A  
ENDBRANCH  24  28
ENDBRANCH  12  13
ENDBRANCH  11  12
ENDBRANCH   9  11
ENDBRANCH   6   9
TORSDOF 5
ENDMDL
MODEL      166
REMARK 921   NORMALIZED FREE ENERGY PREDICTED BY IDOCK:   -2.85 KCAL/MOL
REMARK 922        TOTAL FREE ENERGY PREDICTED BY IDOCK:   -5.91 KCAL/MOL
REMARK 923 INTER-LIGAND FREE ENERGY PREDICTED BY IDOCK:   -6.16 KCAL/MOL
REMARK 924 INTRA-LIGAND FREE ENERGY PREDICTED BY IDOCK:    0.25 KCAL/MOL
REMARK 927      BINDING AFFINITY PREDICTED BY RF-SCORE:    0.00 PKD
ROOT
HETATM    1  C   UNL     1      -7.587   2.882  63.276  1.00  0.00    -0.063 C  
HETATM    2  C   UNL     1      -7.772   4.120  64.105  1.00  0.00    -0.083 A  
HETATM    3  C   UNL     1      -6.664   4.797  64.627  1.00  0.00    -0.044 A  
HETATM    4  C   UNL     1      -6.815   5.927  65.450  1.00  0.00    -0.055 A  
HETATM    5  C   UNL     1      -5.574   6.591  65.984  1.00  0.00    -0.017 C  
HETATM    6  C   UNL     1      -8.114   6.387  65.756  1.00  0.00    -0.127 A  
HETATM    7  C   UNL     1      -9.226   5.720  65.215  1.00  0.00     0.145 A  
HETATM    8  C   UNL     1      -9.054   4.595  64.398  1.00  0.00    -0.122 A  
ENDROOT
BRANCH   6   9
HETATM    9  C   UNL     1      -8.307   7.537  66.693  1.00  0.00    -0.127 C  
HETATM   10  O   UNL     1      -8.975   8.524  66.425  1.00  0.00    -0.145 OA 
BRANCH   9  11
HETATM   11  O   UNL     1      -7.667   7.321  67.871  1.00  0.00    -0.108 OA 
BRANCH  11  12
HETATM   12  C   UNL     1      -8.493   6.738  68.896  1.00  0.00    -0.120 C  
BRANCH  12  13
HETATM   13  C   UNL     1      -9.486   7.752  69.407  1.00  0.00    -0.156 A  
HETATM   14  C   UNL     1     -10.843   7.427  69.533  1.00  0.00    -0.201 A  
HETATM   15  C   UNL     1     -11.782   8.408  69.858  1.00  0.00     0.422 A  
HETATM   16  C   UNL     1     -11.380   9.735  70.063  1.00  0.00    -0.269 A  
HETATM   17  C   UNL     1     -10.009  10.032  70.043  1.00  0.00    -0.273 A  
HETATM   18  C   UNL     1     -12.434  10.823  70.256  1.00  0.00    -0.395 C  
HETATM   19  C   UNL     1      -9.074   9.055  69.699  1.00  0.00    -0.155 A  
HETATM   20  C   UNL     1     -11.993  12.178  69.668  1.00  0.00    -0.284 C  
HETATM   21  C   UNL     1     -12.807  10.963  71.750  1.00  0.00    -0.404 C  
HETATM   22  O   UNL     1     -11.871  13.169  70.388  1.00  0.00    -0.290 OA 
HETATM   23  N   UNL     1     -13.902  11.916  71.990  1.00  0.00    -0.026 NA 
HETATM   24  N   UNL     1     -11.725  12.151  68.303  1.00  0.00    -0.331 N  
HETATM   25  H1  UNL     1     -14.148  12.008  72.976  1.00  0.00     0.000 HD 
HETATM   26  H2  UNL     1     -14.721  11.673  71.433  1.00  0.00     0.000 HD 
HETATM   27  H   UNL     1     -11.822  11.255  67.825  1.00  0.00     0.000 HD 
BRANCH  24  28
HETATM   28  C   UNL     1     -11.330  13.264  67.524  1.00  0.00    -0.296 A  
HETATM   29  C   UNL     1     -10.861  13.136  66.215  1.00  0.00    -0.292 A  
HETATM   30  C   UNL     1     -10.517  14.258  65.460  1.00  0.00    -0.361 A  
HETATM   31  C   UNL     1     -10.621  15.540  66.009  1.00  0.00    -0.333 A  
HETATM   32  C   UNL     1     -10.298  16.690  65.285  1.00  0.00    -0.092 A  
HETATM   33  N   UNL     1     -10.364  17.947  65.777  1.00  0.00    -0.615 NA 
HETATM   34  C   UNL     1     -10.774  18.068  67.055  1.00  0.00    -0.238 A  
HETATM   35  C   UNL     1     -11.131  16.996  67.862  1.00  0.00    -0.125 A  
HETATM   36  C   UNL     1     -11.058  15.696  67.339  1.00  0.00    -0.260 A  
HETATM   37  C   UNL     1     -11.407  14.548  68.088  1.00  0.00    -0.319 A  
ENDBRANCH  24  28
ENDBRANCH  12  13
ENDBRANCH  11  12
ENDBRANCH   9  11
ENDBRANCH   6   9
TORSDOF 5
ENDMDL
MODEL      167
REMARK 921   NORMALIZED FREE ENERGY PREDICTED BY IDOCK:   -2.83 KCAL/MOL
REMARK 922        TOTAL FREE ENERGY PREDICTED BY IDOCK:   -5.88 KCAL/MOL
REMARK 923 INTER-LIGAND FREE ENERGY PREDICTED BY IDOCK:   -5.23 KCAL/MOL
REMARK 924 INTRA-LIGAND FREE ENERGY PREDICTED BY IDOCK:   -0.65 KCAL/MOL
REMARK 927      BINDING AFFINITY PREDICTED BY RF-SCORE:    0.00 PKD
ROOT
HETATM    1  C   UNL     1      -5.180  16.024  68.299  1.00  0.00    -0.104 C  
HETATM    2  C   UNL     1      -6.574  15.824  67.781  1.00  0.00    -0.181 A  
HETATM    3  C   UNL     1      -7.099  14.535  67.636  1.00  0.00    -0.202 A  
HETATM    4  C   UNL     1      -8.383  14.321  67.102  1.00  0.00    -0.202 A  
HETATM    5  C   UNL     1      -8.871  12.904  66.964  1.00  0.00    -0.208 C  
HETATM    6  C   UNL     1      -9.156  15.433  66.704  1.00  0.00    -0.310 A  
HETATM    7  C   UNL     1      -8.637  16.728  66.868  1.00  0.00    -0.240 A  
HETATM    8  C   UNL     1      -7.356  16.920  67.401  1.00  0.00    -0.186 A  
ENDROOT
BRANCH   6   9
HETATM    9  C   UNL     1     -10.491  15.233  66.058  1.00  0.00    -0.317 C  
HETATM   10  O   UNL     1     -10.695  15.384  64.864  1.00  0.00    -0.420 OA 
BRANCH   9  11
HETATM   11  O   UNL     1     -11.421  14.843  66.968  1.00  0.00    -0.353 OA 
BRANCH  11  12
HETATM   12  C   UNL     1     -12.159  13.665  66.593  1.00  0.00    -0.411 C  
BRANCH  12  13
HETATM   13  C   UNL     1     -12.036  12.609  67.664  1.00  0.00    -0.166 A  
HETATM   14  C   UNL     1     -11.689  12.955  68.976  1.00  0.00    -0.375 A  
HETATM   15  C   UNL     1     -11.426  11.965  69.927  1.00  0.00    -0.264 A  
HETATM   16  C   UNL     1     -11.505  10.609  69.581  1.00  0.00    -0.361 A  
HETATM   17  C   UNL     1     -11.960  10.270  68.297  1.00  0.00     0.727 A  
HETATM   18  C   UNL     1     -11.059   9.546  70.581  1.00  0.00    -0.364 C  
HETATM   19  C   UNL     1     -12.203  11.258  67.343  1.00  0.00     1.028 A  
HETATM   20  C   UNL     1     -10.434   8.318  69.891  1.00  0.00    -0.223 C  
HETATM   21  C   UNL     1     -12.234   9.129  71.496  1.00  0.00    -0.349 C  
HETATM   22  O   UNL     1     -10.934   7.200  70.016  1.00  0.00    -0.251 OA 
HETATM   23  N   UNL     1     -11.840   8.190  72.558  1.00  0.00    -0.463 NA 
HETATM   24  N   UNL     1      -9.312   8.603  69.119  1.00  0.00    -0.152 N  
HETATM   25  H1  UNL     1     -12.615   7.915  73.162  1.00  0.00     0.000 HD 
HETATM   26  H2  UNL     1     -11.069   8.570  73.108  1.00  0.00     0.000 HD 
HETATM   27  H   UNL     1      -9.020   9.579  69.060  1.00  0.00     0.000 HD 
BRANCH  24  28
HETATM   28  C   UNL     1      -8.544   7.651  68.408  1.00  0.00    -0.124 A  
HETATM   29  C   UNL     1      -7.149   7.624  68.456  1.00  0.00    -0.081 A  
HETATM   30  C   UNL     1      -6.423   6.647  67.775  1.00  0.00    -0.053 A  
HETATM   31  C   UNL     1      -7.082   5.679  67.011  1.00  0.00    -0.070 A  
HETATM   32  C   UNL     1      -6.395   4.677  66.322  1.00  0.00    -0.036 A  
HETATM   33  N   UNL     1      -6.985   3.731  65.558  1.00  0.00    -0.060 NA 
HETATM   34  C   UNL     1      -8.329   3.783  65.474  1.00  0.00    -0.105 A  
HETATM   35  C   UNL     1      -9.113   4.727  66.125  1.00  0.00    -0.129 A  
HETATM   36  C   UNL     1      -8.487   5.703  66.916  1.00  0.00    -0.111 A  
HETATM   37  C   UNL     1      -9.207   6.697  67.617  1.00  0.00    -0.110 A  
ENDBRANCH  24  28
ENDBRANCH  12  13
ENDBRANCH  11  12
ENDBRANCH   9  11
ENDBRANCH   6   9
TORSDOF 5
ENDMDL
MODEL      168
REMARK 921   NORMALIZED FREE ENERGY PREDICTED BY IDOCK:   -2.75 KCAL/MOL
REMARK 922        TOTAL FREE ENERGY PREDICTED BY IDOCK:   -5.78 KCAL/MOL
REMARK 923 INTER-LIGAND FREE ENERGY PREDICTED BY IDOCK:   -5.64 KCAL/MOL
REMARK 924 INTRA-LIGAND FREE ENERGY PREDICTED BY IDOCK:   -0.14 KCAL/MOL
REMARK 927      BINDING AFFINITY PREDICTED BY RF-SCORE:    0.00 PKD
ROOT
HETATM    1  C   UNL     1      -6.507  13.871  68.867  1.00  0.00    -0.098 C  
HETATM    2  C   UNL     1      -7.824  13.320  68.402  1.00  0.00    -0.137 A  
HETATM    3  C   UNL     1      -8.898  14.177  68.137  1.00  0.00    -0.183 A  
HETATM    4  C   UNL     1     -10.156  13.680  67.754  1.00  0.00    -0.242 A  
HETATM    5  C   UNL     1     -11.265  14.666  67.501  1.00  0.00    -0.343 C  
HETATM    6  C   UNL     1     -10.337  12.285  67.634  1.00  0.00    -0.214 A  
HETATM    7  C   UNL     1      -9.254  11.426  67.880  1.00  0.00    -0.164 A  
HETATM    8  C   UNL     1      -8.008  11.941  68.262  1.00  0.00    -0.148 A  
ENDROOT
BRANCH   6   9
HETATM    9  C   UNL     1     -11.685  11.724  67.305  1.00  0.00    -0.217 C  
HETATM   10  O   UNL     1     -12.164  11.727  66.182  1.00  0.00    -0.336 OA 
BRANCH   9  11
HETATM   11  O   UNL     1     -12.279  11.200  68.409  1.00  0.00    -0.610 OA 
BRANCH  11  12
HETATM   12  C   UNL     1     -11.489  11.296  69.609  1.00  0.00    -0.309 C  
BRANCH  12  13
HETATM   13  C   UNL     1     -11.316   9.933  70.232  1.00  0.00    -0.357 A  
HETATM   14  C   UNL     1     -10.923   9.800  71.570  1.00  0.00    -0.139 A  
HETATM   15  C   UNL     1     -10.616   8.545  72.099  1.00  0.00    -0.419 A  
HETATM   16  C   UNL     1     -10.695   7.397  71.298  1.00  0.00    -0.238 A  
HETATM   17  C   UNL     1     -11.194   7.523  69.992  1.00  0.00    -0.173 A  
HETATM   18  C   UNL     1     -10.202   6.059  71.843  1.00  0.00    -0.237 C  
HETATM   19  C   UNL     1     -11.482   8.780  69.458  1.00  0.00     0.369 A  
HETATM   20  C   UNL     1      -9.592   5.168  70.743  1.00  0.00    -0.179 C  
HETATM   21  C   UNL     1     -11.338   5.320  72.587  1.00  0.00    -0.231 C  
HETATM   22  O   UNL     1     -10.077   4.067  70.480  1.00  0.00    -0.135 OA 
HETATM   23  N   UNL     1     -10.896   4.075  73.236  1.00  0.00    -0.201 NA 
HETATM   24  N   UNL     1      -8.503   5.732  70.086  1.00  0.00    -0.119 N  
HETATM   25  H1  UNL     1     -11.645   3.588  73.727  1.00  0.00     0.000 HD 
HETATM   26  H2  UNL     1     -10.108   4.252  73.859  1.00  0.00     0.000 HD 
HETATM   27  H   UNL     1      -8.222   6.671  70.368  1.00  0.00     0.000 HD 
BRANCH  24  28
HETATM   28  C   UNL     1      -7.753   5.109  69.060  1.00  0.00    -0.081 A  
HETATM   29  C   UNL     1      -6.398   4.805  69.199  1.00  0.00    -0.032 A  
HETATM   30  C   UNL     1      -5.697   4.156  68.183  1.00  0.00    -0.021 A  
HETATM   31  C   UNL     1      -6.339   3.808  66.990  1.00  0.00    -0.036 A  
HETATM   32  C   UNL     1      -5.679   3.148  65.952  1.00  0.00    -0.018 A  
HETATM   33  N   UNL     1      -6.250   2.808  64.775  1.00  0.00    -0.019 NA 
HETATM   34  C   UNL     1      -7.547   3.141  64.622  1.00  0.00    -0.077 A  
HETATM   35  C   UNL     1      -8.303   3.788  65.591  1.00  0.00    -0.105 A  
HETATM   36  C   UNL     1      -7.698   4.135  66.808  1.00  0.00    -0.089 A  
HETATM   37  C   UNL     1      -8.393   4.789  67.851  1.00  0.00    -0.103 A  
ENDBRANCH  24  28
ENDBRANCH  12  13
ENDBRANCH  11  12
ENDBRANCH   9  11
ENDBRANCH   6   9
TORSDOF 5
ENDMDL
MODEL      169
REMARK 921   NORMALIZED FREE ENERGY PREDICTED BY IDOCK:   -2.74 KCAL/MOL
REMARK 922        TOTAL FREE ENERGY PREDICTED BY IDOCK:   -5.76 KCAL/MOL
REMARK 923 INTER-LIGAND FREE ENERGY PREDICTED BY IDOCK:   -5.43 KCAL/MOL
REMARK 924 INTRA-LIGAND FREE ENERGY PREDICTED BY IDOCK:   -0.33 KCAL/MOL
REMARK 927      BINDING AFFINITY PREDICTED BY RF-SCORE:    0.00 PKD
ROOT
HETATM    1  C   UNL     1      -5.758  19.551  64.365  1.00  0.00    -0.308 C  
HETATM    2  C   UNL     1      -6.781  19.376  65.450  1.00  0.00    -0.300 A  
HETATM    3  C   UNL     1      -6.393  19.352  66.794  1.00  0.00    -0.186 A  
HETATM    4  C   UNL     1      -7.326  19.135  67.824  1.00  0.00    -0.276 A  
HETATM    5  C   UNL     1      -6.827  19.109  69.244  1.00  0.00    -0.336 C  
HETATM    6  C   UNL     1      -8.684  18.939  67.491  1.00  0.00    -0.296 A  
HETATM    7  C   UNL     1      -9.077  18.983  66.144  1.00  0.00    -0.204 A  
HETATM    8  C   UNL     1      -8.132  19.199  65.133  1.00  0.00     1.488 A  
ENDROOT
BRANCH   6   9
HETATM    9  C   UNL     1      -9.685  18.626  68.559  1.00  0.00    -0.370 C  
HETATM   10  O   UNL     1     -10.177  19.469  69.293  1.00  0.00    -0.343 OA 
BRANCH   9  11
HETATM   11  O   UNL     1      -9.982  17.301  68.579  1.00  0.00    -0.283 OA 
BRANCH  11  12
HETATM   12  C   UNL     1      -8.831  16.437  68.607  1.00  0.00    -0.234 C  
BRANCH  12  13
HETATM   13  C   UNL     1      -9.128  15.147  67.882  1.00  0.00    -0.179 A  
HETATM   14  C   UNL     1     -10.369  14.940  67.266  1.00  0.00    -0.251 A  
HETATM   15  C   UNL     1     -10.698  13.693  66.731  1.00  0.00    -0.272 A  
HETATM   16  C   UNL     1      -9.790  12.627  66.804  1.00  0.00    -0.236 A  
HETATM   17  C   UNL     1      -8.509  12.871  67.324  1.00  0.00    -0.197 A  
HETATM   18  C   UNL     1     -10.225  11.232  66.362  1.00  0.00    -0.273 C  
HETATM   19  C   UNL     1      -8.189  14.112  67.875  1.00  0.00    -0.155 A  
HETATM   20  C   UNL     1      -9.554  10.119  67.192  1.00  0.00    -0.169 C  
HETATM   21  C   UNL     1      -9.963  11.030  64.852  1.00  0.00    -0.288 C  
HETATM   22  O   UNL     1      -8.828   9.282  66.656  1.00  0.00    -0.125 OA 
HETATM   23  N   UNL     1     -10.466   9.746  64.340  1.00  0.00     0.199 NA 
HETATM   24  N   UNL     1      -9.819  10.182  68.556  1.00  0.00    -0.150 N  
HETATM   25  H1  UNL     1     -10.294   9.613  63.343  1.00  0.00     0.000 HD 
HETATM   26  H2  UNL     1     -11.457   9.635  64.554  1.00  0.00     0.000 HD 
HETATM   27  H   UNL     1     -10.402  10.952  68.885  1.00  0.00     0.000 HD 
BRANCH  24  28
HETATM   28  C   UNL     1      -9.345   9.266  69.526  1.00  0.00    -0.173 A  
HETATM   29  C   UNL     1      -8.028   8.804  69.543  1.00  0.00    -0.096 A  
HETATM   30  C   UNL     1      -7.583   7.932  70.536  1.00  0.00    -0.081 A  
HETATM   31  C   UNL     1      -8.458   7.487  71.532  1.00  0.00    -0.120 A  
HETATM   32  C   UNL     1      -8.051   6.623  72.551  1.00  0.00    -0.102 A  
HETATM   33  N   UNL     1      -8.863   6.152  73.524  1.00  0.00    -0.125 NA 
HETATM   34  C   UNL     1     -10.146   6.563  73.483  1.00  0.00    -0.240 A  
HETATM   35  C   UNL     1     -10.655   7.428  72.523  1.00  0.00    -0.304 A  
HETATM   36  C   UNL     1      -9.802   7.910  71.520  1.00  0.00    -0.206 A  
HETATM   37  C   UNL     1     -10.234   8.798  70.508  1.00  0.00    -0.240 A  
ENDBRANCH  24  28
ENDBRANCH  12  13
ENDBRANCH  11  12
ENDBRANCH   9  11
ENDBRANCH   6   9
TORSDOF 5
ENDMDL
MODEL      170
REMARK 921   NORMALIZED FREE ENERGY PREDICTED BY IDOCK:   -2.70 KCAL/MOL
REMARK 922        TOTAL FREE ENERGY PREDICTED BY IDOCK:   -5.72 KCAL/MOL
REMARK 923 INTER-LIGAND FREE ENERGY PREDICTED BY IDOCK:   -4.91 KCAL/MOL
REMARK 924 INTRA-LIGAND FREE ENERGY PREDICTED BY IDOCK:   -0.81 KCAL/MOL
REMARK 927      BINDING AFFINITY PREDICTED BY RF-SCORE:    0.00 PKD
ROOT
HETATM    1  C   UNL     1      -6.713  18.268  66.332  1.00  0.00    -0.256 C  
HETATM    2  C   UNL     1      -7.841  17.402  66.815  1.00  0.00    -0.273 A  
HETATM    3  C   UNL     1      -8.289  16.324  66.043  1.00  0.00    -0.099 A  
HETATM    4  C   UNL     1      -9.378  15.534  66.449  1.00  0.00    -0.330 A  
HETATM    5  C   UNL     1      -9.809  14.401  65.556  1.00  0.00    -0.299 C  
HETATM    6  C   UNL     1     -10.033  15.836  67.662  1.00  0.00    -0.239 A  
HETATM    7  C   UNL     1      -9.572  16.906  68.448  1.00  0.00    -0.255 A  
HETATM    8  C   UNL     1      -8.485  17.682  68.025  1.00  0.00    -0.244 A  
ENDROOT
BRANCH   6   9
HETATM    9  C   UNL     1     -11.245  15.063  68.080  1.00  0.00    -0.308 C  
HETATM   10  O   UNL     1     -12.386  15.384  67.788  1.00  0.00     0.300 OA 
BRANCH   9  11
HETATM   11  O   UNL     1     -10.900  13.962  68.797  1.00  0.00    -0.252 OA 
BRANCH  11  12
HETATM   12  C   UNL     1     -11.232  12.714  68.161  1.00  0.00    -0.269 C  
BRANCH  12  13
HETATM   13  C   UNL     1     -10.143  11.698  68.404  1.00  0.00    -0.207 A  
HETATM   14  C   UNL     1      -8.812  12.099  68.574  1.00  0.00    -0.079 A  
HETATM   15  C   UNL     1      -7.788  11.153  68.644  1.00  0.00    -0.138 A  
HETATM   16  C   UNL     1      -8.076   9.785  68.543  1.00  0.00    -0.104 A  
HETATM   17  C   UNL     1      -9.420   9.385  68.483  1.00  0.00    -0.150 A  
HETATM   18  C   UNL     1      -6.934   8.776  68.459  1.00  0.00    -0.065 C  
HETATM   19  C   UNL     1     -10.441  10.332  68.394  1.00  0.00    -0.228 A  
HETATM   20  C   UNL     1      -7.291   7.559  67.581  1.00  0.00    -0.103 C  
HETATM   21  C   UNL     1      -6.493   8.329  69.872  1.00  0.00    -0.039 C  
HETATM   22  O   UNL     1      -7.306   6.422  68.054  1.00  0.00    -0.085 OA 
HETATM   23  N   UNL     1      -5.318   7.443  69.863  1.00  0.00    -0.023 NA 
HETATM   24  N   UNL     1      -7.613   7.876  66.266  1.00  0.00    -0.082 N  
HETATM   25  H1  UNL     1      -5.028   7.148  70.795  1.00  0.00     0.000 HD 
HETATM   26  H2  UNL     1      -4.543   7.876  69.361  1.00  0.00     0.000 HD 
HETATM   27  H   UNL     1      -7.605   8.863  66.006  1.00  0.00     0.000 HD 
BRANCH  24  28
HETATM   28  C   UNL     1      -7.950   6.942  65.257  1.00  0.00    -0.127 A  
HETATM   29  C   UNL     1      -7.420   7.005  63.967  1.00  0.00    -0.099 A  
HETATM   30  C   UNL     1      -7.742   6.046  63.007  1.00  0.00    -0.094 A  
HETATM   31  C   UNL     1      -8.621   5.003  63.317  1.00  0.00    -0.112 A  
HETATM   32  C   UNL     1      -8.962   4.015  62.390  1.00  0.00    -0.097 A  
HETATM   33  N   UNL     1      -9.819   2.999  62.636  1.00  0.00    -0.092 NA 
HETATM   34  C   UNL     1     -10.365   2.961  63.868  1.00  0.00    -0.148 A  
HETATM   35  C   UNL     1     -10.089   3.884  64.869  1.00  0.00    -0.187 A  
HETATM   36  C   UNL     1      -9.197   4.933  64.601  1.00  0.00    -0.032 A  
HETATM   37  C   UNL     1      -8.855   5.912  65.562  1.00  0.00    -0.100 A  
ENDBRANCH  24  28
ENDBRANCH  12  13
ENDBRANCH  11  12
ENDBRANCH   9  11
ENDBRANCH   6   9
TORSDOF 5
ENDMDL
MODEL      171
REMARK 921   NORMALIZED FREE ENERGY PREDICTED BY IDOCK:   -2.68 KCAL/MOL
REMARK 922        TOTAL FREE ENERGY PREDICTED BY IDOCK:   -5.68 KCAL/MOL
REMARK 923 INTER-LIGAND FREE ENERGY PREDICTED BY IDOCK:   -5.96 KCAL/MOL
REMARK 924 INTRA-LIGAND FREE ENERGY PREDICTED BY IDOCK:    0.27 KCAL/MOL
REMARK 927      BINDING AFFINITY PREDICTED BY RF-SCORE:    0.00 PKD
ROOT
HETATM    1  C   UNL     1     -13.736  13.234  72.193  1.00  0.00    -0.619 C  
HETATM    2  C   UNL     1     -12.882  12.375  71.306  1.00  0.00    -0.337 A  
HETATM    3  C   UNL     1     -12.215  12.931  70.209  1.00  0.00    -0.362 A  
HETATM    4  C   UNL     1     -11.453  12.136  69.334  1.00  0.00    -0.355 A  
HETATM    5  C   UNL     1     -10.778  12.807  68.168  1.00  0.00    -0.243 C  
HETATM    6  C   UNL     1     -11.362  10.748  69.569  1.00  0.00    -0.355 A  
HETATM    7  C   UNL     1     -12.014  10.192  70.682  1.00  0.00    -0.423 A  
HETATM    8  C   UNL     1     -12.769  11.001  71.542  1.00  0.00    -0.521 A  
ENDROOT
BRANCH   6   9
HETATM    9  C   UNL     1     -10.625   9.866  68.610  1.00  0.00    -0.217 C  
HETATM   10  O   UNL     1     -11.153   8.967  67.975  1.00  0.00     0.018 OA 
BRANCH   9  11
HETATM   11  O   UNL     1      -9.315  10.215  68.531  1.00  0.00    -0.143 OA 
BRANCH  11  12
HETATM   12  C   UNL     1      -8.618  10.187  69.791  1.00  0.00    -0.128 C  
BRANCH  12  13
HETATM   13  C   UNL     1      -8.363   8.762  70.215  1.00  0.00    -0.139 A  
HETATM   14  C   UNL     1      -7.159   8.402  70.835  1.00  0.00    -0.057 A  
HETATM   15  C   UNL     1      -6.862   7.061  71.087  1.00  0.00    -0.060 A  
HETATM   16  C   UNL     1      -7.764   6.053  70.721  1.00  0.00    -0.098 A  
HETATM   17  C   UNL     1      -9.013   6.426  70.201  1.00  0.00    -0.154 A  
HETATM   18  C   UNL     1      -7.356   4.588  70.855  1.00  0.00    -0.051 C  
HETATM   19  C   UNL     1      -9.301   7.765  69.932  1.00  0.00    -0.157 A  
HETATM   20  C   UNL     1      -7.979   3.704  69.756  1.00  0.00    -0.050 C  
HETATM   21  C   UNL     1      -7.704   4.049  72.262  1.00  0.00    -0.079 C  
HETATM   22  O   UNL     1      -8.734   2.776  70.044  1.00  0.00    -0.058 OA 
HETATM   23  N   UNL     1      -7.231   2.675  72.493  1.00  0.00    -0.031 NA 
HETATM   24  N   UNL     1      -7.636   4.074  68.459  1.00  0.00    -0.058 N  
HETATM   25  H1  UNL     1      -7.460   2.320  73.421  1.00  0.00     0.000 HD 
HETATM   26  H2  UNL     1      -6.229   2.603  72.314  1.00  0.00     0.000 HD 
HETATM   27  H   UNL     1      -7.035   4.891  68.349  1.00  0.00     0.000 HD 
BRANCH  24  28
HETATM   28  C   UNL     1      -8.054   3.411  67.281  1.00  0.00    -0.082 A  
HETATM   29  C   UNL     1      -7.529   2.179  66.886  1.00  0.00    -0.061 A  
HETATM   30  C   UNL     1      -7.991   1.533  65.739  1.00  0.00    -0.069 A  
HETATM   31  C   UNL     1      -8.984   2.119  64.948  1.00  0.00    -0.125 A  
HETATM   32  C   UNL     1      -9.483   1.502  63.799  1.00  0.00    -0.114 A  
HETATM   33  N   UNL     1     -10.428   2.036  62.993  1.00  0.00    -0.125 NA 
HETATM   34  C   UNL     1     -10.903   3.246  63.349  1.00  0.00    -0.207 A  
HETATM   35  C   UNL     1     -10.488   3.944  64.475  1.00  0.00    -0.221 A  
HETATM   36  C   UNL     1      -9.507   3.378  65.303  1.00  0.00    -0.145 A  
HETATM   37  C   UNL     1      -9.030   4.016  66.472  1.00  0.00    -0.131 A  
ENDBRANCH  24  28
ENDBRANCH  12  13
ENDBRANCH  11  12
ENDBRANCH   9  11
ENDBRANCH   6   9
TORSDOF 5
ENDMDL
MODEL      172
REMARK 921   NORMALIZED FREE ENERGY PREDICTED BY IDOCK:   -2.47 KCAL/MOL
REMARK 922        TOTAL FREE ENERGY PREDICTED BY IDOCK:   -5.42 KCAL/MOL
REMARK 923 INTER-LIGAND FREE ENERGY PREDICTED BY IDOCK:   -5.88 KCAL/MOL
REMARK 924 INTRA-LIGAND FREE ENERGY PREDICTED BY IDOCK:    0.47 KCAL/MOL
REMARK 927      BINDING AFFINITY PREDICTED BY RF-SCORE:    0.00 PKD
ROOT
HETATM    1  C   UNL     1      -6.188  21.015  67.274  1.00  0.00    -0.387 C  
HETATM    2  C   UNL     1      -7.105  19.826  67.243  1.00  0.00    -0.250 A  
HETATM    3  C   UNL     1      -6.583  18.528  67.210  1.00  0.00    -0.207 A  
HETATM    4  C   UNL     1      -7.421  17.402  67.125  1.00  0.00    -0.219 A  
HETATM    5  C   UNL     1      -6.782  16.040  67.080  1.00  0.00    -0.138 C  
HETATM    6  C   UNL     1      -8.819  17.588  67.072  1.00  0.00    -0.252 A  
HETATM    7  C   UNL     1      -9.345  18.890  67.125  1.00  0.00    -0.328 A  
HETATM    8  C   UNL     1      -8.492  19.999  67.208  1.00  0.00    -0.390 A  
ENDROOT
BRANCH   6   9
HETATM    9  C   UNL     1      -9.731  16.414  66.901  1.00  0.00    -0.251 C  
HETATM   10  O   UNL     1     -10.840  16.486  66.395  1.00  0.00    -0.196 OA 
BRANCH   9  11
HETATM   11  O   UNL     1      -9.152  15.274  67.358  1.00  0.00    -0.184 OA 
BRANCH  11  12
HETATM   12  C   UNL     1      -9.636  14.071  66.731  1.00  0.00    -0.286 C  
BRANCH  12  13
HETATM   13  C   UNL     1      -9.416  12.884  67.637  1.00  0.00    -0.197 A  
HETATM   14  C   UNL     1      -8.227  12.748  68.365  1.00  0.00    -0.128 A  
HETATM   15  C   UNL     1      -7.961  11.578  69.080  1.00  0.00     0.013 A  
HETATM   16  C   UNL     1      -8.881  10.521  69.079  1.00  0.00    -0.174 A  
HETATM   17  C   UNL     1     -10.117  10.706  68.438  1.00  0.00    -0.181 A  
HETATM   18  C   UNL     1      -8.506   9.191  69.729  1.00  0.00    -0.140 C  
HETATM   19  C   UNL     1     -10.373  11.868  67.708  1.00  0.00    -0.214 A  
HETATM   20  C   UNL     1      -9.136   7.986  69.003  1.00  0.00    -0.144 C  
HETATM   21  C   UNL     1      -8.880   9.191  71.229  1.00  0.00    -0.112 C  
HETATM   22  O   UNL     1      -9.915   7.232  69.588  1.00  0.00    -0.172 OA 
HETATM   23  N   UNL     1      -8.439   7.981  71.939  1.00  0.00    -0.124 NA 
HETATM   24  N   UNL     1      -8.773   7.868  67.665  1.00  0.00    -0.126 N  
HETATM   25  H1  UNL     1      -8.686   7.981  72.929  1.00  0.00     0.000 HD 
HETATM   26  H2  UNL     1      -7.438   7.833  71.815  1.00  0.00     0.000 HD 
HETATM   27  H   UNL     1      -8.153   8.582  67.284  1.00  0.00     0.000 HD 
BRANCH  24  28
HETATM   28  C   UNL     1      -9.192   6.837  66.791  1.00  0.00    -0.150 A  
HETATM   29  C   UNL     1     -10.510   6.376  66.750  1.00  0.00    -0.304 A  
HETATM   30  C   UNL     1     -10.899   5.386  65.849  1.00  0.00     0.103 A  
HETATM   31  C   UNL     1      -9.968   4.820  64.972  1.00  0.00     0.044 A  
HETATM   32  C   UNL     1     -10.317   3.835  64.046  1.00  0.00    -0.250 A  
HETATM   33  N   UNL     1      -9.451   3.246  63.192  1.00  0.00    -0.095 NA 
HETATM   34  C   UNL     1      -8.170   3.659  63.261  1.00  0.00    -0.088 A  
HETATM   35  C   UNL     1      -7.714   4.638  64.134  1.00  0.00    -0.078 A  
HETATM   36  C   UNL     1      -8.624   5.242  65.015  1.00  0.00    -0.150 A  
HETATM   37  C   UNL     1      -8.248   6.250  65.932  1.00  0.00    -0.129 A  
ENDBRANCH  24  28
ENDBRANCH  12  13
ENDBRANCH  11  12
ENDBRANCH   9  11
ENDBRANCH   6   9
TORSDOF 5
ENDMDL
MODEL      173
REMARK 921   NORMALIZED FREE ENERGY PREDICTED BY IDOCK:   -2.40 KCAL/MOL
REMARK 922        TOTAL FREE ENERGY PREDICTED BY IDOCK:   -5.33 KCAL/MOL
REMARK 923 INTER-LIGAND FREE ENERGY PREDICTED BY IDOCK:   -6.34 KCAL/MOL
REMARK 924 INTRA-LIGAND FREE ENERGY PREDICTED BY IDOCK:    1.02 KCAL/MOL
REMARK 927      BINDING AFFINITY PREDICTED BY RF-SCORE:    0.00 PKD
ROOT
HETATM    1  C   UNL     1      -5.228   9.847  62.330  1.00  0.00    -0.087 C  
HETATM    2  C   UNL     1      -6.449   9.942  63.199  1.00  0.00    -0.123 A  
HETATM    3  C   UNL     1      -6.337   9.856  64.591  1.00  0.00    -0.117 A  
HETATM    4  C   UNL     1      -7.472   9.888  65.421  1.00  0.00    -0.132 A  
HETATM    5  C   UNL     1      -7.270   9.776  66.909  1.00  0.00    -0.090 C  
HETATM    6  C   UNL     1      -8.750  10.008  64.835  1.00  0.00    -0.201 A  
HETATM    7  C   UNL     1      -8.861  10.114  63.438  1.00  0.00    -0.240 A  
HETATM    8  C   UNL     1      -7.718  10.080  62.629  1.00  0.00    -0.138 A  
ENDROOT
BRANCH   6   9
HETATM    9  C   UNL     1      -9.980   9.964  65.687  1.00  0.00    -0.283 C  
HETATM   10  O   UNL     1     -10.391   8.951  66.230  1.00  0.00    -0.240 OA 
BRANCH   9  11
HETATM   11  O   UNL     1     -10.550  11.193  65.788  1.00  0.00    -0.259 OA 
BRANCH  11  12
HETATM   12  C   UNL     1     -10.202  11.910  66.987  1.00  0.00    -0.210 C  
BRANCH  12  13
HETATM   13  C   UNL     1     -10.870  11.281  68.185  1.00  0.00    -0.263 A  
HETATM   14  C   UNL     1     -10.845  11.913  69.435  1.00  0.00    -0.089 A  
HETATM   15  C   UNL     1     -11.328  11.260  70.571  1.00  0.00     0.086 A  
HETATM   16  C   UNL     1     -11.845   9.960  70.478  1.00  0.00    -0.350 A  
HETATM   17  C   UNL     1     -11.968   9.376  69.208  1.00  0.00     0.908 A  
HETATM   18  C   UNL     1     -12.218   9.202  71.750  1.00  0.00    -0.442 C  
HETATM   19  C   UNL     1     -11.467  10.021  68.076  1.00  0.00     0.115 A  
HETATM   20  C   UNL     1     -11.971   7.685  71.620  1.00  0.00    -0.299 C  
HETATM   21  C   UNL     1     -13.682   9.492  72.150  1.00  0.00    -0.372 C  
HETATM   22  O   UNL     1     -12.899   6.883  71.727  1.00  0.00    -0.362 OA 
HETATM   23  N   UNL     1     -14.068   8.881  73.432  1.00  0.00    -1.135 NA 
HETATM   24  N   UNL     1     -10.651   7.340  71.348  1.00  0.00    -0.212 N  
HETATM   25  H1  UNL     1     -15.034   9.073  73.696  1.00  0.00     0.000 HD 
HETATM   26  H2  UNL     1     -13.426   9.162  74.173  1.00  0.00     0.000 HD 
HETATM   27  H   UNL     1      -9.981   8.102  71.240  1.00  0.00     0.000 HD 
BRANCH  24  28
HETATM   28  C   UNL     1     -10.162   6.019  71.210  1.00  0.00    -0.205 A  
HETATM   29  C   UNL     1      -9.894   5.199  72.307  1.00  0.00    -0.216 A  
HETATM   30  C   UNL     1      -9.450   3.888  72.135  1.00  0.00    -0.191 A  
HETATM   31  C   UNL     1      -9.247   3.372  70.852  1.00  0.00    -0.200 A  
HETATM   32  C   UNL     1      -8.814   2.062  70.634  1.00  0.00    -0.068 A  
HETATM   33  N   UNL     1      -8.587   1.524  69.415  1.00  0.00    -0.050 NA 
HETATM   34  C   UNL     1      -8.802   2.330  68.356  1.00  0.00    -0.110 A  
HETATM   35  C   UNL     1      -9.243   3.643  68.455  1.00  0.00    -0.220 A  
HETATM   36  C   UNL     1      -9.476   4.189  69.727  1.00  0.00    -0.265 A  
HETATM   37  C   UNL     1      -9.930   5.513  69.920  1.00  0.00    -0.282 A  
ENDBRANCH  24  28
ENDBRANCH  12  13
ENDBRANCH  11  12
ENDBRANCH   9  11
ENDBRANCH   6   9
TORSDOF 5
ENDMDL
MODEL      174
REMARK 921   NORMALIZED FREE ENERGY PREDICTED BY IDOCK:   -2.27 KCAL/MOL
REMARK 922        TOTAL FREE ENERGY PREDICTED BY IDOCK:   -5.16 KCAL/MOL
REMARK 923 INTER-LIGAND FREE ENERGY PREDICTED BY IDOCK:   -5.38 KCAL/MOL
REMARK 924 INTRA-LIGAND FREE ENERGY PREDICTED BY IDOCK:    0.22 KCAL/MOL
REMARK 927      BINDING AFFINITY PREDICTED BY RF-SCORE:    0.00 PKD
ROOT
HETATM    1  C   UNL     1     -12.780  14.448  65.501  1.00  0.00    -0.308 C  
HETATM    2  C   UNL     1     -11.856  13.565  66.288  1.00  0.00    -0.431 A  
HETATM    3  C   UNL     1     -12.156  13.225  67.612  1.00  0.00    -0.295 A  
HETATM    4  C   UNL     1     -11.278  12.445  68.386  1.00  0.00    -0.316 A  
HETATM    5  C   UNL     1     -11.666  12.134  69.807  1.00  0.00    -0.381 C  
HETATM    6  C   UNL     1     -10.069  11.996  67.812  1.00  0.00    -0.199 A  
HETATM    7  C   UNL     1      -9.777  12.319  66.477  1.00  0.00    -0.242 A  
HETATM    8  C   UNL     1     -10.664  13.099  65.723  1.00  0.00    -0.292 A  
ENDROOT
BRANCH   6   9
HETATM    9  C   UNL     1      -9.080  11.232  68.636  1.00  0.00    -0.151 C  
HETATM   10  O   UNL     1      -8.027  11.702  69.037  1.00  0.00    -0.064 OA 
BRANCH   9  11
HETATM   11  O   UNL     1      -9.522   9.973  68.888  1.00  0.00    -0.156 OA 
BRANCH  11  12
HETATM   12  C   UNL     1      -9.730   9.687  70.284  1.00  0.00    -0.259 C  
BRANCH  12  13
HETATM   13  C   UNL     1      -9.688   8.197  70.524  1.00  0.00    -0.181 A  
HETATM   14  C   UNL     1      -8.908   7.659  71.555  1.00  0.00    -0.138 A  
HETATM   15  C   UNL     1      -8.749   6.276  71.679  1.00  0.00    -0.134 A  
HETATM   16  C   UNL     1      -9.368   5.406  70.771  1.00  0.00    -0.200 A  
HETATM   17  C   UNL     1     -10.235   5.947  69.808  1.00  0.00    -0.281 A  
HETATM   18  C   UNL     1      -9.055   3.913  70.821  1.00  0.00    -0.175 C  
HETATM   19  C   UNL     1     -10.377   7.328  69.673  1.00  0.00    -0.227 A  
HETATM   20  C   UNL     1      -9.087   3.261  69.424  1.00  0.00    -0.134 C  
HETATM   21  C   UNL     1     -10.013   3.186  71.793  1.00  0.00    -0.122 C  
HETATM   22  O   UNL     1      -9.881   2.356  69.167  1.00  0.00     0.075 OA 
HETATM   23  N   UNL     1      -9.689   1.762  71.974  1.00  0.00    -0.111 NA 
HETATM   24  N   UNL     1      -8.184   3.805  68.516  1.00  0.00    -0.074 N  
HETATM   25  H1  UNL     1     -10.320   1.283  72.615  1.00  0.00     0.000 HD 
HETATM   26  H2  UNL     1      -8.718   1.647  72.266  1.00  0.00     0.000 HD 
HETATM   27  H   UNL     1      -7.608   4.583  68.839  1.00  0.00     0.000 HD 
BRANCH  24  28
HETATM   28  C   UNL     1      -7.999   3.368  67.183  1.00  0.00    -0.079 A  
HETATM   29  C   UNL     1      -8.751   2.336  66.620  1.00  0.00    -0.128 A  
HETATM   30  C   UNL     1      -8.571   1.955  65.290  1.00  0.00    -0.110 A  
HETATM   31  C   UNL     1      -7.615   2.595  64.494  1.00  0.00    -0.075 A  
HETATM   32  C   UNL     1      -7.410   2.253  63.155  1.00  0.00    -0.045 A  
HETATM   33  N   UNL     1      -6.488   2.829  62.352  1.00  0.00    -0.017 NA 
HETATM   34  C   UNL     1      -5.730   3.796  62.908  1.00  0.00    -0.013 A  
HETATM   35  C   UNL     1      -5.856   4.222  64.223  1.00  0.00    -0.014 A  
HETATM   36  C   UNL     1      -6.818   3.617  65.046  1.00  0.00    -0.049 A  
HETATM   37  C   UNL     1      -7.018   3.992  66.395  1.00  0.00    -0.059 A  
ENDBRANCH  24  28
ENDBRANCH  12  13
ENDBRANCH  11  12
ENDBRANCH   9  11
ENDBRANCH   6   9
TORSDOF 5
ENDMDL
MODEL      175
REMARK 921   NORMALIZED FREE ENERGY PREDICTED BY IDOCK:   -2.20 KCAL/MOL
REMARK 922        TOTAL FREE ENERGY PREDICTED BY IDOCK:   -5.06 KCAL/MOL
REMARK 923 INTER-LIGAND FREE ENERGY PREDICTED BY IDOCK:   -7.69 KCAL/MOL
REMARK 924 INTRA-LIGAND FREE ENERGY PREDICTED BY IDOCK:    2.63 KCAL/MOL
REMARK 927      BINDING AFFINITY PREDICTED BY RF-SCORE:    0.00 PKD
ROOT
HETATM    1  C   UNL     1      -7.187   3.403  63.742  1.00  0.00    -0.050 C  
HETATM    2  C   UNL     1      -7.249   4.487  64.778  1.00  0.00    -0.063 A  
HETATM    3  C   UNL     1      -6.240   4.607  65.740  1.00  0.00    -0.031 A  
HETATM    4  C   UNL     1      -6.304   5.581  66.753  1.00  0.00    -0.036 A  
HETATM    5  C   UNL     1      -5.186   5.637  67.760  1.00  0.00    -0.004 C  
HETATM    6  C   UNL     1      -7.411   6.455  66.797  1.00  0.00    -0.087 A  
HETATM    7  C   UNL     1      -8.414   6.349  65.819  1.00  0.00    -0.148 A  
HETATM    8  C   UNL     1      -8.332   5.371  64.819  1.00  0.00    -0.145 A  
ENDROOT
BRANCH   6   9
HETATM    9  C   UNL     1      -7.546   7.448  67.910  1.00  0.00    -0.114 C  
HETATM   10  O   UNL     1      -8.458   8.256  67.989  1.00  0.00    -0.130 OA 
BRANCH   9  11
HETATM   11  O   UNL     1      -6.541   7.310  68.813  1.00  0.00    -0.045 OA 
BRANCH  11  12
HETATM   12  C   UNL     1      -6.786   6.313  69.822  1.00  0.00    -0.056 C  
BRANCH  12  13
HETATM   13  C   UNL     1      -8.209   6.404  70.314  1.00  0.00    -0.125 A  
HETATM   14  C   UNL     1      -9.226   5.652  69.712  1.00  0.00    -0.165 A  
HETATM   15  C   UNL     1     -10.563   5.852  70.065  1.00  0.00    -0.364 A  
HETATM   16  C   UNL     1     -10.907   6.812  71.028  1.00  0.00    -0.280 A  
HETATM   17  C   UNL     1      -9.877   7.484  71.704  1.00  0.00    -0.185 A  
HETATM   18  C   UNL     1     -12.378   7.132  71.284  1.00  0.00    -0.418 C  
HETATM   19  C   UNL     1      -8.544   7.297  71.337  1.00  0.00    -0.115 A  
HETATM   20  C   UNL     1     -12.598   8.611  71.658  1.00  0.00    -0.338 C  
HETATM   21  C   UNL     1     -12.961   6.194  72.366  1.00  0.00     0.422 C  
HETATM   22  O   UNL     1     -13.082   8.922  72.747  1.00  0.00    -0.377 OA 
HETATM   23  N   UNL     1     -14.405   6.375  72.577  1.00  0.00    -0.554 NA 
HETATM   24  N   UNL     1     -12.179   9.517  70.689  1.00  0.00    -0.466 N  
HETATM   25  H1  UNL     1     -14.790   5.756  73.290  1.00  0.00     0.000 HD 
HETATM   26  H2  UNL     1     -14.914   6.276  71.698  1.00  0.00     0.000 HD 
HETATM   27  H   UNL     1     -11.753   9.134  69.845  1.00  0.00     0.000 HD 
BRANCH  24  28
HETATM   28  C   UNL     1     -12.294  10.924  70.779  1.00  0.00    -0.390 A  
HETATM   29  C   UNL     1     -13.002  11.556  71.803  1.00  0.00    -0.500 A  
HETATM   30  C   UNL     1     -13.064  12.947  71.885  1.00  0.00    -0.474 A  
HETATM   31  C   UNL     1     -12.428  13.741  70.926  1.00  0.00    -0.451 A  
HETATM   32  C   UNL     1     -12.455  15.137  70.975  1.00  0.00    -0.357 A  
HETATM   33  N   UNL     1     -11.872  15.947  70.064  1.00  0.00    -0.336 NA 
HETATM   34  C   UNL     1     -11.227  15.337  69.049  1.00  0.00    -0.280 A  
HETATM   35  C   UNL     1     -11.127  13.959  68.907  1.00  0.00    -0.296 A  
HETATM   36  C   UNL     1     -11.736  13.131  69.861  1.00  0.00    -0.327 A  
HETATM   37  C   UNL     1     -11.680  11.719  69.797  1.00  0.00    -0.408 A  
ENDBRANCH  24  28
ENDBRANCH  12  13
ENDBRANCH  11  12
ENDBRANCH   9  11
ENDBRANCH   6   9
TORSDOF 5
ENDMDL
MODEL      176
REMARK 921   NORMALIZED FREE ENERGY PREDICTED BY IDOCK:   -2.17 KCAL/MOL
REMARK 922        TOTAL FREE ENERGY PREDICTED BY IDOCK:   -5.02 KCAL/MOL
REMARK 923 INTER-LIGAND FREE ENERGY PREDICTED BY IDOCK:   -5.14 KCAL/MOL
REMARK 924 INTRA-LIGAND FREE ENERGY PREDICTED BY IDOCK:    0.11 KCAL/MOL
REMARK 927      BINDING AFFINITY PREDICTED BY RF-SCORE:    0.00 PKD
ROOT
HETATM    1  C   UNL     1     -11.600   7.985  72.953  1.00  0.00    -0.281 C  
HETATM    2  C   UNL     1     -10.398   7.113  72.735  1.00  0.00    -0.261 A  
HETATM    3  C   UNL     1     -10.537   5.840  72.170  1.00  0.00    -0.268 A  
HETATM    4  C   UNL     1      -9.433   4.985  72.007  1.00  0.00    -0.180 A  
HETATM    5  C   UNL     1      -9.667   3.625  71.405  1.00  0.00    -0.241 C  
HETATM    6  C   UNL     1      -8.157   5.422  72.423  1.00  0.00    -0.107 A  
HETATM    7  C   UNL     1      -8.013   6.708  72.971  1.00  0.00    -0.102 A  
HETATM    8  C   UNL     1      -9.126   7.544  73.126  1.00  0.00    -0.227 A  
ENDROOT
BRANCH   6   9
HETATM    9  C   UNL     1      -6.978   4.504  72.336  1.00  0.00    -0.057 C  
HETATM   10  O   UNL     1      -6.607   3.789  73.253  1.00  0.00    -0.031 OA 
BRANCH   9  11
HETATM   11  O   UNL     1      -6.403   4.560  71.106  1.00  0.00    -0.018 OA 
BRANCH  11  12
HETATM   12  C   UNL     1      -7.326   4.395  70.013  1.00  0.00    -0.046 C  
BRANCH  12  13
HETATM   13  C   UNL     1      -6.970   5.328  68.883  1.00  0.00    -0.056 A  
HETATM   14  C   UNL     1      -5.664   5.813  68.737  1.00  0.00    -0.012 A  
HETATM   15  C   UNL     1      -5.372   6.794  67.786  1.00  0.00    -0.012 A  
HETATM   16  C   UNL     1      -6.382   7.309  66.963  1.00  0.00    -0.051 A  
HETATM   17  C   UNL     1      -7.664   6.741  67.039  1.00  0.00    -0.100 A  
HETATM   18  C   UNL     1      -6.081   8.490  66.044  1.00  0.00    -0.048 C  
HETATM   19  C   UNL     1      -7.960   5.776  68.002  1.00  0.00    -0.101 A  
HETATM   20  C   UNL     1      -7.298   9.420  65.867  1.00  0.00    -0.095 C  
HETATM   21  C   UNL     1      -5.555   7.999  64.676  1.00  0.00    -0.044 C  
HETATM   22  O   UNL     1      -7.795   9.605  64.755  1.00  0.00    -0.117 OA 
HETATM   23  N   UNL     1      -5.137   9.093  63.785  1.00  0.00    -0.059 NA 
HETATM   24  N   UNL     1      -7.774   9.974  67.051  1.00  0.00    -0.095 N  
HETATM   25  H1  UNL     1      -4.790   8.769  62.883  1.00  0.00     0.000 HD 
HETATM   26  H2  UNL     1      -4.450   9.690  64.245  1.00  0.00     0.000 HD 
HETATM   27  H   UNL     1      -7.302   9.708  67.915  1.00  0.00     0.000 HD 
BRANCH  24  28
HETATM   28  C   UNL     1      -8.860  10.876  67.154  1.00  0.00    -0.135 A  
HETATM   29  C   UNL     1     -10.115  10.608  66.604  1.00  0.00    -0.270 A  
HETATM   30  C   UNL     1     -11.175  11.501  66.758  1.00  0.00    -0.350 A  
HETATM   31  C   UNL     1     -10.995  12.699  67.457  1.00  0.00    -0.280 A  
HETATM   32  C   UNL     1     -12.032  13.616  67.644  1.00  0.00    -0.351 A  
HETATM   33  N   UNL     1     -11.904  14.793  68.296  1.00  0.00    -0.310 NA 
HETATM   34  C   UNL     1     -10.681  15.074  68.789  1.00  0.00    -0.241 A  
HETATM   35  C   UNL     1      -9.583  14.231  68.671  1.00  0.00    -0.192 A  
HETATM   36  C   UNL     1      -9.730  13.012  67.993  1.00  0.00    -0.224 A  
HETATM   37  C   UNL     1      -8.669  12.092  67.831  1.00  0.00    -0.176 A  
ENDBRANCH  24  28
ENDBRANCH  12  13
ENDBRANCH  11  12
ENDBRANCH   9  11
ENDBRANCH   6   9
TORSDOF 5
ENDMDL
MODEL      177
REMARK 921   NORMALIZED FREE ENERGY PREDICTED BY IDOCK:   -2.08 KCAL/MOL
REMARK 922        TOTAL FREE ENERGY PREDICTED BY IDOCK:   -4.92 KCAL/MOL
REMARK 923 INTER-LIGAND FREE ENERGY PREDICTED BY IDOCK:   -4.78 KCAL/MOL
REMARK 924 INTRA-LIGAND FREE ENERGY PREDICTED BY IDOCK:   -0.13 KCAL/MOL
REMARK 927      BINDING AFFINITY PREDICTED BY RF-SCORE:    0.00 PKD
ROOT
HETATM    1  C   UNL     1     -10.974   2.252  62.626  1.00  0.00    -0.202 C  
HETATM    2  C   UNL     1      -9.792   2.809  63.365  1.00  0.00    -0.110 A  
HETATM    3  C   UNL     1      -8.915   3.698  62.733  1.00  0.00    -0.096 A  
HETATM    4  C   UNL     1      -7.771   4.190  63.387  1.00  0.00    -0.066 A  
HETATM    5  C   UNL     1      -6.869   5.131  62.634  1.00  0.00    -0.030 C  
HETATM    6  C   UNL     1      -7.504   3.776  64.710  1.00  0.00    -0.073 A  
HETATM    7  C   UNL     1      -8.394   2.900  65.351  1.00  0.00    -0.094 A  
HETATM    8  C   UNL     1      -9.528   2.420  64.682  1.00  0.00    -0.109 A  
ENDROOT
BRANCH   6   9
HETATM    9  C   UNL     1      -6.253   4.219  65.402  1.00  0.00    -0.027 C  
HETATM   10  O   UNL     1      -5.324   3.472  65.665  1.00  0.00    -0.009 OA 
BRANCH   9  11
HETATM   11  O   UNL     1      -6.287   5.550  65.669  1.00  0.00    -0.036 OA 
BRANCH  11  12
HETATM   12  C   UNL     1      -7.547   6.018  66.187  1.00  0.00    -0.087 C  
BRANCH  12  13
HETATM   13  C   UNL     1      -7.349   7.289  66.975  1.00  0.00    -0.093 A  
HETATM   14  C   UNL     1      -7.696   7.354  68.331  1.00  0.00    -0.120 A  
HETATM   15  C   UNL     1      -7.656   8.570  69.017  1.00  0.00    -0.094 A  
HETATM   16  C   UNL     1      -7.269   9.745  68.359  1.00  0.00    -0.077 A  
HETATM   17  C   UNL     1      -6.818   9.654  67.032  1.00  0.00    -0.084 A  
HETATM   18  C   UNL     1      -7.386  11.088  69.076  1.00  0.00    -0.123 C  
HETATM   19  C   UNL     1      -6.876   8.443  66.342  1.00  0.00    -0.070 A  
HETATM   20  C   UNL     1      -7.731  12.239  68.111  1.00  0.00    -0.138 C  
HETATM   21  C   UNL     1      -6.096  11.398  69.870  1.00  0.00    -0.134 C  
HETATM   22  O   UNL     1      -6.967  13.194  67.968  1.00  0.00    -0.087 OA 
HETATM   23  N   UNL     1      -6.189  12.625  70.677  1.00  0.00    -0.516 NA 
HETATM   24  N   UNL     1      -8.929  12.073  67.424  1.00  0.00    -0.170 N  
HETATM   25  H1  UNL     1      -5.338  12.829  71.200  1.00  0.00     0.000 HD 
HETATM   26  H2  UNL     1      -6.997  12.588  71.298  1.00  0.00     0.000 HD 
HETATM   27  H   UNL     1      -9.453  11.215  67.598  1.00  0.00     0.000 HD 
BRANCH  24  28
HETATM   28  C   UNL     1      -9.481  12.996  66.504  1.00  0.00    -0.245 A  
HETATM   29  C   UNL     1      -9.916  12.619  65.232  1.00  0.00    -0.215 A  
HETATM   30  C   UNL     1     -10.491  13.546  64.363  1.00  0.00    -0.366 A  
HETATM   31  C   UNL     1     -10.630  14.884  64.746  1.00  0.00    -0.336 A  
HETATM   32  C   UNL     1     -11.211  15.843  63.913  1.00  0.00     0.748 A  
HETATM   33  N   UNL     1     -11.350  17.149  64.230  1.00  0.00    -0.874 NA 
HETATM   34  C   UNL     1     -10.890  17.523  65.441  1.00  0.00     0.059 A  
HETATM   35  C   UNL     1     -10.306  16.653  66.353  1.00  0.00    -0.310 A  
HETATM   36  C   UNL     1     -10.168  15.299  66.011  1.00  0.00    -0.335 A  
HETATM   37  C   UNL     1      -9.592  14.344  66.880  1.00  0.00    -0.263 A  
ENDBRANCH  24  28
ENDBRANCH  12  13
ENDBRANCH  11  12
ENDBRANCH   9  11
ENDBRANCH   6   9
TORSDOF 5
ENDMDL
MODEL      178
REMARK 921   NORMALIZED FREE ENERGY PREDICTED BY IDOCK:   -1.92 KCAL/MOL
REMARK 922        TOTAL FREE ENERGY PREDICTED BY IDOCK:   -4.71 KCAL/MOL
REMARK 923 INTER-LIGAND FREE ENERGY PREDICTED BY IDOCK:   -5.28 KCAL/MOL
REMARK 924 INTRA-LIGAND FREE ENERGY PREDICTED BY IDOCK:    0.57 KCAL/MOL
REMARK 927      BINDING AFFINITY PREDICTED BY RF-SCORE:    0.00 PKD
ROOT
HETATM    1  C   UNL     1      -6.339  12.794  68.042  1.00  0.00    -0.099 C  
HETATM    2  C   UNL     1      -7.721  12.257  68.281  1.00  0.00    -0.143 A  
HETATM    3  C   UNL     1      -8.816  13.125  68.353  1.00  0.00    -0.117 A  
HETATM    4  C   UNL     1     -10.111  12.650  68.630  1.00  0.00    -0.131 A  
HETATM    5  C   UNL     1     -11.235  13.649  68.704  1.00  0.00    -0.308 C  
HETATM    6  C   UNL     1     -10.307  11.269  68.840  1.00  0.00    -0.214 A  
HETATM    7  C   UNL     1      -9.211  10.395  68.748  1.00  0.00    -0.172 A  
HETATM    8  C   UNL     1      -7.929  10.887  68.473  1.00  0.00    -0.134 A  
ENDROOT
BRANCH   6   9
HETATM    9  C   UNL     1     -11.658  10.746  69.216  1.00  0.00    -0.305 C  
HETATM   10  O   UNL     1     -12.645  10.846  68.503  1.00  0.00    -0.137 OA 
BRANCH   9  11
HETATM   11  O   UNL     1     -11.627  10.135  70.428  1.00  0.00    -0.273 OA 
BRANCH  11  12
HETATM   12  C   UNL     1     -10.301   9.906  70.942  1.00  0.00    -0.049 C  
BRANCH  12  13
HETATM   13  C   UNL     1     -10.085   8.434  71.192  1.00  0.00    -0.248 A  
HETATM   14  C   UNL     1      -9.124   7.996  72.111  1.00  0.00    -0.227 A  
HETATM   15  C   UNL     1      -8.819   6.638  72.228  1.00  0.00    -0.133 A  
HETATM   16  C   UNL     1      -9.471   5.691  71.426  1.00  0.00    -0.176 A  
HETATM   17  C   UNL     1     -10.509   6.125  70.587  1.00  0.00    -0.292 A  
HETATM   18  C   UNL     1      -9.013   4.235  71.450  1.00  0.00    -0.163 C  
HETATM   19  C   UNL     1     -10.799   7.483  70.456  1.00  0.00    -0.252 A  
HETATM   20  C   UNL     1      -9.174   3.548  70.080  1.00  0.00    -0.156 C  
HETATM   21  C   UNL     1      -9.754   3.447  72.555  1.00  0.00    -0.144 C  
HETATM   22  O   UNL     1      -9.906   2.567  69.947  1.00  0.00     0.035 OA 
HETATM   23  N   UNL     1      -9.274   2.065  72.706  1.00  0.00    -0.073 NA 
HETATM   24  N   UNL     1      -8.460   4.150  69.049  1.00  0.00    -0.080 N  
HETATM   25  H1  UNL     1      -9.763   1.545  73.435  1.00  0.00     0.000 HD 
HETATM   26  H2  UNL     1      -8.267   2.047  72.862  1.00  0.00     0.000 HD 
HETATM   27  H   UNL     1      -7.922   4.986  69.278  1.00  0.00     0.000 HD 
BRANCH  24  28
HETATM   28  C   UNL     1      -8.419   3.699  67.708  1.00  0.00    -0.095 A  
HETATM   29  C   UNL     1      -7.369   2.927  67.207  1.00  0.00    -0.061 A  
HETATM   30  C   UNL     1      -7.378   2.465  65.891  1.00  0.00    -0.066 A  
HETATM   31  C   UNL     1      -8.439   2.781  65.037  1.00  0.00    -0.095 A  
HETATM   32  C   UNL     1      -8.495   2.330  63.716  1.00  0.00    -0.085 A  
HETATM   33  N   UNL     1      -9.488   2.624  62.849  1.00  0.00    -0.093 NA 
HETATM   34  C   UNL     1     -10.480   3.406  63.318  1.00  0.00    -0.232 A  
HETATM   35  C   UNL     1     -10.533   3.900  64.615  1.00  0.00    -0.196 A  
HETATM   36  C   UNL     1      -9.496   3.588  65.506  1.00  0.00    -0.147 A  
HETATM   37  C   UNL     1      -9.472   4.043  66.844  1.00  0.00    -0.220 A  
ENDBRANCH  24  28
ENDBRANCH  12  13
ENDBRANCH  11  12
ENDBRANCH   9  11
ENDBRANCH   6   9
TORSDOF 5
ENDMDL
MODEL      179
REMARK 921   NORMALIZED FREE ENERGY PREDICTED BY IDOCK:   -1.76 KCAL/MOL
REMARK 922        TOTAL FREE ENERGY PREDICTED BY IDOCK:   -4.50 KCAL/MOL
REMARK 923 INTER-LIGAND FREE ENERGY PREDICTED BY IDOCK:   -4.38 KCAL/MOL
REMARK 924 INTRA-LIGAND FREE ENERGY PREDICTED BY IDOCK:   -0.12 KCAL/MOL
REMARK 927      BINDING AFFINITY PREDICTED BY RF-SCORE:    0.00 PKD
ROOT
HETATM    1  C   UNL     1     -10.989  17.307  68.493  1.00  0.00    -0.146 C  
HETATM    2  C   UNL     1     -10.818  15.977  67.819  1.00  0.00    -0.324 A  
HETATM    3  C   UNL     1     -11.833  15.456  67.008  1.00  0.00     0.197 A  
HETATM    4  C   UNL     1     -11.717  14.189  66.410  1.00  0.00    -0.404 A  
HETATM    5  C   UNL     1     -12.859  13.693  65.564  1.00  0.00    -0.443 C  
HETATM    6  C   UNL     1     -10.550  13.427  66.634  1.00  0.00    -0.282 A  
HETATM    7  C   UNL     1      -9.522  13.957  67.431  1.00  0.00    -0.226 A  
HETATM    8  C   UNL     1      -9.658  15.222  68.019  1.00  0.00    -0.203 A  
ENDROOT
BRANCH   6   9
HETATM    9  C   UNL     1     -10.434  12.042  66.077  1.00  0.00    -0.249 C  
HETATM   10  O   UNL     1      -9.552  11.695  65.307  1.00  0.00    -0.232 OA 
BRANCH   9  11
HETATM   11  O   UNL     1     -11.416  11.237  66.558  1.00  0.00    -0.335 OA 
BRANCH  11  12
HETATM   12  C   UNL     1     -11.594  11.307  67.985  1.00  0.00    -0.272 C  
BRANCH  12  13
HETATM   13  C   UNL     1     -10.465  10.594  68.688  1.00  0.00    -0.211 A  
HETATM   14  C   UNL     1      -9.349  11.301  69.153  1.00  0.00     0.082 A  
HETATM   15  C   UNL     1      -8.240  10.622  69.664  1.00  0.00     0.046 A  
HETATM   16  C   UNL     1      -8.227   9.221  69.718  1.00  0.00    -0.131 A  
HETATM   17  C   UNL     1      -9.390   8.525  69.352  1.00  0.00    -0.154 A  
HETATM   18  C   UNL     1      -6.949   8.492  70.125  1.00  0.00    -0.043 C  
HETATM   19  C   UNL     1     -10.489   9.203  68.824  1.00  0.00    -0.236 A  
HETATM   20  C   UNL     1      -6.789   7.141  69.400  1.00  0.00    -0.050 C  
HETATM   21  C   UNL     1      -6.891   8.307  71.659  1.00  0.00    -0.069 C  
HETATM   22  O   UNL     1      -6.741   6.086  70.033  1.00  0.00    -0.048 OA 
HETATM   23  N   UNL     1      -5.629   7.713  72.127  1.00  0.00    -0.036 NA 
HETATM   24  N   UNL     1      -6.743   7.237  68.013  1.00  0.00    -0.056 N  
HETATM   25  H1  UNL     1      -5.591   7.591  73.139  1.00  0.00     0.000 HD 
HETATM   26  H2  UNL     1      -4.830   8.254  71.796  1.00  0.00     0.000 HD 
HETATM   27  H   UNL     1      -6.837   8.167  67.605  1.00  0.00     0.000 HD 
BRANCH  24  28
HETATM   28  C   UNL     1      -6.575   6.150  67.122  1.00  0.00    -0.055 A  
HETATM   29  C   UNL     1      -5.437   5.341  67.130  1.00  0.00    -0.012 A  
HETATM   30  C   UNL     1      -5.320   4.253  66.265  1.00  0.00    -0.013 A  
HETATM   31  C   UNL     1      -6.341   3.959  65.356  1.00  0.00    -0.032 A  
HETATM   32  C   UNL     1      -6.270   2.873  64.479  1.00  0.00    -0.023 A  
HETATM   33  N   UNL     1      -7.221   2.559  63.572  1.00  0.00    -0.044 NA 
HETATM   34  C   UNL     1      -8.301   3.366  63.533  1.00  0.00    -0.089 A  
HETATM   35  C   UNL     1      -8.480   4.465  64.364  1.00  0.00    -0.117 A  
HETATM   36  C   UNL     1      -7.486   4.779  65.302  1.00  0.00    -0.077 A  
HETATM   37  C   UNL     1      -7.589   5.875  66.189  1.00  0.00    -0.090 A  
ENDBRANCH  24  28
ENDBRANCH  12  13
ENDBRANCH  11  12
ENDBRANCH   9  11
ENDBRANCH   6   9
TORSDOF 5
ENDMDL
MODEL      180
REMARK 921   NORMALIZED FREE ENERGY PREDICTED BY IDOCK:   -1.73 KCAL/MOL
REMARK 922        TOTAL FREE ENERGY PREDICTED BY IDOCK:   -4.46 KCAL/MOL
REMARK 923 INTER-LIGAND FREE ENERGY PREDICTED BY IDOCK:   -4.72 KCAL/MOL
REMARK 924 INTRA-LIGAND FREE ENERGY PREDICTED BY IDOCK:    0.26 KCAL/MOL
REMARK 927      BINDING AFFINITY PREDICTED BY RF-SCORE:    0.00 PKD
ROOT
HETATM    1  C   UNL     1     -10.505  18.430  65.955  1.00  0.00    -0.400 C  
HETATM    2  C   UNL     1     -10.259  16.957  65.801  1.00  0.00    -0.287 A  
HETATM    3  C   UNL     1     -11.087  16.181  64.982  1.00  0.00    -0.304 A  
HETATM    4  C   UNL     1     -10.908  14.791  64.865  1.00  0.00    -0.433 A  
HETATM    5  C   UNL     1     -11.850  14.024  63.974  1.00  0.00    -0.339 C  
HETATM    6  C   UNL     1      -9.871  14.167  65.590  1.00  0.00    -0.278 A  
HETATM    7  C   UNL     1      -9.027  14.948  66.397  1.00  0.00    -0.254 A  
HETATM    8  C   UNL     1      -9.222  16.332  66.501  1.00  0.00    -0.299 A  
ENDROOT
BRANCH   6   9
HETATM    9  C   UNL     1      -9.708  12.680  65.548  1.00  0.00    -0.096 C  
HETATM   10  O   UNL     1     -10.167  11.973  64.664  1.00  0.00    -0.267 OA 
BRANCH   9  11
HETATM   11  O   UNL     1      -8.970  12.238  66.599  1.00  0.00    -0.204 OA 
BRANCH  11  12
HETATM   12  C   UNL     1      -9.552  11.126  67.305  1.00  0.00    -0.165 C  
BRANCH  12  13
HETATM   13  C   UNL     1      -8.986   9.826  66.789  1.00  0.00    -0.156 A  
HETATM   14  C   UNL     1      -9.670   9.079  65.821  1.00  0.00    -0.254 A  
HETATM   15  C   UNL     1      -9.223   7.806  65.459  1.00  0.00     0.182 A  
HETATM   16  C   UNL     1      -8.082   7.256  66.060  1.00  0.00    -0.121 A  
HETATM   17  C   UNL     1      -7.340   8.052  66.947  1.00  0.00    -0.090 A  
HETATM   18  C   UNL     1      -7.701   5.805  65.774  1.00  0.00    -0.095 C  
HETATM   19  C   UNL     1      -7.798   9.316  67.322  1.00  0.00    -0.099 A  
HETATM   20  C   UNL     1      -7.046   5.121  66.990  1.00  0.00    -0.069 C  
HETATM   21  C   UNL     1      -6.789   5.715  64.529  1.00  0.00    -0.050 C  
HETATM   22  O   UNL     1      -5.896   4.684  66.924  1.00  0.00    -0.024 OA 
HETATM   23  N   UNL     1      -6.481   4.333  64.131  1.00  0.00    -0.040 NA 
HETATM   24  N   UNL     1      -7.845   5.083  68.127  1.00  0.00    -0.086 N  
HETATM   25  H1  UNL     1      -5.879   4.273  63.310  1.00  0.00     0.000 HD 
HETATM   26  H2  UNL     1      -7.337   3.797  63.993  1.00  0.00     0.000 HD 
HETATM   27  H   UNL     1      -8.766   5.519  68.067  1.00  0.00     0.000 HD 
BRANCH  24  28
HETATM   28  C   UNL     1      -7.487   4.490  69.361  1.00  0.00    -0.055 A  
HETATM   29  C   UNL     1      -7.028   3.175  69.457  1.00  0.00    -0.041 A  
HETATM   30  C   UNL     1      -6.646   2.632  70.683  1.00  0.00    -0.032 A  
HETATM   31  C   UNL     1      -6.730   3.396  71.852  1.00  0.00    -0.019 A  
HETATM   32  C   UNL     1      -6.347   2.896  73.099  1.00  0.00    -0.013 A  
HETATM   33  N   UNL     1      -6.427   3.588  74.257  1.00  0.00    -0.029 NA 
HETATM   34  C   UNL     1      -6.912   4.843  74.173  1.00  0.00    -0.076 A  
HETATM   35  C   UNL     1      -7.311   5.444  72.986  1.00  0.00    -0.092 A  
HETATM   36  C   UNL     1      -7.222   4.715  71.790  1.00  0.00    -0.064 A  
HETATM   37  C   UNL     1      -7.601   5.249  70.537  1.00  0.00    -0.072 A  
ENDBRANCH  24  28
ENDBRANCH  12  13
ENDBRANCH  11  12
ENDBRANCH   9  11
ENDBRANCH   6   9
TORSDOF 5
ENDMDL
MODEL      181
REMARK 921   NORMALIZED FREE ENERGY PREDICTED BY IDOCK:   -1.64 KCAL/MOL
REMARK 922        TOTAL FREE ENERGY PREDICTED BY IDOCK:   -4.34 KCAL/MOL
REMARK 923 INTER-LIGAND FREE ENERGY PREDICTED BY IDOCK:   -3.87 KCAL/MOL
REMARK 924 INTRA-LIGAND FREE ENERGY PREDICTED BY IDOCK:   -0.48 KCAL/MOL
REMARK 927      BINDING AFFINITY PREDICTED BY RF-SCORE:    0.00 PKD
ROOT
HETATM    1  C   UNL     1     -12.258   9.104  70.637  1.00  0.00    -0.058 C  
HETATM    2  C   UNL     1     -11.913   9.849  69.380  1.00  0.00     0.268 A  
HETATM    3  C   UNL     1     -11.230   9.208  68.340  1.00  0.00     0.265 A  
HETATM    4  C   UNL     1     -10.848   9.900  67.177  1.00  0.00    -0.227 A  
HETATM    5  C   UNL     1     -10.103   9.144  66.110  1.00  0.00    -0.278 C  
HETATM    6  C   UNL     1     -11.163  11.271  67.058  1.00  0.00    -0.324 A  
HETATM    7  C   UNL     1     -11.866  11.910  68.092  1.00  0.00    -0.338 A  
HETATM    8  C   UNL     1     -12.236  11.203  69.244  1.00  0.00    -0.295 A  
ENDROOT
BRANCH   6   9
HETATM    9  C   UNL     1     -10.699  12.052  65.868  1.00  0.00    -0.275 C  
HETATM   10  O   UNL     1      -9.636  12.650  65.823  1.00  0.00    -0.215 OA 
BRANCH   9  11
HETATM   11  O   UNL     1     -11.602  11.982  64.855  1.00  0.00    -0.322 OA 
BRANCH  11  12
HETATM   12  C   UNL     1     -12.698  12.908  64.976  1.00  0.00    -0.404 C  
BRANCH  12  13
HETATM   13  C   UNL     1     -12.179  14.309  65.185  1.00  0.00    -0.422 A  
HETATM   14  C   UNL     1     -11.722  15.074  64.105  1.00  0.00    -0.125 A  
HETATM   15  C   UNL     1     -11.101  16.307  64.318  1.00  0.00     0.156 A  
HETATM   16  C   UNL     1     -10.925  16.797  65.620  1.00  0.00     0.004 A  
HETATM   17  C   UNL     1     -11.481  16.078  66.689  1.00  0.00     0.409 A  
HETATM   18  C   UNL     1     -10.103  18.064  65.845  1.00  0.00    -0.167 C  
HETATM   19  C   UNL     1     -12.084  14.838  66.476  1.00  0.00    -0.121 A  
HETATM   20  C   UNL     1      -9.330  18.030  67.179  1.00  0.00    -0.259 C  
HETATM   21  C   UNL     1     -10.999  19.321  65.756  1.00  0.00    -0.082 C  
HETATM   22  O   UNL     1      -9.541  18.872  68.052  1.00  0.00    -0.300 OA 
HETATM   23  N   UNL     1     -10.246  20.581  65.850  1.00  0.00    -0.447 NA 
HETATM   24  N   UNL     1      -8.433  16.973  67.296  1.00  0.00    -0.191 N  
HETATM   25  H1  UNL     1     -10.838  21.410  65.792  1.00  0.00     0.000 HD 
HETATM   26  H2  UNL     1      -9.506  20.613  65.150  1.00  0.00     0.000 HD 
HETATM   27  H   UNL     1      -8.381  16.316  66.517  1.00  0.00     0.000 HD 
BRANCH  24  28
HETATM   28  C   UNL     1      -7.588  16.735  68.406  1.00  0.00    -0.205 A  
HETATM   29  C   UNL     1      -6.794  17.734  68.973  1.00  0.00    -0.244 A  
HETATM   30  C   UNL     1      -6.001  17.476  70.091  1.00  0.00    -0.118 A  
HETATM   31  C   UNL     1      -5.974  16.199  70.660  1.00  0.00     0.194 A  
HETATM   32  C   UNL     1      -5.204  15.900  71.786  1.00  0.00     0.131 A  
HETATM   33  N   UNL     1      -5.131  14.679  72.361  1.00  0.00    -0.195 NA 
HETATM   34  C   UNL     1      -5.863  13.703  71.788  1.00  0.00     0.119 A  
HETATM   35  C   UNL     1      -6.672  13.891  70.674  1.00  0.00     0.452 A  
HETATM   36  C   UNL     1      -6.739  15.163  70.088  1.00  0.00    -0.072 A  
HETATM   37  C   UNL     1      -7.540  15.444  68.957  1.00  0.00    -0.177 A  
ENDBRANCH  24  28
ENDBRANCH  12  13
ENDBRANCH  11  12
ENDBRANCH   9  11
ENDBRANCH   6   9
TORSDOF 5
ENDMDL
MODEL      182
REMARK 921   NORMALIZED FREE ENERGY PREDICTED BY IDOCK:   -1.63 KCAL/MOL
REMARK 922        TOTAL FREE ENERGY PREDICTED BY IDOCK:   -4.33 KCAL/MOL
REMARK 923 INTER-LIGAND FREE ENERGY PREDICTED BY IDOCK:   -4.22 KCAL/MOL
REMARK 924 INTRA-LIGAND FREE ENERGY PREDICTED BY IDOCK:   -0.10 KCAL/MOL
REMARK 927      BINDING AFFINITY PREDICTED BY RF-SCORE:    0.00 PKD
ROOT
HETATM    1  C   UNL     1     -11.776  15.766  67.152  1.00  0.00     0.334 C  
HETATM    2  C   UNL     1     -11.428  14.458  66.504  1.00  0.00    -0.369 A  
HETATM    3  C   UNL     1     -10.103  14.007  66.481  1.00  0.00    -0.287 A  
HETATM    4  C   UNL     1      -9.746  12.811  65.833  1.00  0.00    -0.203 A  
HETATM    5  C   UNL     1      -8.297  12.402  65.839  1.00  0.00     0.823 C  
HETATM    6  C   UNL     1     -10.748  12.050  65.192  1.00  0.00    -0.332 A  
HETATM    7  C   UNL     1     -12.081  12.492  65.233  1.00  0.00    -0.500 A  
HETATM    8  C   UNL     1     -12.416  13.687  65.883  1.00  0.00    -0.502 A  
ENDROOT
BRANCH   6   9
HETATM    9  C   UNL     1     -10.386  10.816  64.427  1.00  0.00    -0.335 C  
HETATM   10  O   UNL     1     -10.448  10.732  63.210  1.00  0.00    -0.226 OA 
BRANCH   9  11
HETATM   11  O   UNL     1      -9.964   9.830  65.260  1.00  0.00    -0.318 OA 
BRANCH  11  12
HETATM   12  C   UNL     1     -10.641   9.798  66.530  1.00  0.00    -0.080 C  
BRANCH  12  13
HETATM   13  C   UNL     1      -9.642   9.652  67.651  1.00  0.00    -0.167 A  
HETATM   14  C   UNL     1      -8.274   9.843  67.422  1.00  0.00    -0.118 A  
HETATM   15  C   UNL     1      -7.339   9.559  68.421  1.00  0.00    -0.076 A  
HETATM   16  C   UNL     1      -7.758   9.076  69.669  1.00  0.00    -0.075 A  
HETATM   17  C   UNL     1      -9.135   8.992  69.928  1.00  0.00    -0.176 A  
HETATM   18  C   UNL     1      -6.719   8.618  70.689  1.00  0.00    -0.043 C  
HETATM   19  C   UNL     1     -10.066   9.257  68.924  1.00  0.00    -0.207 A  
HETATM   20  C   UNL     1      -7.224   7.445  71.553  1.00  0.00    -0.071 C  
HETATM   21  C   UNL     1      -6.263   9.801  71.574  1.00  0.00     0.152 C  
HETATM   22  O   UNL     1      -7.326   7.559  72.775  1.00  0.00    -0.074 OA 
HETATM   23  N   UNL     1      -5.177   9.449  72.502  1.00  0.00    -0.077 NA 
HETATM   24  N   UNL     1      -7.571   6.308  70.831  1.00  0.00    -0.094 N  
HETATM   25  H1  UNL     1      -4.875  10.230  73.086  1.00  0.00     0.000 HD 
HETATM   26  H2  UNL     1      -4.387   9.047  71.998  1.00  0.00     0.000 HD 
HETATM   27  H   UNL     1      -7.482   6.354  69.815  1.00  0.00     0.000 HD 
BRANCH  24  28
HETATM   28  C   UNL     1      -8.035   5.093  71.389  1.00  0.00    -0.112 A  
HETATM   29  C   UNL     1      -7.263   3.930  71.405  1.00  0.00    -0.036 A  
HETATM   30  C   UNL     1      -7.735   2.760  71.998  1.00  0.00    -0.053 A  
HETATM   31  C   UNL     1      -9.007   2.723  72.578  1.00  0.00    -0.108 A  
HETATM   32  C   UNL     1      -9.515   1.576  73.192  1.00  0.00    -0.072 A  
HETATM   33  N   UNL     1     -10.743   1.487  73.749  1.00  0.00    -0.103 NA 
HETATM   34  C   UNL     1     -11.507   2.596  73.694  1.00  0.00    -0.127 A  
HETATM   35  C   UNL     1     -11.100   3.793  73.119  1.00  0.00    -0.201 A  
HETATM   36  C   UNL     1      -9.823   3.872  72.545  1.00  0.00    -0.216 A  
HETATM   37  C   UNL     1      -9.325   5.051  71.943  1.00  0.00    -0.176 A  
ENDBRANCH  24  28
ENDBRANCH  12  13
ENDBRANCH  11  12
ENDBRANCH   9  11
ENDBRANCH   6   9
TORSDOF 5
ENDMDL
MODEL      183
REMARK 921   NORMALIZED FREE ENERGY PREDICTED BY IDOCK:   -1.49 KCAL/MOL
REMARK 922        TOTAL FREE ENERGY PREDICTED BY IDOCK:   -4.15 KCAL/MOL
REMARK 923 INTER-LIGAND FREE ENERGY PREDICTED BY IDOCK:   -3.26 KCAL/MOL
REMARK 924 INTRA-LIGAND FREE ENERGY PREDICTED BY IDOCK:   -0.90 KCAL/MOL
REMARK 927      BINDING AFFINITY PREDICTED BY RF-SCORE:    0.00 PKD
ROOT
HETATM    1  C   UNL     1     -10.923   4.470  66.573  1.00  0.00     0.956 C  
HETATM    2  C   UNL     1      -9.605   4.395  65.859  1.00  0.00    -0.188 A  
HETATM    3  C   UNL     1      -9.522   3.831  64.581  1.00  0.00    -0.165 A  
HETATM    4  C   UNL     1      -8.289   3.700  63.915  1.00  0.00    -0.090 A  
HETATM    5  C   UNL     1      -8.281   3.070  62.548  1.00  0.00    -0.073 C  
HETATM    6  C   UNL     1      -7.112   4.147  64.553  1.00  0.00    -0.051 A  
HETATM    7  C   UNL     1      -7.198   4.731  65.828  1.00  0.00    -0.076 A  
HETATM    8  C   UNL     1      -8.435   4.852  66.474  1.00  0.00    -0.110 A  
ENDROOT
BRANCH   6   9
HETATM    9  C   UNL     1      -5.779   3.948  63.904  1.00  0.00    -0.014 C  
HETATM   10  O   UNL     1      -5.304   2.850  63.656  1.00  0.00    -0.008 OA 
BRANCH   9  11
HETATM   11  O   UNL     1      -5.193   5.138  63.613  1.00  0.00    -0.009 OA 
BRANCH  11  12
HETATM   12  C   UNL     1      -5.617   5.717  62.364  1.00  0.00    -0.014 C  
BRANCH  12  13
HETATM   13  C   UNL     1      -6.390   6.988  62.614  1.00  0.00    -0.048 A  
HETATM   14  C   UNL     1      -5.820   8.239  62.346  1.00  0.00    -0.079 A  
HETATM   15  C   UNL     1      -6.476   9.414  62.720  1.00  0.00    -0.097 A  
HETATM   16  C   UNL     1      -7.716   9.359  63.371  1.00  0.00    -0.117 A  
HETATM   17  C   UNL     1      -8.332   8.108  63.538  1.00  0.00     0.013 A  
HETATM   18  C   UNL     1      -8.341  10.641  63.917  1.00  0.00    -0.023 C  
HETATM   19  C   UNL     1      -7.667   6.935  63.181  1.00  0.00    -0.107 A  
HETATM   20  C   UNL     1      -9.149  10.395  65.206  1.00  0.00    -0.193 C  
HETATM   21  C   UNL     1      -9.214  11.325  62.839  1.00  0.00    -0.319 C  
HETATM   22  O   UNL     1     -10.356  10.637  65.252  1.00  0.00    -0.290 OA 
HETATM   23  N   UNL     1      -9.752  12.626  63.265  1.00  0.00    -0.466 NA 
HETATM   24  N   UNL     1      -8.407   9.861  66.255  1.00  0.00    -0.123 N  
HETATM   25  H1  UNL     1     -10.327  13.078  62.554  1.00  0.00     0.000 HD 
HETATM   26  H2  UNL     1      -9.002  13.245  63.572  1.00  0.00     0.000 HD 
HETATM   27  H   UNL     1      -7.422   9.664  66.078  1.00  0.00     0.000 HD 
BRANCH  24  28
HETATM   28  C   UNL     1      -8.907   9.570  67.547  1.00  0.00    -0.125 A  
HETATM   29  C   UNL     1     -10.259   9.319  67.790  1.00  0.00    -0.271 A  
HETATM   30  C   UNL     1     -10.713   8.996  69.069  1.00  0.00    -0.163 A  
HETATM   31  C   UNL     1      -9.819   8.933  70.142  1.00  0.00    -0.199 A  
HETATM   32  C   UNL     1     -10.229   8.602  71.436  1.00  0.00    -0.254 A  
HETATM   33  N   UNL     1      -9.408   8.546  72.508  1.00  0.00    -0.271 NA 
HETATM   34  C   UNL     1      -8.110   8.832  72.282  1.00  0.00     0.085 A  
HETATM   35  C   UNL     1      -7.591   9.161  71.037  1.00  0.00    -0.124 A  
HETATM   36  C   UNL     1      -8.455   9.215  69.933  1.00  0.00    -0.151 A  
HETATM   37  C   UNL     1      -8.012   9.536  68.629  1.00  0.00    -0.092 A  
ENDBRANCH  24  28
ENDBRANCH  12  13
ENDBRANCH  11  12
ENDBRANCH   9  11
ENDBRANCH   6   9
TORSDOF 5
ENDMDL
MODEL      184
REMARK 921   NORMALIZED FREE ENERGY PREDICTED BY IDOCK:   -1.44 KCAL/MOL
REMARK 922        TOTAL FREE ENERGY PREDICTED BY IDOCK:   -4.09 KCAL/MOL
REMARK 923 INTER-LIGAND FREE ENERGY PREDICTED BY IDOCK:   -3.13 KCAL/MOL
REMARK 924 INTRA-LIGAND FREE ENERGY PREDICTED BY IDOCK:   -0.96 KCAL/MOL
REMARK 927      BINDING AFFINITY PREDICTED BY RF-SCORE:    0.00 PKD
ROOT
HETATM    1  C   UNL     1      -7.293   9.699  71.109  1.00  0.00     0.221 C  
HETATM    2  C   UNL     1      -7.790  10.283  69.819  1.00  0.00    -0.151 A  
HETATM    3  C   UNL     1      -7.052  11.271  69.156  1.00  0.00    -0.122 A  
HETATM    4  C   UNL     1      -7.524  11.871  67.975  1.00  0.00    -0.107 A  
HETATM    5  C   UNL     1      -6.678  12.936  67.330  1.00  0.00    -0.131 C  
HETATM    6  C   UNL     1      -8.770  11.467  67.449  1.00  0.00    -0.147 A  
HETATM    7  C   UNL     1      -9.502  10.462  68.102  1.00  0.00    -0.152 A  
HETATM    8  C   UNL     1      -9.015   9.877  69.279  1.00  0.00    -0.184 A  
ENDROOT
BRANCH   6   9
HETATM    9  C   UNL     1      -9.335  12.145  66.240  1.00  0.00    -0.218 C  
HETATM   10  O   UNL     1      -9.336  13.356  66.081  1.00  0.00    -0.184 OA 
BRANCH   9  11
HETATM   11  O   UNL     1      -9.815  11.238  65.350  1.00  0.00    -0.216 OA 
BRANCH  11  12
HETATM   12  C   UNL     1      -8.943  10.986  64.233  1.00  0.00    -0.038 C  
BRANCH  12  13
HETATM   13  C   UNL     1      -8.472   9.552  64.251  1.00  0.00    -0.193 A  
HETATM   14  C   UNL     1      -8.856   8.658  63.243  1.00  0.00     0.229 A  
HETATM   15  C   UNL     1      -8.547   7.299  63.343  1.00  0.00     0.489 A  
HETATM   16  C   UNL     1      -7.848   6.809  64.455  1.00  0.00    -0.115 A  
HETATM   17  C   UNL     1      -7.372   7.726  65.405  1.00  0.00    -0.077 A  
HETATM   18  C   UNL     1      -7.661   5.304  64.628  1.00  0.00    -0.088 C  
HETATM   19  C   UNL     1      -7.697   9.080  65.315  1.00  0.00    -0.100 A  
HETATM   20  C   UNL     1      -7.662   4.880  66.110  1.00  0.00    -0.091 C  
HETATM   21  C   UNL     1      -6.373   4.828  63.916  1.00  0.00    -0.026 C  
HETATM   22  O   UNL     1      -6.678   4.336  66.612  1.00  0.00    -0.048 OA 
HETATM   23  N   UNL     1      -6.197   3.368  63.948  1.00  0.00    -0.018 NA 
HETATM   24  N   UNL     1      -8.830   5.196  66.796  1.00  0.00    -0.111 N  
HETATM   25  H1  UNL     1      -5.347   3.054  63.478  1.00  0.00     0.000 HD 
HETATM   26  H2  UNL     1      -7.017   2.896  63.567  1.00  0.00     0.000 HD 
HETATM   27  H   UNL     1      -9.559   5.687  66.278  1.00  0.00     0.000 HD 
BRANCH  24  28
HETATM   28  C   UNL     1      -9.090   4.892  68.154  1.00  0.00    -0.114 A  
HETATM   29  C   UNL     1      -9.770   5.767  69.003  1.00  0.00    -0.180 A  
HETATM   30  C   UNL     1     -10.045   5.420  70.325  1.00  0.00    -0.318 A  
HETATM   31  C   UNL     1      -9.627   4.187  70.835  1.00  0.00    -0.250 A  
HETATM   32  C   UNL     1      -9.891   3.794  72.149  1.00  0.00    -0.168 A  
HETATM   33  N   UNL     1      -9.492   2.623  72.693  1.00  0.00    -0.099 NA 
HETATM   34  C   UNL     1      -8.796   1.796  71.887  1.00  0.00    -0.067 A  
HETATM   35  C   UNL     1      -8.488   2.078  70.562  1.00  0.00    -0.086 A  
HETATM   36  C   UNL     1      -8.908   3.298  70.011  1.00  0.00    -0.149 A  
HETATM   37  C   UNL     1      -8.643   3.665  68.672  1.00  0.00    -0.120 A  
ENDBRANCH  24  28
ENDBRANCH  12  13
ENDBRANCH  11  12
ENDBRANCH   9  11
ENDBRANCH   6   9
TORSDOF 5
ENDMDL
MODEL      185
REMARK 921   NORMALIZED FREE ENERGY PREDICTED BY IDOCK:   -1.36 KCAL/MOL
REMARK 922        TOTAL FREE ENERGY PREDICTED BY IDOCK:   -3.98 KCAL/MOL
REMARK 923 INTER-LIGAND FREE ENERGY PREDICTED BY IDOCK:   -3.97 KCAL/MOL
REMARK 924 INTRA-LIGAND FREE ENERGY PREDICTED BY IDOCK:   -0.02 KCAL/MOL
REMARK 927      BINDING AFFINITY PREDICTED BY RF-SCORE:    0.00 PKD
ROOT
HETATM    1  C   UNL     1     -13.597  15.770  72.676  1.00  0.00    -0.630 C  
HETATM    2  C   UNL     1     -13.061  14.931  71.552  1.00  0.00    -0.434 A  
HETATM    3  C   UNL     1     -12.368  15.526  70.491  1.00  0.00    -0.461 A  
HETATM    4  C   UNL     1     -11.905  14.768  69.401  1.00  0.00    -0.360 A  
HETATM    5  C   UNL     1     -11.180  15.483  68.292  1.00  0.00    -0.343 C  
HETATM    6  C   UNL     1     -12.145  13.377  69.378  1.00  0.00    -0.321 A  
HETATM    7  C   UNL     1     -12.823  12.777  70.452  1.00  0.00     0.144 A  
HETATM    8  C   UNL     1     -13.278  13.550  71.529  1.00  0.00    -0.402 A  
ENDROOT
BRANCH   6   9
HETATM    9  C   UNL     1     -11.735  12.559  68.194  1.00  0.00    -0.348 C  
HETATM   10  O   UNL     1     -12.523  12.099  67.383  1.00  0.00    -0.087 OA 
BRANCH   9  11
HETATM   11  O   UNL     1     -10.385  12.422  68.138  1.00  0.00    -0.212 OA 
BRANCH  11  12
HETATM   12  C   UNL     1      -9.745  12.327  69.424  1.00  0.00     0.920 C  
BRANCH  12  13
HETATM   13  C   UNL     1      -8.904  11.077  69.498  1.00  0.00     0.356 A  
HETATM   14  C   UNL     1      -7.523  11.153  69.719  1.00  0.00     0.212 A  
HETATM   15  C   UNL     1      -6.724  10.011  69.634  1.00  0.00    -0.068 A  
HETATM   16  C   UNL     1      -7.294   8.768  69.324  1.00  0.00    -0.070 A  
HETATM   17  C   UNL     1      -8.690   8.679  69.211  1.00  0.00    -0.133 A  
HETATM   18  C   UNL     1      -6.390   7.563  69.075  1.00  0.00    -0.039 C  
HETATM   19  C   UNL     1      -9.484   9.824  69.277  1.00  0.00    -0.201 A  
HETATM   20  C   UNL     1      -6.973   6.601  68.021  1.00  0.00    -0.080 C  
HETATM   21  C   UNL     1      -6.092   6.820  70.398  1.00  0.00    -0.024 C  
HETATM   22  O   UNL     1      -7.242   5.435  68.311  1.00  0.00    -0.068 OA 
HETATM   23  N   UNL     1      -5.132   5.716  70.243  1.00  0.00    -0.004 NA 
HETATM   24  N   UNL     1      -7.186   7.177  66.773  1.00  0.00    -0.081 N  
HETATM   25  H1  UNL     1      -4.936   5.227  71.116  1.00  0.00     0.000 HD 
HETATM   26  H2  UNL     1      -4.270   6.045  69.810  1.00  0.00     0.000 HD 
HETATM   27  H   UNL     1      -6.962   8.167  66.671  1.00  0.00     0.000 HD 
BRANCH  24  28
HETATM   28  C   UNL     1      -7.686   6.503  65.634  1.00  0.00    -0.094 A  
HETATM   29  C   UNL     1      -7.211   6.751  64.345  1.00  0.00    -0.069 A  
HETATM   30  C   UNL     1      -7.698   6.041  63.248  1.00  0.00    -0.096 A  
HETATM   31  C   UNL     1      -8.690   5.070  63.417  1.00  0.00    -0.078 A  
HETATM   32  C   UNL     1      -9.198   4.328  62.348  1.00  0.00    -0.121 A  
HETATM   33  N   UNL     1     -10.168   3.393  62.458  1.00  0.00    -0.125 NA 
HETATM   34  C   UNL     1     -10.659   3.184  63.696  1.00  0.00    -0.241 A  
HETATM   35  C   UNL     1     -10.221   3.855  64.830  1.00  0.00    -0.172 A  
HETATM   36  C   UNL     1      -9.213   4.823  64.702  1.00  0.00    -0.081 A  
HETATM   37  C   UNL     1      -8.704   5.549  65.803  1.00  0.00    -0.151 A  
ENDBRANCH  24  28
ENDBRANCH  12  13
ENDBRANCH  11  12
ENDBRANCH   9  11
ENDBRANCH   6   9
TORSDOF 5
ENDMDL
MODEL      186
REMARK 921   NORMALIZED FREE ENERGY PREDICTED BY IDOCK:   -1.24 KCAL/MOL
REMARK 922        TOTAL FREE ENERGY PREDICTED BY IDOCK:   -3.83 KCAL/MOL
REMARK 923 INTER-LIGAND FREE ENERGY PREDICTED BY IDOCK:   -7.83 KCAL/MOL
REMARK 924 INTRA-LIGAND FREE ENERGY PREDICTED BY IDOCK:    4.00 KCAL/MOL
REMARK 927      BINDING AFFINITY PREDICTED BY RF-SCORE:    0.00 PKD
ROOT
HETATM    1  C   UNL     1      -9.997  20.930  66.541  1.00  0.00     0.302 C  
HETATM    2  C   UNL     1      -9.864  19.440  66.413  1.00  0.00    -0.476 A  
HETATM    3  C   UNL     1      -8.739  18.782  66.924  1.00  0.00    -0.298 A  
HETATM    4  C   UNL     1      -8.568  17.395  66.768  1.00  0.00    -0.284 A  
HETATM    5  C   UNL     1      -7.324  16.763  67.334  1.00  0.00    -0.187 C  
HETATM    6  C   UNL     1      -9.552  16.653  66.081  1.00  0.00    -0.323 A  
HETATM    7  C   UNL     1     -10.691  17.310  65.586  1.00  0.00    -0.123 A  
HETATM    8  C   UNL     1     -10.843  18.693  65.750  1.00  0.00    -0.093 A  
ENDROOT
BRANCH   6   9
HETATM    9  C   UNL     1      -9.357  15.190  65.830  1.00  0.00    -0.244 C  
HETATM   10  O   UNL     1      -8.682  14.465  66.544  1.00  0.00    -0.163 OA 
BRANCH   9  11
HETATM   11  O   UNL     1     -10.043  14.787  64.730  1.00  0.00    -0.308 OA 
BRANCH  11  12
HETATM   12  C   UNL     1     -10.751  13.544  64.896  1.00  0.00    -0.381 C  
BRANCH  12  13
HETATM   13  C   UNL     1     -11.248  13.412  66.315  1.00  0.00    -0.322 A  
HETATM   14  C   UNL     1     -10.988  14.410  67.262  1.00  0.00    -0.301 A  
HETATM   15  C   UNL     1     -11.313  14.216  68.606  1.00  0.00    -0.306 A  
HETATM   16  C   UNL     1     -11.904  13.018  69.029  1.00  0.00    -0.362 A  
HETATM   17  C   UNL     1     -12.261  12.068  68.059  1.00  0.00     0.241 A  
HETATM   18  C   UNL     1     -12.104  12.757  70.520  1.00  0.00    -0.369 C  
HETATM   19  C   UNL     1     -11.919  12.254  66.719  1.00  0.00    -0.230 A  
HETATM   20  C   UNL     1     -11.960  11.265  70.878  1.00  0.00    -0.214 C  
HETATM   21  C   UNL     1     -13.467  13.311  70.994  1.00  0.00     0.233 C  
HETATM   22  O   UNL     1     -12.898  10.641  71.374  1.00  0.00    -0.382 OA 
HETATM   23  N   UNL     1     -13.671  13.194  72.446  1.00  0.00    -0.611 NA 
HETATM   24  N   UNL     1     -10.721  10.716  70.562  1.00  0.00    -0.352 N  
HETATM   25  H1  UNL     1     -14.570  13.560  72.759  1.00  0.00     0.000 HD 
HETATM   26  H2  UNL     1     -12.904  13.634  72.955  1.00  0.00     0.000 HD 
HETATM   27  H   UNL     1     -10.040  11.327  70.112  1.00  0.00     0.000 HD 
BRANCH  24  28
HETATM   28  C   UNL     1     -10.330   9.379  70.812  1.00  0.00    -0.298 A  
HETATM   29  C   UNL     1      -9.573   8.635  69.905  1.00  0.00    -0.174 A  
HETATM   30  C   UNL     1      -9.171   7.333  70.199  1.00  0.00    -0.152 A  
HETATM   31  C   UNL     1      -9.533   6.737  71.411  1.00  0.00    -0.160 A  
HETATM   32  C   UNL     1      -9.142   5.440  71.752  1.00  0.00    -0.138 A  
HETATM   33  N   UNL     1      -9.481   4.815  72.901  1.00  0.00    -0.130 NA 
HETATM   34  C   UNL     1     -10.249   5.517  73.759  1.00  0.00    -0.227 A  
HETATM   35  C   UNL     1     -10.685   6.815  73.528  1.00  0.00    -0.319 A  
HETATM   36  C   UNL     1     -10.325   7.452  72.331  1.00  0.00    -0.263 A  
HETATM   37  C   UNL     1     -10.720   8.772  72.017  1.00  0.00    -0.417 A  
ENDBRANCH  24  28
ENDBRANCH  12  13
ENDBRANCH  11  12
ENDBRANCH   9  11
ENDBRANCH   6   9
TORSDOF 5
ENDMDL
MODEL      187
REMARK 921   NORMALIZED FREE ENERGY PREDICTED BY IDOCK:   -1.14 KCAL/MOL
REMARK 922        TOTAL FREE ENERGY PREDICTED BY IDOCK:   -3.70 KCAL/MOL
REMARK 923 INTER-LIGAND FREE ENERGY PREDICTED BY IDOCK:   -6.41 KCAL/MOL
REMARK 924 INTRA-LIGAND FREE ENERGY PREDICTED BY IDOCK:    2.71 KCAL/MOL
REMARK 927      BINDING AFFINITY PREDICTED BY RF-SCORE:    0.00 PKD
ROOT
HETATM    1  C   UNL     1     -11.500   9.995  70.118  1.00  0.00    -0.344 C  
HETATM    2  C   UNL     1     -11.434  10.572  68.733  1.00  0.00    -0.291 A  
HETATM    3  C   UNL     1     -10.545  10.048  67.788  1.00  0.00    -0.311 A  
HETATM    4  C   UNL     1     -10.427  10.607  66.503  1.00  0.00    -0.285 A  
HETATM    5  C   UNL     1      -9.438   9.995  65.548  1.00  0.00    -0.296 C  
HETATM    6  C   UNL     1     -11.224  11.721  66.162  1.00  0.00    -0.363 A  
HETATM    7  C   UNL     1     -12.131  12.235  67.104  1.00  0.00    -0.013 A  
HETATM    8  C   UNL     1     -12.232  11.664  68.379  1.00  0.00     0.122 A  
ENDROOT
BRANCH   6   9
HETATM    9  C   UNL     1     -11.062  12.387  64.831  1.00  0.00    -0.303 C  
HETATM   10  O   UNL     1     -10.037  12.338  64.170  1.00  0.00    -0.322 OA 
BRANCH   9  11
HETATM   11  O   UNL     1     -12.204  13.022  64.459  1.00  0.00    -0.383 OA 
BRANCH  11  12
HETATM   12  C   UNL     1     -12.696  13.968  65.426  1.00  0.00    -0.471 C  
BRANCH  12  13
HETATM   13  C   UNL     1     -11.569  14.836  65.929  1.00  0.00    -0.286 A  
HETATM   14  C   UNL     1     -10.725  15.506  65.034  1.00  0.00    -0.463 A  
HETATM   15  C   UNL     1      -9.593  16.182  65.494  1.00  0.00    -0.057 A  
HETATM   16  C   UNL     1      -9.284  16.200  66.861  1.00  0.00    -0.246 A  
HETATM   17  C   UNL     1     -10.191  15.621  67.762  1.00  0.00    -0.252 A  
HETATM   18  C   UNL     1      -7.961  16.803  67.329  1.00  0.00    -0.197 C  
HETATM   19  C   UNL     1     -11.311  14.929  67.300  1.00  0.00    -0.355 A  
HETATM   20  C   UNL     1      -7.394  16.080  68.567  1.00  0.00    -0.146 C  
HETATM   21  C   UNL     1      -8.115  18.319  67.595  1.00  0.00    -0.245 C  
HETATM   22  O   UNL     1      -7.220  16.684  69.626  1.00  0.00    -0.116 OA 
HETATM   23  N   UNL     1      -6.847  18.981  67.938  1.00  0.00    -0.218 NA 
HETATM   24  N   UNL     1      -7.144  14.726  68.376  1.00  0.00    -0.107 N  
HETATM   25  H1  UNL     1      -6.948  19.981  68.113  1.00  0.00     0.000 HD 
HETATM   26  H2  UNL     1      -6.143  18.808  67.221  1.00  0.00     0.000 HD 
HETATM   27  H   UNL     1      -7.371  14.332  67.463  1.00  0.00     0.000 HD 
BRANCH  24  28
HETATM   28  C   UNL     1      -6.600  13.848  69.345  1.00  0.00    -0.114 A  
HETATM   29  C   UNL     1      -5.768  14.290  70.375  1.00  0.00    -0.144 A  
HETATM   30  C   UNL     1      -5.280  13.406  71.337  1.00  0.00    -0.186 A  
HETATM   31  C   UNL     1      -5.604  12.047  71.278  1.00  0.00     0.126 A  
HETATM   32  C   UNL     1      -5.147  11.129  72.226  1.00  0.00     0.225 A  
HETATM   33  N   UNL     1      -5.417   9.805  72.202  1.00  0.00    -0.233 NA 
HETATM   34  C   UNL     1      -6.184   9.370  71.181  1.00  0.00    -0.077 A  
HETATM   35  C   UNL     1      -6.701  10.194  70.191  1.00  0.00    -0.138 A  
HETATM   36  C   UNL     1      -6.413  11.567  70.229  1.00  0.00     0.096 A  
HETATM   37  C   UNL     1      -6.902  12.479  69.266  1.00  0.00    -0.019 A  
ENDBRANCH  24  28
ENDBRANCH  12  13
ENDBRANCH  11  12
ENDBRANCH   9  11
ENDBRANCH   6   9
TORSDOF 5
ENDMDL
MODEL      188
REMARK 921   NORMALIZED FREE ENERGY PREDICTED BY IDOCK:   -0.77 KCAL/MOL
REMARK 922        TOTAL FREE ENERGY PREDICTED BY IDOCK:   -3.22 KCAL/MOL
REMARK 923 INTER-LIGAND FREE ENERGY PREDICTED BY IDOCK:   -3.90 KCAL/MOL
REMARK 924 INTRA-LIGAND FREE ENERGY PREDICTED BY IDOCK:    0.69 KCAL/MOL
REMARK 927      BINDING AFFINITY PREDICTED BY RF-SCORE:    0.00 PKD
ROOT
HETATM    1  C   UNL     1     -12.047  12.648  63.571  1.00  0.00    -0.648 C  
HETATM    2  C   UNL     1     -10.919  11.715  63.901  1.00  0.00    -0.478 A  
HETATM    3  C   UNL     1      -9.763  11.694  63.113  1.00  0.00    -0.385 A  
HETATM    4  C   UNL     1      -8.716  10.790  63.371  1.00  0.00    -0.123 A  
HETATM    5  C   UNL     1      -7.511  10.820  62.469  1.00  0.00    -0.086 C  
HETATM    6  C   UNL     1      -8.837   9.886  64.448  1.00  0.00    -0.245 A  
HETATM    7  C   UNL     1      -9.988   9.921  65.252  1.00  0.00    -0.320 A  
HETATM    8  C   UNL     1     -11.021  10.828  64.978  1.00  0.00     0.078 A  
ENDROOT
BRANCH   6   9
HETATM    9  C   UNL     1      -7.775   8.861  64.697  1.00  0.00    -0.117 C  
HETATM   10  O   UNL     1      -7.395   8.537  65.811  1.00  0.00    -0.078 OA 
BRANCH   9  11
HETATM   11  O   UNL     1      -7.320   8.335  63.530  1.00  0.00    -0.098 OA 
BRANCH  11  12
HETATM   12  C   UNL     1      -8.058   7.188  63.070  1.00  0.00    -0.031 C  
BRANCH  12  13
HETATM   13  C   UNL     1      -8.250   6.203  64.198  1.00  0.00    -0.031 A  
HETATM   14  C   UNL     1      -9.511   5.655  64.465  1.00  0.00     0.777 A  
HETATM   15  C   UNL     1      -9.717   4.866  65.599  1.00  0.00    -0.161 A  
HETATM   16  C   UNL     1      -8.664   4.612  66.489  1.00  0.00    -0.111 A  
HETATM   17  C   UNL     1      -7.380   5.073  66.158  1.00  0.00    -0.078 A  
HETATM   18  C   UNL     1      -8.942   3.887  67.803  1.00  0.00    -0.155 C  
HETATM   19  C   UNL     1      -7.179   5.876  65.035  1.00  0.00    -0.066 A  
HETATM   20  C   UNL     1      -8.028   4.373  68.945  1.00  0.00    -0.073 C  
HETATM   21  C   UNL     1      -8.830   2.356  67.617  1.00  0.00    -0.135 C  
HETATM   22  O   UNL     1      -7.257   3.597  69.510  1.00  0.00    -0.045 OA 
HETATM   23  N   UNL     1      -9.200   1.594  68.820  1.00  0.00    -0.132 NA 
HETATM   24  N   UNL     1      -8.141   5.729  69.232  1.00  0.00    -0.100 N  
HETATM   25  H1  UNL     1      -9.126   0.584  68.698  1.00  0.00     0.000 HD 
HETATM   26  H2  UNL     1     -10.134   1.853  69.139  1.00  0.00     0.000 HD 
HETATM   27  H   UNL     1      -8.787   6.276  68.662  1.00  0.00     0.000 HD 
BRANCH  24  28
HETATM   28  C   UNL     1      -7.433   6.413  70.249  1.00  0.00    -0.094 A  
HETATM   29  C   UNL     1      -6.069   6.697  70.154  1.00  0.00    -0.027 A  
HETATM   30  C   UNL     1      -5.410   7.408  71.157  1.00  0.00    -0.027 A  
HETATM   31  C   UNL     1      -6.103   7.837  72.293  1.00  0.00    -0.040 A  
HETATM   32  C   UNL     1      -5.485   8.561  73.316  1.00  0.00    -0.066 A  
HETATM   33  N   UNL     1      -6.107   8.982  74.439  1.00  0.00    -0.258 NA 
HETATM   34  C   UNL     1      -7.413   8.669  74.553  1.00  0.00    -0.110 A  
HETATM   35  C   UNL     1      -8.130   7.965  73.594  1.00  0.00    -0.248 A  
HETATM   36  C   UNL     1      -7.472   7.534  72.432  1.00  0.00    -0.082 A  
HETATM   37  C   UNL     1      -8.125   6.817  71.403  1.00  0.00    -0.110 A  
ENDBRANCH  24  28
ENDBRANCH  12  13
ENDBRANCH  11  12
ENDBRANCH   9  11
ENDBRANCH   6   9
TORSDOF 5
ENDMDL
MODEL      189
REMARK 921   NORMALIZED FREE ENERGY PREDICTED BY IDOCK:   -0.71 KCAL/MOL
REMARK 922        TOTAL FREE ENERGY PREDICTED BY IDOCK:   -3.14 KCAL/MOL
REMARK 923 INTER-LIGAND FREE ENERGY PREDICTED BY IDOCK:   -6.20 KCAL/MOL
REMARK 924 INTRA-LIGAND FREE ENERGY PREDICTED BY IDOCK:    3.06 KCAL/MOL
REMARK 927      BINDING AFFINITY PREDICTED BY RF-SCORE:    0.00 PKD
ROOT
HETATM    1  C   UNL     1      -5.717  14.603  70.029  1.00  0.00    -0.121 C  
HETATM    2  C   UNL     1      -7.132  14.673  69.533  1.00  0.00    -0.152 A  
HETATM    3  C   UNL     1      -7.687  13.605  68.819  1.00  0.00    -0.064 A  
HETATM    4  C   UNL     1      -8.992  13.671  68.297  1.00  0.00    -0.187 A  
HETATM    5  C   UNL     1      -9.512  12.486  67.528  1.00  0.00    -0.185 C  
HETATM    6  C   UNL     1      -9.756  14.841  68.499  1.00  0.00    -0.218 A  
HETATM    7  C   UNL     1      -9.206  15.905  69.233  1.00  0.00    -0.254 A  
HETATM    8  C   UNL     1      -7.904  15.821  69.743  1.00  0.00     0.098 A  
ENDROOT
BRANCH   6   9
HETATM    9  C   UNL     1     -11.115  14.970  67.887  1.00  0.00    -0.307 C  
HETATM   10  O   UNL     1     -11.491  14.315  66.928  1.00  0.00    -0.331 OA 
BRANCH   9  11
HETATM   11  O   UNL     1     -11.866  15.886  68.552  1.00  0.00    -0.366 OA 
BRANCH  11  12
HETATM   12  C   UNL     1     -11.762  15.808  69.986  1.00  0.00    -0.355 C  
BRANCH  12  13
HETATM   13  C   UNL     1     -12.066  14.407  70.457  1.00  0.00    -0.404 A  
HETATM   14  C   UNL     1     -12.436  14.161  71.786  1.00  0.00    -0.360 A  
HETATM   15  C   UNL     1     -12.567  12.853  72.257  1.00  0.00     0.175 A  
HETATM   16  C   UNL     1     -12.330  11.765  71.406  1.00  0.00    -0.153 A  
HETATM   17  C   UNL     1     -12.068  12.017  70.050  1.00  0.00    -0.355 A  
HETATM   18  C   UNL     1     -12.319  10.348  71.975  1.00  0.00    -0.004 C  
HETATM   19  C   UNL     1     -11.918  13.324  69.585  1.00  0.00    -0.376 A  
HETATM   20  C   UNL     1     -11.315   9.432  71.246  1.00  0.00    -0.366 C  
HETATM   21  C   UNL     1     -13.740   9.739  71.955  1.00  0.00    -0.253 C  
HETATM   22  O   UNL     1     -11.697   8.422  70.655  1.00  0.00    -0.254 OA 
HETATM   23  N   UNL     1     -13.817   8.418  72.597  1.00  0.00    -0.635 NA 
HETATM   24  N   UNL     1      -9.996   9.870  71.299  1.00  0.00     0.023 N  
HETATM   25  H1  UNL     1     -14.755   8.017  72.584  1.00  0.00     0.000 HD 
HETATM   26  H2  UNL     1     -13.452   8.457  73.548  1.00  0.00     0.000 HD 
HETATM   27  H   UNL     1      -9.814  10.748  71.785  1.00  0.00     0.000 HD 
BRANCH  24  28
HETATM   28  C   UNL     1      -8.887   9.197  70.733  1.00  0.00    -0.239 A  
HETATM   29  C   UNL     1      -8.134   9.736  69.689  1.00  0.00    -0.158 A  
HETATM   30  C   UNL     1      -7.022   9.064  69.180  1.00  0.00    -0.058 A  
HETATM   31  C   UNL     1      -6.647   7.822  69.700  1.00  0.00    -0.035 A  
HETATM   32  C   UNL     1      -5.535   7.120  69.228  1.00  0.00    -0.015 A  
HETATM   33  N   UNL     1      -5.144   5.910  69.685  1.00  0.00    -0.004 NA 
HETATM   34  C   UNL     1      -5.897   5.368  70.663  1.00  0.00    -0.021 A  
HETATM   35  C   UNL     1      -7.015   5.981  71.214  1.00  0.00    -0.068 A  
HETATM   36  C   UNL     1      -7.410   7.237  70.731  1.00  0.00    -0.071 A  
HETATM   37  C   UNL     1      -8.531   7.935  71.237  1.00  0.00    -0.127 A  
ENDBRANCH  24  28
ENDBRANCH  12  13
ENDBRANCH  11  12
ENDBRANCH   9  11
ENDBRANCH   6   9
TORSDOF 5
ENDMDL
MODEL      190
REMARK 921   NORMALIZED FREE ENERGY PREDICTED BY IDOCK:   -0.62 KCAL/MOL
REMARK 922        TOTAL FREE ENERGY PREDICTED BY IDOCK:   -3.02 KCAL/MOL
REMARK 923 INTER-LIGAND FREE ENERGY PREDICTED BY IDOCK:   -3.50 KCAL/MOL
REMARK 924 INTRA-LIGAND FREE ENERGY PREDICTED BY IDOCK:    0.48 KCAL/MOL
REMARK 927      BINDING AFFINITY PREDICTED BY RF-SCORE:    0.00 PKD
ROOT
HETATM    1  C   UNL     1     -12.590  14.898  69.325  1.00  0.00     0.094 C  
HETATM    2  C   UNL     1     -11.219  14.317  69.132  1.00  0.00    -0.302 A  
HETATM    3  C   UNL     1     -10.081  15.119  69.278  1.00  0.00    -0.246 A  
HETATM    4  C   UNL     1      -8.790  14.610  69.049  1.00  0.00    -0.090 A  
HETATM    5  C   UNL     1      -7.618  15.540  69.213  1.00  0.00    -0.221 C  
HETATM    6  C   UNL     1      -8.642  13.260  68.662  1.00  0.00     0.026 A  
HETATM    7  C   UNL     1      -9.782  12.450  68.535  1.00  0.00    -0.140 A  
HETATM    8  C   UNL     1     -11.059  12.976  68.766  1.00  0.00    -0.311 A  
ENDROOT
BRANCH   6   9
HETATM    9  C   UNL     1      -7.288  12.714  68.334  1.00  0.00    -0.118 C  
HETATM   10  O   UNL     1      -6.467  12.386  69.176  1.00  0.00    -0.088 OA 
BRANCH   9  11
HETATM   11  O   UNL     1      -7.113  12.614  66.990  1.00  0.00    -0.076 OA 
BRANCH  11  12
HETATM   12  C   UNL     1      -7.728  11.455  66.398  1.00  0.00    -0.051 C  
BRANCH  12  13
HETATM   13  C   UNL     1      -7.385  10.218  67.191  1.00  0.00    -0.091 A  
HETATM   14  C   UNL     1      -6.064   9.957  67.577  1.00  0.00    -0.058 A  
HETATM   15  C   UNL     1      -5.725   8.741  68.175  1.00  0.00    -0.039 A  
HETATM   16  C   UNL     1      -6.703   7.761  68.397  1.00  0.00    -0.062 A  
HETATM   17  C   UNL     1      -8.041   8.072  68.109  1.00  0.00    -0.129 A  
HETATM   18  C   UNL     1      -6.289   6.380  68.900  1.00  0.00    -0.038 C  
HETATM   19  C   UNL     1      -8.376   9.279  67.494  1.00  0.00    -0.119 A  
HETATM   20  C   UNL     1      -7.191   5.260  68.344  1.00  0.00    -0.067 C  
HETATM   21  C   UNL     1      -6.257   6.349  70.446  1.00  0.00    -0.035 C  
HETATM   22  O   UNL     1      -7.853   4.549  69.100  1.00  0.00    -0.069 OA 
HETATM   23  N   UNL     1      -5.754   5.079  70.992  1.00  0.00    -0.015 NA 
HETATM   24  N   UNL     1      -7.202   5.169  66.956  1.00  0.00    -0.079 N  
HETATM   25  H1  UNL     1      -5.732   5.058  72.011  1.00  0.00     0.000 HD 
HETATM   26  H2  UNL     1      -4.837   4.857  70.605  1.00  0.00     0.000 HD 
HETATM   27  H   UNL     1      -6.642   5.846  66.438  1.00  0.00     0.000 HD 
BRANCH  24  28
HETATM   28  C   UNL     1      -7.925   4.212  66.204  1.00  0.00    -0.098 A  
HETATM   29  C   UNL     1      -7.946   2.856  66.536  1.00  0.00    -0.081 A  
HETATM   30  C   UNL     1      -8.700   1.945  65.796  1.00  0.00    -0.119 A  
HETATM   31  C   UNL     1      -9.443   2.373  64.691  1.00  0.00    -0.109 A  
HETATM   32  C   UNL     1     -10.220   1.497  63.930  1.00  0.00    -0.045 A  
HETATM   33  N   UNL     1     -10.939   1.858  62.845  1.00  0.00    -0.198 NA 
HETATM   34  C   UNL     1     -10.884   3.160  62.497  1.00  0.00    -0.152 A  
HETATM   35  C   UNL     1     -10.154   4.118  63.187  1.00  0.00    -0.080 A  
HETATM   36  C   UNL     1      -9.412   3.730  64.313  1.00  0.00    -0.158 A  
HETATM   37  C   UNL     1      -8.645   4.639  65.077  1.00  0.00    -0.138 A  
ENDBRANCH  24  28
ENDBRANCH  12  13
ENDBRANCH  11  12
ENDBRANCH   9  11
ENDBRANCH   6   9
TORSDOF 5
ENDMDL
MODEL      191
REMARK 921   NORMALIZED FREE ENERGY PREDICTED BY IDOCK:   -0.55 KCAL/MOL
REMARK 922        TOTAL FREE ENERGY PREDICTED BY IDOCK:   -2.94 KCAL/MOL
REMARK 923 INTER-LIGAND FREE ENERGY PREDICTED BY IDOCK:   -5.12 KCAL/MOL
REMARK 924 INTRA-LIGAND FREE ENERGY PREDICTED BY IDOCK:    2.19 KCAL/MOL
REMARK 927      BINDING AFFINITY PREDICTED BY RF-SCORE:    0.00 PKD
ROOT
HETATM    1  C   UNL     1      -6.938  10.957  68.518  1.00  0.00    -0.072 C  
HETATM    2  C   UNL     1      -7.436  12.363  68.690  1.00  0.00    -0.095 A  
HETATM    3  C   UNL     1      -8.809  12.631  68.713  1.00  0.00     0.172 A  
HETATM    4  C   UNL     1      -9.298  13.945  68.818  1.00  0.00    -0.031 A  
HETATM    5  C   UNL     1     -10.789  14.153  68.822  1.00  0.00    -0.271 C  
HETATM    6  C   UNL     1      -8.382  15.016  68.902  1.00  0.00    -0.183 A  
HETATM    7  C   UNL     1      -7.003  14.745  68.899  1.00  0.00    -0.110 A  
HETATM    8  C   UNL     1      -6.536  13.429  68.792  1.00  0.00    -0.102 A  
ENDROOT
BRANCH   6   9
HETATM    9  C   UNL     1      -8.872  16.429  68.934  1.00  0.00    -0.256 C  
HETATM   10  O   UNL     1      -9.932  16.767  69.437  1.00  0.00    -0.228 OA 
BRANCH   9  11
HETATM   11  O   UNL     1      -7.978  17.271  68.355  1.00  0.00    -0.233 OA 
BRANCH  11  12
HETATM   12  C   UNL     1      -8.429  17.856  67.119  1.00  0.00    -0.233 C  
BRANCH  12  13
HETATM   13  C   UNL     1      -9.290  16.876  66.360  1.00  0.00    -0.303 A  
HETATM   14  C   UNL     1     -10.579  17.229  65.940  1.00  0.00    -0.206 A  
HETATM   15  C   UNL     1     -11.429  16.275  65.376  1.00  0.00     0.357 A  
HETATM   16  C   UNL     1     -11.004  14.948  65.223  1.00  0.00    -0.389 A  
HETATM   17  C   UNL     1      -9.677  14.626  65.545  1.00  0.00    -0.247 A  
HETATM   18  C   UNL     1     -11.997  13.885  64.757  1.00  0.00    -0.426 C  
HETATM   19  C   UNL     1      -8.835  15.575  66.126  1.00  0.00    -0.273 A  
HETATM   20  C   UNL     1     -11.716  12.505  65.385  1.00  0.00    -0.398 C  
HETATM   21  C   UNL     1     -12.020  13.798  63.214  1.00  0.00     0.149 C  
HETATM   22  O   UNL     1     -11.443  11.534  64.678  1.00  0.00    -0.222 OA 
HETATM   23  N   UNL     1     -13.041  12.873  62.698  1.00  0.00     0.595 NA 
HETATM   24  N   UNL     1     -11.767  12.486  66.774  1.00  0.00    -0.386 N  
HETATM   25  H1  UNL     1     -13.056  12.815  61.679  1.00  0.00     0.000 HD 
HETATM   26  H2  UNL     1     -13.963  13.113  63.061  1.00  0.00     0.000 HD 
HETATM   27  H   UNL     1     -11.961  13.368  67.248  1.00  0.00     0.000 HD 
BRANCH  24  28
HETATM   28  C   UNL     1     -11.572  11.342  67.585  1.00  0.00    -0.238 A  
HETATM   29  C   UNL     1     -11.799  11.351  68.963  1.00  0.00    -0.415 A  
HETATM   30  C   UNL     1     -11.636  10.196  69.727  1.00  0.00    -0.245 A  
HETATM   31  C   UNL     1     -11.223   9.002  69.127  1.00  0.00     0.191 A  
HETATM   32  C   UNL     1     -11.057   7.820  69.852  1.00  0.00    -0.136 A  
HETATM   33  N   UNL     1     -10.643   6.648  69.321  1.00  0.00    -0.219 NA 
HETATM   34  C   UNL     1     -10.381   6.650  67.999  1.00  0.00    -0.191 A  
HETATM   35  C   UNL     1     -10.522   7.763  67.180  1.00  0.00    -0.413 A  
HETATM   36  C   UNL     1     -10.953   8.973  67.744  1.00  0.00    -0.004 A  
HETATM   37  C   UNL     1     -11.129  10.153  66.985  1.00  0.00    -0.061 A  
ENDBRANCH  24  28
ENDBRANCH  12  13
ENDBRANCH  11  12
ENDBRANCH   9  11
ENDBRANCH   6   9
TORSDOF 5
ENDMDL
MODEL      192
REMARK 921   NORMALIZED FREE ENERGY PREDICTED BY IDOCK:   -0.18 KCAL/MOL
REMARK 922        TOTAL FREE ENERGY PREDICTED BY IDOCK:   -2.46 KCAL/MOL
REMARK 923 INTER-LIGAND FREE ENERGY PREDICTED BY IDOCK:   -2.99 KCAL/MOL
REMARK 924 INTRA-LIGAND FREE ENERGY PREDICTED BY IDOCK:    0.53 KCAL/MOL
REMARK 927      BINDING AFFINITY PREDICTED BY RF-SCORE:    0.00 PKD
ROOT
HETATM    1  C   UNL     1     -14.127   7.554  73.180  1.00  0.00     1.581 C  
HETATM    2  C   UNL     1     -13.295   8.080  72.047  1.00  0.00    -0.276 A  
HETATM    3  C   UNL     1     -12.197   7.352  71.575  1.00  0.00    -0.368 A  
HETATM    4  C   UNL     1     -11.371   7.851  70.551  1.00  0.00    -0.242 A  
HETATM    5  C   UNL     1     -10.201   7.014  70.109  1.00  0.00    -0.206 C  
HETATM    6  C   UNL     1     -11.658   9.113  69.989  1.00  0.00     0.036 A  
HETATM    7  C   UNL     1     -12.772   9.835  70.448  1.00  0.00     0.051 A  
HETATM    8  C   UNL     1     -13.582   9.322  71.470  1.00  0.00    -0.412 A  
ENDROOT
BRANCH   6   9
HETATM    9  C   UNL     1     -10.751   9.704  68.955  1.00  0.00    -0.211 C  
HETATM   10  O   UNL     1      -9.852   9.084  68.410  1.00  0.00    -0.157 OA 
BRANCH   9  11
HETATM   11  O   UNL     1     -11.079  10.996  68.698  1.00  0.00    -0.201 OA 
BRANCH  11  12
HETATM   12  C   UNL     1     -11.733  11.201  67.432  1.00  0.00     0.059 C  
BRANCH  12  13
HETATM   13  C   UNL     1     -11.515  12.615  66.953  1.00  0.00    -0.402 A  
HETATM   14  C   UNL     1     -11.159  12.876  65.624  1.00  0.00    -0.307 A  
HETATM   15  C   UNL     1     -10.809  14.166  65.222  1.00  0.00    -0.356 A  
HETATM   16  C   UNL     1     -10.807  15.222  66.144  1.00  0.00    -0.320 A  
HETATM   17  C   UNL     1     -11.270  14.976  67.447  1.00  0.00    -0.337 A  
HETATM   18  C   UNL     1     -10.268  16.588  65.729  1.00  0.00    -0.350 C  
HETATM   19  C   UNL     1     -11.601  13.683  67.852  1.00  0.00    -0.376 A  
HETATM   20  C   UNL     1      -9.580  17.326  66.895  1.00  0.00    -0.268 C  
HETATM   21  C   UNL     1     -11.389  17.455  65.111  1.00  0.00     0.842 C  
HETATM   22  O   UNL     1     -10.003  18.411  67.293  1.00  0.00    -0.309 OA 
HETATM   23  N   UNL     1     -10.909  18.742  64.585  1.00  0.00     0.594 NA 
HETATM   24  N   UNL     1      -8.499  16.645  67.446  1.00  0.00    -0.185 N  
HETATM   25  H1  UNL     1     -11.649  19.313  64.177  1.00  0.00     0.000 HD 
HETATM   26  H2  UNL     1     -10.151  18.599  63.917  1.00  0.00     0.000 HD 
HETATM   27  H   UNL     1      -8.273  15.730  67.055  1.00  0.00     0.000 HD 
BRANCH  24  28
HETATM   28  C   UNL     1      -7.687  17.118  68.505  1.00  0.00    -0.248 A  
HETATM   29  C   UNL     1      -6.937  16.263  69.315  1.00  0.00    -0.217 A  
HETATM   30  C   UNL     1      -6.116  16.764  70.325  1.00  0.00     0.061 A  
HETATM   31  C   UNL     1      -6.041  18.141  70.559  1.00  0.00     0.278 A  
HETATM   32  C   UNL     1      -5.224  18.686  71.552  1.00  0.00    -0.242 A  
HETATM   33  N   UNL     1      -5.132  20.006  71.828  1.00  0.00    -0.371 NA 
HETATM   34  C   UNL     1      -5.890  20.828  71.076  1.00  0.00     0.152 A  
HETATM   35  C   UNL     1      -6.729  20.397  70.056  1.00  0.00     0.057 A  
HETATM   36  C   UNL     1      -6.815  19.024  69.780  1.00  0.00    -0.035 A  
HETATM   37  C   UNL     1      -7.637  18.498  68.757  1.00  0.00    -0.308 A  
ENDBRANCH  24  28
ENDBRANCH  12  13
ENDBRANCH  11  12
ENDBRANCH   9  11
ENDBRANCH   6   9
TORSDOF 5
ENDMDL
MODEL      193
REMARK 921   NORMALIZED FREE ENERGY PREDICTED BY IDOCK:   -0.13 KCAL/MOL
REMARK 922        TOTAL FREE ENERGY PREDICTED BY IDOCK:   -2.39 KCAL/MOL
REMARK 923 INTER-LIGAND FREE ENERGY PREDICTED BY IDOCK:   -2.54 KCAL/MOL
REMARK 924 INTRA-LIGAND FREE ENERGY PREDICTED BY IDOCK:    0.15 KCAL/MOL
REMARK 927      BINDING AFFINITY PREDICTED BY RF-SCORE:    0.00 PKD
ROOT
HETATM    1  C   UNL     1      -8.398   9.939  63.799  1.00  0.00    -0.168 C  
HETATM    2  C   UNL     1      -8.829   8.835  64.720  1.00  0.00    -0.089 A  
HETATM    3  C   UNL     1      -8.376   7.526  64.519  1.00  0.00     0.041 A  
HETATM    4  C   UNL     1      -8.809   6.467  65.336  1.00  0.00     0.026 A  
HETATM    5  C   UNL     1      -8.287   5.084  65.046  1.00  0.00    -0.140 C  
HETATM    6  C   UNL     1      -9.720   6.732  66.381  1.00  0.00    -0.125 A  
HETATM    7  C   UNL     1     -10.159   8.049  66.596  1.00  0.00    -0.329 A  
HETATM    8  C   UNL     1      -9.716   9.090  65.770  1.00  0.00    -0.254 A  
ENDROOT
BRANCH   6   9
HETATM    9  C   UNL     1     -10.259   5.612  67.215  1.00  0.00    -0.206 C  
HETATM   10  O   UNL     1     -11.247   5.712  67.926  1.00  0.00     0.088 OA 
BRANCH   9  11
HETATM   11  O   UNL     1      -9.522   4.483  67.054  1.00  0.00    -0.145 OA 
BRANCH  11  12
HETATM   12  C   UNL     1      -9.337   3.720  68.262  1.00  0.00    -0.167 C  
BRANCH  12  13
HETATM   13  C   UNL     1      -8.686   4.572  69.323  1.00  0.00    -0.117 A  
HETATM   14  C   UNL     1      -9.129   4.526  70.651  1.00  0.00    -0.175 A  
HETATM   15  C   UNL     1      -8.631   5.424  71.599  1.00  0.00    -0.131 A  
HETATM   16  C   UNL     1      -7.680   6.387  71.233  1.00  0.00    -0.095 A  
HETATM   17  C   UNL     1      -7.161   6.356  69.930  1.00  0.00    -0.072 A  
HETATM   18  C   UNL     1      -7.268   7.461  72.237  1.00  0.00    -0.068 C  
HETATM   19  C   UNL     1      -7.673   5.472  68.980  1.00  0.00    -0.087 A  
HETATM   20  C   UNL     1      -6.939   8.804  71.555  1.00  0.00    -0.082 C  
HETATM   21  C   UNL     1      -6.083   6.974  73.103  1.00  0.00    -0.057 C  
HETATM   22  O   UNL     1      -5.816   9.301  71.648  1.00  0.00    -0.070 OA 
HETATM   23  N   UNL     1      -5.713   7.920  74.168  1.00  0.00    -0.068 NA 
HETATM   24  N   UNL     1      -7.990   9.351  70.828  1.00  0.00    -0.157 N  
HETATM   25  H1  UNL     1      -4.931   7.599  74.739  1.00  0.00     0.000 HD 
HETATM   26  H2  UNL     1      -6.520   8.143  74.750  1.00  0.00     0.000 HD 
HETATM   27  H   UNL     1      -8.861   8.820  70.792  1.00  0.00     0.000 HD 
BRANCH  24  28
HETATM   28  C   UNL     1      -7.952  10.584  70.134  1.00  0.00     0.443 A  
HETATM   29  C   UNL     1      -6.840  11.427  70.161  1.00  0.00     0.295 A  
HETATM   30  C   UNL     1      -6.820  12.617  69.434  1.00  0.00     0.038 A  
HETATM   31  C   UNL     1      -7.928  12.999  68.671  1.00  0.00    -0.027 A  
HETATM   32  C   UNL     1      -7.946  14.177  67.920  1.00  0.00    -0.156 A  
HETATM   33  N   UNL     1      -8.998  14.598  67.183  1.00  0.00    -0.213 NA 
HETATM   34  C   UNL     1     -10.089  13.806  67.192  1.00  0.00    -0.241 A  
HETATM   35  C   UNL     1     -10.177  12.611  67.893  1.00  0.00    -0.220 A  
HETATM   36  C   UNL     1      -9.078  12.185  68.653  1.00  0.00    -0.007 A  
HETATM   37  C   UNL     1      -9.078  10.980  69.393  1.00  0.00     0.196 A  
ENDBRANCH  24  28
ENDBRANCH  12  13
ENDBRANCH  11  12
ENDBRANCH   9  11
ENDBRANCH   6   9
TORSDOF 5
ENDMDL
MODEL      194
REMARK 921   NORMALIZED FREE ENERGY PREDICTED BY IDOCK:   -0.07 KCAL/MOL
REMARK 922        TOTAL FREE ENERGY PREDICTED BY IDOCK:   -2.31 KCAL/MOL
REMARK 923 INTER-LIGAND FREE ENERGY PREDICTED BY IDOCK:   -3.70 KCAL/MOL
REMARK 924 INTRA-LIGAND FREE ENERGY PREDICTED BY IDOCK:    1.39 KCAL/MOL
REMARK 927      BINDING AFFINITY PREDICTED BY RF-SCORE:    0.00 PKD
ROOT
HETATM    1  C   UNL     1     -11.472  14.853  66.774  1.00  0.00    -0.304 C  
HETATM    2  C   UNL     1     -11.026  13.622  66.040  1.00  0.00    -0.288 A  
HETATM    3  C   UNL     1      -9.690  13.207  66.096  1.00  0.00    -0.254 A  
HETATM    4  C   UNL     1      -9.238  12.089  65.373  1.00  0.00     0.095 A  
HETATM    5  C   UNL     1      -7.783  11.715  65.475  1.00  0.00     0.912 C  
HETATM    6  C   UNL     1     -10.153  11.370  64.574  1.00  0.00    -0.337 A  
HETATM    7  C   UNL     1     -11.498  11.774  64.533  1.00  0.00    -0.322 A  
HETATM    8  C   UNL     1     -11.928  12.892  65.260  1.00  0.00    -0.459 A  
ENDROOT
BRANCH   6   9
HETATM    9  C   UNL     1      -9.684  10.225  63.731  1.00  0.00    -0.235 C  
HETATM   10  O   UNL     1      -9.624  10.262  62.512  1.00  0.00    -0.302 OA 
BRANCH   9  11
HETATM   11  O   UNL     1      -9.320   9.168  64.502  1.00  0.00    -0.043 OA 
BRANCH  11  12
HETATM   12  C   UNL     1     -10.135   8.981  65.674  1.00  0.00     0.326 C  
BRANCH  12  13
HETATM   13  C   UNL     1      -9.295   9.110  66.921  1.00  0.00    -0.199 A  
HETATM   14  C   UNL     1      -9.798   8.718  68.168  1.00  0.00    -0.194 A  
HETATM   15  C   UNL     1      -9.080   8.980  69.338  1.00  0.00    -0.146 A  
HETATM   16  C   UNL     1      -7.845   9.640  69.280  1.00  0.00    -0.098 A  
HETATM   17  C   UNL     1      -7.297   9.931  68.021  1.00  0.00    -0.084 A  
HETATM   18  C   UNL     1      -7.152  10.062  70.574  1.00  0.00    -0.080 C  
HETATM   19  C   UNL     1      -8.023   9.687  66.855  1.00  0.00    -0.105 A  
HETATM   20  C   UNL     1      -6.359  11.374  70.413  1.00  0.00     0.051 C  
HETATM   21  C   UNL     1      -6.244   8.928  71.103  1.00  0.00    -0.057 C  
HETATM   22  O   UNL     1      -5.142  11.403  70.594  1.00  0.00    -0.086 OA 
HETATM   23  N   UNL     1      -5.637   9.229  72.409  1.00  0.00    -0.154 NA 
HETATM   24  N   UNL     1      -7.129  12.465  70.024  1.00  0.00     0.083 N  
HETATM   25  H1  UNL     1      -5.039   8.480  72.758  1.00  0.00     0.000 HD 
HETATM   26  H2  UNL     1      -6.354   9.469  73.094  1.00  0.00     0.000 HD 
HETATM   27  H   UNL     1      -8.123  12.303  69.863  1.00  0.00     0.000 HD 
BRANCH  24  28
HETATM   28  C   UNL     1      -6.646  13.782  69.834  1.00  0.00     0.005 A  
HETATM   29  C   UNL     1      -5.804  14.413  70.751  1.00  0.00    -0.195 A  
HETATM   30  C   UNL     1      -5.314  15.697  70.515  1.00  0.00    -0.157 A  
HETATM   31  C   UNL     1      -5.672  16.389  69.354  1.00  0.00    -0.149 A  
HETATM   32  C   UNL     1      -5.196  17.672  69.072  1.00  0.00    -0.170 A  
HETATM   33  N   UNL     1      -5.527  18.387  67.974  1.00  0.00    -0.158 NA 
HETATM   34  C   UNL     1      -6.376  17.796  67.109  1.00  0.00    -0.161 A  
HETATM   35  C   UNL     1      -6.901  16.522  67.283  1.00  0.00    -0.212 A  
HETATM   36  C   UNL     1      -6.549  15.791  68.427  1.00  0.00    -0.116 A  
HETATM   37  C   UNL     1      -7.032  14.486  68.681  1.00  0.00    -0.103 A  
ENDBRANCH  24  28
ENDBRANCH  12  13
ENDBRANCH  11  12
ENDBRANCH   9  11
ENDBRANCH   6   9
TORSDOF 5
ENDMDL
MODEL      195
REMARK 921   NORMALIZED FREE ENERGY PREDICTED BY IDOCK:    0.45 KCAL/MOL
REMARK 922        TOTAL FREE ENERGY PREDICTED BY IDOCK:   -1.64 KCAL/MOL
REMARK 923 INTER-LIGAND FREE ENERGY PREDICTED BY IDOCK:   -4.34 KCAL/MOL
REMARK 924 INTRA-LIGAND FREE ENERGY PREDICTED BY IDOCK:    2.71 KCAL/MOL
REMARK 927      BINDING AFFINITY PREDICTED BY RF-SCORE:    0.00 PKD
ROOT
HETATM    1  C   UNL     1      -6.805  10.858  68.575  1.00  0.00    -0.059 C  
HETATM    2  C   UNL     1      -8.200  10.571  69.051  1.00  0.00    -0.145 A  
HETATM    3  C   UNL     1      -9.258  11.415  68.695  1.00  0.00    -0.149 A  
HETATM    4  C   UNL     1     -10.562  11.197  69.173  1.00  0.00    -0.238 A  
HETATM    5  C   UNL     1     -11.644  12.158  68.757  1.00  0.00    -0.380 C  
HETATM    6  C   UNL     1     -10.807  10.102  70.031  1.00  0.00    -0.361 A  
HETATM    7  C   UNL     1      -9.749   9.243  70.372  1.00  0.00    -0.293 A  
HETATM    8  C   UNL     1      -8.456   9.479  69.886  1.00  0.00    -0.198 A  
ENDROOT
BRANCH   6   9
HETATM    9  C   UNL     1     -12.167   9.892  70.618  1.00  0.00    -0.238 C  
HETATM   10  O   UNL     1     -13.206  10.141  70.027  1.00  0.00     0.091 OA 
BRANCH   9  11
HETATM   11  O   UNL     1     -12.084   9.374  71.871  1.00  0.00    -0.367 OA 
BRANCH  11  12
HETATM   12  C   UNL     1     -10.742   9.271  72.381  1.00  0.00     0.690 C  
BRANCH  12  13
HETATM   13  C   UNL     1     -10.366   7.822  72.574  1.00  0.00    -0.328 A  
HETATM   14  C   UNL     1      -9.319   7.460  73.431  1.00  0.00    -0.260 A  
HETATM   15  C   UNL     1      -8.873   6.138  73.490  1.00  0.00    -0.124 A  
HETATM   16  C   UNL     1      -9.467   5.152  72.690  1.00  0.00    -0.159 A  
HETATM   17  C   UNL     1     -10.585   5.499  71.916  1.00  0.00    -0.293 A  
HETATM   18  C   UNL     1      -8.864   3.750  72.646  1.00  0.00    -0.106 C  
HETATM   19  C   UNL     1     -11.017   6.824  71.843  1.00  0.00    -0.270 A  
HETATM   20  C   UNL     1      -9.024   3.087  71.263  1.00  0.00    -0.097 C  
HETATM   21  C   UNL     1      -9.465   2.861  73.759  1.00  0.00    -0.087 C  
HETATM   22  O   UNL     1      -9.660   2.040  71.135  1.00  0.00    -0.131 OA 
HETATM   23  N   UNL     1      -8.841   1.531  73.843  1.00  0.00    -0.057 NA 
HETATM   24  N   UNL     1      -8.429   3.787  70.219  1.00  0.00    -0.059 N  
HETATM   25  H1  UNL     1      -9.237   0.945  74.578  1.00  0.00     0.000 HD 
HETATM   26  H2  UNL     1      -7.830   1.613  73.950  1.00  0.00     0.000 HD 
HETATM   27  H   UNL     1      -7.967   4.667  70.449  1.00  0.00     0.000 HD 
BRANCH  24  28
HETATM   28  C   UNL     1      -8.411   3.378  68.864  1.00  0.00    -0.074 A  
HETATM   29  C   UNL     1      -9.531   3.474  68.036  1.00  0.00    -0.217 A  
HETATM   30  C   UNL     1      -9.470   3.099  66.694  1.00  0.00    -0.080 A  
HETATM   31  C   UNL     1      -8.281   2.600  66.152  1.00  0.00    -0.087 A  
HETATM   32  C   UNL     1      -8.172   2.223  64.812  1.00  0.00    -0.086 A  
HETATM   33  N   UNL     1      -7.052   1.720  64.247  1.00  0.00    -0.045 NA 
HETATM   34  C   UNL     1      -5.982   1.585  65.057  1.00  0.00    -0.017 A  
HETATM   35  C   UNL     1      -5.975   1.938  66.401  1.00  0.00    -0.022 A  
HETATM   36  C   UNL     1      -7.144   2.460  66.974  1.00  0.00    -0.048 A  
HETATM   37  C   UNL     1      -7.224   2.850  68.330  1.00  0.00    -0.049 A  
ENDBRANCH  24  28
ENDBRANCH  12  13
ENDBRANCH  11  12
ENDBRANCH   9  11
ENDBRANCH   6   9
TORSDOF 5
ENDMDL
MODEL      196
REMARK 921   NORMALIZED FREE ENERGY PREDICTED BY IDOCK:    0.47 KCAL/MOL
REMARK 922        TOTAL FREE ENERGY PREDICTED BY IDOCK:   -1.62 KCAL/MOL
REMARK 923 INTER-LIGAND FREE ENERGY PREDICTED BY IDOCK:   -3.81 KCAL/MOL
REMARK 924 INTRA-LIGAND FREE ENERGY PREDICTED BY IDOCK:    2.20 KCAL/MOL
REMARK 927      BINDING AFFINITY PREDICTED BY RF-SCORE:    0.00 PKD
ROOT
HETATM    1  C   UNL     1     -10.726  19.771  66.477  1.00  0.00    -0.508 C  
HETATM    2  C   UNL     1      -9.574  19.014  67.072  1.00  0.00    -0.364 A  
HETATM    3  C   UNL     1      -8.525  18.565  66.262  1.00  0.00    -0.227 A  
HETATM    4  C   UNL     1      -7.464  17.808  66.788  1.00  0.00    -0.244 A  
HETATM    5  C   UNL     1      -6.380  17.350  65.849  1.00  0.00    -0.037 C  
HETATM    6  C   UNL     1      -7.459  17.494  68.165  1.00  0.00    -0.218 A  
HETATM    7  C   UNL     1      -8.502  17.961  68.982  1.00  0.00    -0.014 A  
HETATM    8  C   UNL     1      -9.551  18.714  68.438  1.00  0.00    -0.396 A  
ENDROOT
BRANCH   6   9
HETATM    9  C   UNL     1      -6.385  16.622  68.737  1.00  0.00    -0.152 C  
HETATM   10  O   UNL     1      -5.481  16.139  68.074  1.00  0.00    -0.100 OA 
BRANCH   9  11
HETATM   11  O   UNL     1      -6.543  16.467  70.077  1.00  0.00    -0.088 OA 
BRANCH  11  12
HETATM   12  C   UNL     1      -7.375  15.352  70.450  1.00  0.00     0.605 C  
BRANCH  12  13
HETATM   13  C   UNL     1      -7.862  14.629  69.218  1.00  0.00    -0.071 A  
HETATM   14  C   UNL     1      -9.218  14.645  68.867  1.00  0.00    -0.151 A  
HETATM   15  C   UNL     1      -9.690  13.852  67.818  1.00  0.00    -0.225 A  
HETATM   16  C   UNL     1      -8.813  13.026  67.102  1.00  0.00    -0.218 A  
HETATM   17  C   UNL     1      -7.440  13.098  67.387  1.00  0.00    -0.131 A  
HETATM   18  C   UNL     1      -9.368  12.048  66.070  1.00  0.00    -0.196 C  
HETATM   19  C   UNL     1      -6.973  13.875  68.447  1.00  0.00    -0.102 A  
HETATM   20  C   UNL     1      -8.542  10.749  65.990  1.00  0.00    -0.178 C  
HETATM   21  C   UNL     1      -9.478  12.720  64.682  1.00  0.00     0.447 C  
HETATM   22  O   UNL     1      -7.982  10.420  64.944  1.00  0.00    -0.153 OA 
HETATM   23  N   UNL     1     -10.115  11.865  63.669  1.00  0.00    -0.399 NA 
HETATM   24  N   UNL     1      -8.472  10.039  67.184  1.00  0.00    -0.125 N  
HETATM   25  H1  UNL     1     -10.188  12.309  62.753  1.00  0.00     0.000 HD 
HETATM   26  H2  UNL     1     -11.029  11.544  63.990  1.00  0.00     0.000 HD 
HETATM   27  H   UNL     1      -8.945  10.439  67.995  1.00  0.00     0.000 HD 
BRANCH  24  28
HETATM   28  C   UNL     1      -7.799   8.807  67.366  1.00  0.00    -0.098 A  
HETATM   29  C   UNL     1      -7.216   8.442  68.581  1.00  0.00    -0.080 A  
HETATM   30  C   UNL     1      -6.595   7.203  68.739  1.00  0.00    -0.044 A  
HETATM   31  C   UNL     1      -6.529   6.303  67.671  1.00  0.00    -0.046 A  
HETATM   32  C   UNL     1      -5.927   5.049  67.788  1.00  0.00    -0.023 A  
HETATM   33  N   UNL     1      -5.822   4.153  66.782  1.00  0.00    -0.022 NA 
HETATM   34  C   UNL     1      -6.346   4.522  65.596  1.00  0.00    -0.036 A  
HETATM   35  C   UNL     1      -6.977   5.739  65.370  1.00  0.00    -0.064 A  
HETATM   36  C   UNL     1      -7.079   6.659  66.423  1.00  0.00    -0.067 A  
HETATM   37  C   UNL     1      -7.709   7.917  66.283  1.00  0.00    -0.092 A  
ENDBRANCH  24  28
ENDBRANCH  12  13
ENDBRANCH  11  12
ENDBRANCH   9  11
ENDBRANCH   6   9
TORSDOF 5
ENDMDL
MODEL      197
REMARK 921   NORMALIZED FREE ENERGY PREDICTED BY IDOCK:    0.84 KCAL/MOL
REMARK 922        TOTAL FREE ENERGY PREDICTED BY IDOCK:   -1.14 KCAL/MOL
REMARK 923 INTER-LIGAND FREE ENERGY PREDICTED BY IDOCK:   -3.76 KCAL/MOL
REMARK 924 INTRA-LIGAND FREE ENERGY PREDICTED BY IDOCK:    2.62 KCAL/MOL
REMARK 927      BINDING AFFINITY PREDICTED BY RF-SCORE:    0.00 PKD
ROOT
HETATM    1  C   UNL     1     -11.947  12.611  63.389  1.00  0.00    -0.613 C  
HETATM    2  C   UNL     1     -10.798  11.763  63.853  1.00  0.00    -0.468 A  
HETATM    3  C   UNL     1      -9.598  11.738  63.132  1.00  0.00    -0.265 A  
HETATM    4  C   UNL     1      -8.528  10.911  63.517  1.00  0.00     0.056 A  
HETATM    5  C   UNL     1      -7.276  10.930  62.681  1.00  0.00     0.071 C  
HETATM    6  C   UNL     1      -8.669  10.089  64.655  1.00  0.00    -0.210 A  
HETATM    7  C   UNL     1      -9.865  10.129  65.391  1.00  0.00    -0.375 A  
HETATM    8  C   UNL     1     -10.920  10.959  64.990  1.00  0.00    -0.035 A  
ENDROOT
BRANCH   6   9
HETATM    9  C   UNL     1      -7.578   9.140  65.042  1.00  0.00    -0.106 C  
HETATM   10  O   UNL     1      -7.286   8.880  66.198  1.00  0.00    -0.087 OA 
BRANCH   9  11
HETATM   11  O   UNL     1      -6.986   8.602  63.944  1.00  0.00    -0.085 OA 
BRANCH  11  12
HETATM   12  C   UNL     1      -7.739   7.543  63.325  1.00  0.00    -0.129 C  
BRANCH  12  13
HETATM   13  C   UNL     1      -8.054   6.466  64.334  1.00  0.00    -0.076 A  
HETATM   14  C   UNL     1      -8.836   5.358  63.981  1.00  0.00     0.130 A  
HETATM   15  C   UNL     1      -9.253   4.445  64.952  1.00  0.00    -0.157 A  
HETATM   16  C   UNL     1      -8.896   4.623  66.295  1.00  0.00    -0.113 A  
HETATM   17  C   UNL     1      -8.024   5.672  66.624  1.00  0.00    -0.101 A  
HETATM   18  C   UNL     1      -9.493   3.710  67.364  1.00  0.00    -0.238 C  
HETATM   19  C   UNL     1      -7.623   6.595  65.658  1.00  0.00    -0.086 A  
HETATM   20  C   UNL     1      -9.708   4.440  68.705  1.00  0.00    -0.120 C  
HETATM   21  C   UNL     1      -8.620   2.448  67.554  1.00  0.00    -0.104 C  
HETATM   22  O   UNL     1      -9.132   4.067  69.727  1.00  0.00    -0.091 OA 
HETATM   23  N   UNL     1      -9.202   1.473  68.489  1.00  0.00    -0.141 NA 
HETATM   24  N   UNL     1     -10.558   5.539  68.630  1.00  0.00    -0.179 N  
HETATM   25  H1  UNL     1      -8.627   0.640  68.614  1.00  0.00     0.000 HD 
HETATM   26  H2  UNL     1     -10.148   1.220  68.204  1.00  0.00     0.000 HD 
HETATM   27  H   UNL     1     -10.940   5.773  67.713  1.00  0.00     0.000 HD 
BRANCH  24  28
HETATM   28  C   UNL     1     -10.937   6.357  69.720  1.00  0.00    -0.356 A  
HETATM   29  C   UNL     1     -10.671   6.011  71.047  1.00  0.00    -0.325 A  
HETATM   30  C   UNL     1     -11.023   6.859  72.097  1.00  0.00    -0.268 A  
HETATM   31  C   UNL     1     -11.667   8.074  71.841  1.00  0.00    -0.351 A  
HETATM   32  C   UNL     1     -12.026   8.958  72.861  1.00  0.00     0.515 A  
HETATM   33  N   UNL     1     -12.665  10.132  72.665  1.00  0.00     0.342 NA 
HETATM   34  C   UNL     1     -12.961  10.447  71.388  1.00  0.00    -0.443 A  
HETATM   35  C   UNL     1     -12.642   9.650  70.297  1.00  0.00     0.215 A  
HETATM   36  C   UNL     1     -11.978   8.433  70.514  1.00  0.00     0.066 A  
HETATM   37  C   UNL     1     -11.610   7.563  69.462  1.00  0.00     0.367 A  
ENDBRANCH  24  28
ENDBRANCH  12  13
ENDBRANCH  11  12
ENDBRANCH   9  11
ENDBRANCH   6   9
TORSDOF 5
ENDMDL
MODEL      198
REMARK 921   NORMALIZED FREE ENERGY PREDICTED BY IDOCK:    1.82 KCAL/MOL
REMARK 922        TOTAL FREE ENERGY PREDICTED BY IDOCK:    0.13 KCAL/MOL
REMARK 923 INTER-LIGAND FREE ENERGY PREDICTED BY IDOCK:   -4.52 KCAL/MOL
REMARK 924 INTRA-LIGAND FREE ENERGY PREDICTED BY IDOCK:    4.64 KCAL/MOL
REMARK 927      BINDING AFFINITY PREDICTED BY RF-SCORE:    0.00 PKD
ROOT
HETATM    1  C   UNL     1     -11.303   7.765  72.692  1.00  0.00    -0.449 C  
HETATM    2  C   UNL     1     -10.252   6.761  72.317  1.00  0.00    -0.210 A  
HETATM    3  C   UNL     1     -10.479   5.850  71.279  1.00  0.00    -0.289 A  
HETATM    4  C   UNL     1      -9.532   4.865  70.947  1.00  0.00    -0.227 A  
HETATM    5  C   UNL     1      -9.857   3.913  69.826  1.00  0.00    -0.118 C  
HETATM    6  C   UNL     1      -8.327   4.795  71.678  1.00  0.00    -0.110 A  
HETATM    7  C   UNL     1      -8.090   5.722  72.707  1.00  0.00    -0.108 A  
HETATM    8  C   UNL     1      -9.047   6.695  73.023  1.00  0.00    -0.140 A  
ENDROOT
BRANCH   6   9
HETATM    9  C   UNL     1      -7.336   3.708  71.400  1.00  0.00    -0.040 C  
HETATM   10  O   UNL     1      -7.589   2.716  70.735  1.00  0.00    -0.036 OA 
BRANCH   9  11
HETATM   11  O   UNL     1      -6.132   3.987  71.962  1.00  0.00    -0.012 OA 
BRANCH  11  12
HETATM   12  C   UNL     1      -5.171   4.553  71.052  1.00  0.00     0.000 C  
BRANCH  12  13
HETATM   13  C   UNL     1      -5.821   4.851  69.723  1.00  0.00    -0.020 A  
HETATM   14  C   UNL     1      -5.145   4.603  68.522  1.00  0.00     0.000 A  
HETATM   15  C   UNL     1      -5.685   5.021  67.303  1.00  0.00    -0.014 A  
HETATM   16  C   UNL     1      -6.913   5.696  67.264  1.00  0.00    -0.065 A  
HETATM   17  C   UNL     1      -7.636   5.843  68.458  1.00  0.00    -0.090 A  
HETATM   18  C   UNL     1      -7.409   6.286  65.947  1.00  0.00    -0.080 C  
HETATM   19  C   UNL     1      -7.087   5.444  69.677  1.00  0.00    -0.063 A  
HETATM   20  C   UNL     1      -8.212   7.586  66.154  1.00  0.00    -0.125 C  
HETATM   21  C   UNL     1      -8.236   5.245  65.158  1.00  0.00    -0.135 C  
HETATM   22  O   UNL     1      -9.391   7.663  65.805  1.00  0.00    -0.015 OA 
HETATM   23  N   UNL     1      -8.646   5.715  63.825  1.00  0.00    -0.334 NA 
HETATM   24  N   UNL     1      -7.502   8.605  66.780  1.00  0.00    -0.086 N  
HETATM   25  H1  UNL     1      -9.191   5.028  63.305  1.00  0.00     0.000 HD 
HETATM   26  H2  UNL     1      -7.837   6.021  63.285  1.00  0.00     0.000 HD 
HETATM   27  H   UNL     1      -6.543   8.403  67.061  1.00  0.00     0.000 HD 
BRANCH  24  28
HETATM   28  C   UNL     1      -8.003   9.899  67.060  1.00  0.00    -0.109 A  
HETATM   29  C   UNL     1      -7.418  11.058  66.546  1.00  0.00    -0.145 A  
HETATM   30  C   UNL     1      -7.959  12.316  66.810  1.00  0.00     0.010 A  
HETATM   31  C   UNL     1      -9.096  12.444  67.613  1.00  0.00    -0.186 A  
HETATM   32  C   UNL     1      -9.678  13.683  67.893  1.00  0.00    -0.234 A  
HETATM   33  N   UNL     1     -10.764  13.858  68.677  1.00  0.00    -0.255 NA 
HETATM   34  C   UNL     1     -11.303  12.744  69.210  1.00  0.00    -0.247 A  
HETATM   35  C   UNL     1     -10.816  11.462  68.990  1.00  0.00    -0.265 A  
HETATM   36  C   UNL     1      -9.687  11.294  68.174  1.00  0.00    -0.188 A  
HETATM   37  C   UNL     1      -9.127  10.026  67.892  1.00  0.00    -0.135 A  
ENDBRANCH  24  28
ENDBRANCH  12  13
ENDBRANCH  11  12
ENDBRANCH   9  11
ENDBRANCH   6   9
TORSDOF 5
ENDMDL
MODEL      199
REMARK 921   NORMALIZED FREE ENERGY PREDICTED BY IDOCK:    1.82 KCAL/MOL
REMARK 922        TOTAL FREE ENERGY PREDICTED BY IDOCK:    0.13 KCAL/MOL
REMARK 923 INTER-LIGAND FREE ENERGY PREDICTED BY IDOCK:   -0.97 KCAL/MOL
REMARK 924 INTRA-LIGAND FREE ENERGY PREDICTED BY IDOCK:    1.10 KCAL/MOL
REMARK 927      BINDING AFFINITY PREDICTED BY RF-SCORE:    0.00 PKD
ROOT
HETATM    1  C   UNL     1      -8.117   8.424  63.876  1.00  0.00    -0.143 C  
HETATM    2  C   UNL     1      -8.804   8.588  65.200  1.00  0.00    -0.116 A  
HETATM    3  C   UNL     1      -9.525   9.753  65.487  1.00  0.00    -0.324 A  
HETATM    4  C   UNL     1     -10.131   9.951  66.740  1.00  0.00    -0.292 A  
HETATM    5  C   UNL     1     -10.877  11.237  66.976  1.00  0.00    -0.332 C  
HETATM    6  C   UNL     1     -10.007   8.952  67.730  1.00  0.00    -0.241 A  
HETATM    7  C   UNL     1      -9.300   7.774  67.436  1.00  0.00    -0.168 A  
HETATM    8  C   UNL     1      -8.703   7.596  66.181  1.00  0.00    -0.176 A  
ENDROOT
BRANCH   6   9
HETATM    9  C   UNL     1     -10.572   9.170  69.099  1.00  0.00    -0.208 C  
HETATM   10  O   UNL     1      -9.890   9.421  70.080  1.00  0.00    -0.200 OA 
BRANCH   9  11
HETATM   11  O   UNL     1     -11.927   9.075  69.090  1.00  0.00     0.982 OA 
BRANCH  11  12
HETATM   12  C   UNL     1     -12.522   8.985  70.397  1.00  0.00     0.430 C  
BRANCH  12  13
HETATM   13  C   UNL     1     -12.646  10.358  71.011  1.00  0.00    -0.491 A  
HETATM   14  C   UNL     1     -13.874  10.814  71.508  1.00  0.00     0.463 A  
HETATM   15  C   UNL     1     -14.022  12.136  71.933  1.00  0.00     0.488 A  
HETATM   16  C   UNL     1     -12.942  13.028  71.867  1.00  0.00    -0.414 A  
HETATM   17  C   UNL     1     -11.688  12.537  71.472  1.00  0.00     1.840 A  
HETATM   18  C   UNL     1     -13.163  14.506  72.182  1.00  0.00    -0.455 C  
HETATM   19  C   UNL     1     -11.546  11.221  71.029  1.00  0.00     0.387 A  
HETATM   20  C   UNL     1     -12.255  15.425  71.341  1.00  0.00    -0.371 C  
HETATM   21  C   UNL     1     -12.978  14.777  73.693  1.00  0.00    -0.153 C  
HETATM   22  O   UNL     1     -11.437  16.170  71.881  1.00  0.00    -0.402 OA 
HETATM   23  N   UNL     1     -13.290  16.162  74.079  1.00  0.00    -0.894 NA 
HETATM   24  N   UNL     1     -12.429  15.302  69.966  1.00  0.00    -0.547 N  
HETATM   25  H1  UNL     1     -13.169  16.341  75.075  1.00  0.00     0.000 HD 
HETATM   26  H2  UNL     1     -14.230  16.418  73.776  1.00  0.00     0.000 HD 
HETATM   27  H   UNL     1     -13.111  14.617  69.641  1.00  0.00     0.000 HD 
BRANCH  24  28
HETATM   28  C   UNL     1     -11.739  16.050  68.983  1.00  0.00    -0.318 A  
HETATM   29  C   UNL     1     -12.250  16.257  67.700  1.00  0.00     1.355 A  
HETATM   30  C   UNL     1     -11.562  17.032  66.767  1.00  0.00     1.304 A  
HETATM   31  C   UNL     1     -10.331  17.608  67.095  1.00  0.00    -0.343 A  
HETATM   32  C   UNL     1      -9.614  18.400  66.195  1.00  0.00    -0.187 A  
HETATM   33  N   UNL     1      -8.414  18.963  66.458  1.00  0.00    -0.296 NA 
HETATM   34  C   UNL     1      -7.898  18.727  67.682  1.00  0.00    -0.239 A  
HETATM   35  C   UNL     1      -8.529  17.965  68.657  1.00  0.00    -0.272 A  
HETATM   36  C   UNL     1      -9.774  17.387  68.370  1.00  0.00    -0.304 A  
HETATM   37  C   UNL     1     -10.488  16.602  69.305  1.00  0.00    -0.333 A  
ENDBRANCH  24  28
ENDBRANCH  12  13
ENDBRANCH  11  12
ENDBRANCH   9  11
ENDBRANCH   6   9
TORSDOF 5
ENDMDL
MODEL      200
REMARK 921   NORMALIZED FREE ENERGY PREDICTED BY IDOCK:    1.97 KCAL/MOL
REMARK 922        TOTAL FREE ENERGY PREDICTED BY IDOCK:    0.33 KCAL/MOL
REMARK 923 INTER-LIGAND FREE ENERGY PREDICTED BY IDOCK:   -2.71 KCAL/MOL
REMARK 924 INTRA-LIGAND FREE ENERGY PREDICTED BY IDOCK:    3.04 KCAL/MOL
REMARK 927      BINDING AFFINITY PREDICTED BY RF-SCORE:    0.00 PKD
ROOT
HETATM    1  C   UNL     1      -8.077   4.471  62.835  1.00  0.00    -0.082 C  
HETATM    2  C   UNL     1      -7.888   5.713  63.657  1.00  0.00    -0.105 A  
HETATM    3  C   UNL     1      -6.661   5.973  64.277  1.00  0.00    -0.041 A  
HETATM    4  C   UNL     1      -6.478   7.102  65.096  1.00  0.00    -0.040 A  
HETATM    5  C   UNL     1      -5.132   7.305  65.739  1.00  0.00    -0.024 C  
HETATM    6  C   UNL     1      -7.557   7.991  65.294  1.00  0.00    -0.085 A  
HETATM    7  C   UNL     1      -8.782   7.741  64.655  1.00  0.00     0.280 A  
HETATM    8  C   UNL     1      -8.945   6.610  63.845  1.00  0.00     1.086 A  
ENDROOT
BRANCH   6   9
HETATM    9  C   UNL     1      -7.415   9.156  66.223  1.00  0.00    -0.092 C  
HETATM   10  O   UNL     1      -8.245  10.045  66.324  1.00  0.00    -0.120 OA 
BRANCH   9  11
HETATM   11  O   UNL     1      -6.264   9.073  66.940  1.00  0.00    -0.057 OA 
BRANCH  11  12
HETATM   12  C   UNL     1      -6.388   8.343  68.174  1.00  0.00    -0.056 C  
BRANCH  12  13
HETATM   13  C   UNL     1      -7.769   8.526  68.754  1.00  0.00    -0.102 A  
HETATM   14  C   UNL     1      -8.876   7.884  68.186  1.00  0.00    -0.125 A  
HETATM   15  C   UNL     1     -10.170   8.174  68.626  1.00  0.00    -0.226 A  
HETATM   16  C   UNL     1     -10.379   9.114  69.644  1.00  0.00    -0.226 A  
HETATM   17  C   UNL     1      -9.261   9.672  70.283  1.00  0.00    -0.285 A  
HETATM   18  C   UNL     1     -11.802   9.539  70.000  1.00  0.00     0.053 C  
HETATM   19  C   UNL     1      -7.971   9.396  69.830  1.00  0.00    -0.119 A  
HETATM   20  C   UNL     1     -11.879  11.013  70.445  1.00  0.00    -0.367 C  
HETATM   21  C   UNL     1     -12.398   8.603  71.078  1.00  0.00    -0.143 C  
HETATM   22  O   UNL     1     -12.274  11.313  71.572  1.00  0.00    -0.176 OA 
HETATM   23  N   UNL     1     -13.809   8.889  71.382  1.00  0.00    -0.534 NA 
HETATM   24  N   UNL     1     -11.442  11.924  69.489  1.00  0.00    -0.361 N  
HETATM   25  H1  UNL     1     -14.202   8.272  72.092  1.00  0.00     0.000 HD 
HETATM   26  H2  UNL     1     -14.372   8.869  70.532  1.00  0.00     0.000 HD 
HETATM   27  H   UNL     1     -11.098  11.547  68.606  1.00  0.00     0.000 HD 
BRANCH  24  28
HETATM   28  C   UNL     1     -11.437  13.331  69.641  1.00  0.00    -0.198 A  
HETATM   29  C   UNL     1     -12.252  13.990  70.564  1.00  0.00    -0.435 A  
HETATM   30  C   UNL     1     -12.194  15.375  70.716  1.00  0.00    -0.430 A  
HETATM   31  C   UNL     1     -11.325  16.138  69.930  1.00  0.00    -0.318 A  
HETATM   32  C   UNL     1     -11.227  17.526  70.057  1.00  0.00     1.571 A  
HETATM   33  N   UNL     1     -10.416  18.307  69.310  1.00  0.00     0.083 NA 
HETATM   34  C   UNL     1      -9.661  17.677  68.387  1.00  0.00    -0.321 A  
HETATM   35  C   UNL     1      -9.670  16.303  68.183  1.00  0.00    -0.227 A  
HETATM   36  C   UNL     1     -10.516  15.503  68.966  1.00  0.00    -0.231 A  
HETATM   37  C   UNL     1     -10.585  14.098  68.829  1.00  0.00    -0.258 A  
ENDBRANCH  24  28
ENDBRANCH  12  13
ENDBRANCH  11  12
ENDBRANCH   9  11
ENDBRANCH   6   9
TORSDOF 5
ENDMDL
MODEL      201
REMARK 921   NORMALIZED FREE ENERGY PREDICTED BY IDOCK:    2.04 KCAL/MOL
REMARK 922        TOTAL FREE ENERGY PREDICTED BY IDOCK:    0.42 KCAL/MOL
REMARK 923 INTER-LIGAND FREE ENERGY PREDICTED BY IDOCK:    0.50 KCAL/MOL
REMARK 924 INTRA-LIGAND FREE ENERGY PREDICTED BY IDOCK:   -0.08 KCAL/MOL
REMARK 927      BINDING AFFINITY PREDICTED BY RF-SCORE:    0.00 PKD
ROOT
HETATM    1  C   UNL     1      -7.771   7.201  69.157  1.00  0.00    -0.109 C  
HETATM    2  C   UNL     1      -7.642   7.506  67.693  1.00  0.00    -0.113 A  
HETATM    3  C   UNL     1      -8.423   6.822  66.754  1.00  0.00    -0.117 A  
HETATM    4  C   UNL     1      -8.281   7.052  65.374  1.00  0.00    -0.133 A  
HETATM    5  C   UNL     1      -9.147   6.265  64.428  1.00  0.00     0.856 C  
HETATM    6  C   UNL     1      -7.329   7.995  64.928  1.00  0.00    -0.084 A  
HETATM    7  C   UNL     1      -6.560   8.697  65.871  1.00  0.00    -0.057 A  
HETATM    8  C   UNL     1      -6.715   8.452  67.242  1.00  0.00    -0.063 A  
ENDROOT
BRANCH   6   9
HETATM    9  C   UNL     1      -7.100   8.202  63.464  1.00  0.00    -0.086 C  
HETATM   10  O   UNL     1      -6.792   7.306  62.693  1.00  0.00    -0.062 OA 
BRANCH   9  11
HETATM   11  O   UNL     1      -7.301   9.499  63.116  1.00  0.00    -0.106 OA 
BRANCH  11  12
HETATM   12  C   UNL     1      -8.683   9.852  62.919  1.00  0.00    -0.213 C  
BRANCH  12  13
HETATM   13  C   UNL     1      -9.173  10.704  64.063  1.00  0.00    -0.269 A  
HETATM   14  C   UNL     1      -8.405  11.773  64.542  1.00  0.00     1.375 A  
HETATM   15  C   UNL     1      -8.786  12.462  65.696  1.00  0.00     0.515 A  
HETATM   16  C   UNL     1      -9.945  12.094  66.393  1.00  0.00    -0.243 A  
HETATM   17  C   UNL     1     -10.768  11.096  65.847  1.00  0.00    -0.261 A  
HETATM   18  C   UNL     1     -10.260  12.748  67.736  1.00  0.00    -0.223 C  
HETATM   19  C   UNL     1     -10.376  10.395  64.706  1.00  0.00    -0.221 A  
HETATM   20  C   UNL     1     -10.970  11.782  68.705  1.00  0.00    -0.234 C  
HETATM   21  C   UNL     1     -11.087  14.039  67.535  1.00  0.00    -0.298 C  
HETATM   22  O   UNL     1     -12.099  12.032  69.131  1.00  0.00    -0.274 OA 
HETATM   23  N   UNL     1     -11.324  14.779  68.784  1.00  0.00    -0.267 NA 
HETATM   24  N   UNL     1     -10.245  10.634  69.006  1.00  0.00    -0.206 N  
HETATM   25  H1  UNL     1     -11.869  15.631  68.651  1.00  0.00     0.000 HD 
HETATM   26  H2  UNL     1     -10.444  14.982  69.257  1.00  0.00     0.000 HD 
HETATM   27  H   UNL     1      -9.337  10.523  68.554  1.00  0.00     0.000 HD 
BRANCH  24  28
HETATM   28  C   UNL     1     -10.663   9.608  69.887  1.00  0.00    -0.252 A  
HETATM   29  C   UNL     1      -9.858   8.512  70.199  1.00  0.00    -0.184 A  
HETATM   30  C   UNL     1     -10.284   7.538  71.102  1.00  0.00    -0.199 A  
HETATM   31  C   UNL     1     -11.543   7.634  71.704  1.00  0.00    -0.301 A  
HETATM   32  C   UNL     1     -12.005   6.687  72.621  1.00  0.00     0.053 A  
HETATM   33  N   UNL     1     -13.218   6.727  73.215  1.00  0.00     2.486 NA 
HETATM   34  C   UNL     1     -14.015   7.762  72.881  1.00  0.00     0.841 A  
HETATM   35  C   UNL     1     -13.654   8.764  71.990  1.00  0.00    -0.469 A  
HETATM   36  C   UNL     1     -12.391   8.711  71.381  1.00  0.00    -0.344 A  
HETATM   37  C   UNL     1     -11.940   9.691  70.467  1.00  0.00    -0.241 A  
ENDBRANCH  24  28
ENDBRANCH  12  13
ENDBRANCH  11  12
ENDBRANCH   9  11
ENDBRANCH   6   9
TORSDOF 5
ENDMDL
MODEL      202
REMARK 921   NORMALIZED FREE ENERGY PREDICTED BY IDOCK:    2.25 KCAL/MOL
REMARK 922        TOTAL FREE ENERGY PREDICTED BY IDOCK:    0.68 KCAL/MOL
REMARK 923 INTER-LIGAND FREE ENERGY PREDICTED BY IDOCK:    1.07 KCAL/MOL
REMARK 924 INTRA-LIGAND FREE ENERGY PREDICTED BY IDOCK:   -0.39 KCAL/MOL
REMARK 927      BINDING AFFINITY PREDICTED BY RF-SCORE:    0.00 PKD
ROOT
HETATM    1  C   UNL     1      -9.294  11.942  65.101  1.00  0.00     0.029 C  
HETATM    2  C   UNL     1      -8.660  11.674  66.435  1.00  0.00    -0.143 A  
HETATM    3  C   UNL     1      -9.347  11.966  67.618  1.00  0.00    -0.183 A  
HETATM    4  C   UNL     1      -8.751  11.774  68.878  1.00  0.00     0.122 A  
HETATM    5  C   UNL     1      -9.551  12.125  70.105  1.00  0.00     3.430 C  
HETATM    6  C   UNL     1      -7.432  11.278  68.947  1.00  0.00    -0.123 A  
HETATM    7  C   UNL     1      -6.749  10.967  67.760  1.00  0.00    -0.064 A  
HETATM    8  C   UNL     1      -7.359  11.166  66.515  1.00  0.00    -0.129 A  
ENDROOT
BRANCH   6   9
HETATM    9  C   UNL     1      -6.745  11.141  70.270  1.00  0.00     0.169 C  
HETATM   10  O   UNL     1      -6.203  12.068  70.851  1.00  0.00    -0.188 OA 
BRANCH   9  11
HETATM   11  O   UNL     1      -6.828   9.868  70.735  1.00  0.00    -0.247 OA 
BRANCH  11  12
HETATM   12  C   UNL     1      -8.063   9.564  71.410  1.00  0.00     0.609 C  
BRANCH  12  13
HETATM   13  C   UNL     1      -8.295   8.073  71.430  1.00  0.00    -0.131 A  
HETATM   14  C   UNL     1      -7.514   7.237  72.239  1.00  0.00    -0.083 A  
HETATM   15  C   UNL     1      -7.626   5.848  72.141  1.00  0.00    -0.101 A  
HETATM   16  C   UNL     1      -8.521   5.269  71.231  1.00  0.00    -0.124 A  
HETATM   17  C   UNL     1      -9.377   6.111  70.504  1.00  0.00    -0.173 A  
HETATM   18  C   UNL     1      -8.515   3.757  71.022  1.00  0.00    -0.099 C  
HETATM   19  C   UNL     1      -9.251   7.498  70.588  1.00  0.00    -0.159 A  
HETATM   20  C   UNL     1      -8.858   3.365  69.570  1.00  0.00    -0.092 C  
HETATM   21  C   UNL     1      -9.466   3.062  72.023  1.00  0.00    -0.134 C  
HETATM   22  O   UNL     1      -9.847   2.675  69.320  1.00  0.00     0.082 OA 
HETATM   23  N   UNL     1      -9.418   1.594  71.949  1.00  0.00    -0.091 NA 
HETATM   24  N   UNL     1      -7.989   3.882  68.616  1.00  0.00    -0.067 N  
HETATM   25  H1  UNL     1     -10.046   1.135  72.610  1.00  0.00     0.000 HD 
HETATM   26  H2  UNL     1      -8.462   1.257  72.064  1.00  0.00     0.000 HD 
HETATM   27  H   UNL     1      -7.230   4.477  68.947  1.00  0.00     0.000 HD 
BRANCH  24  28
HETATM   28  C   UNL     1      -8.071   3.649  67.222  1.00  0.00    -0.090 A  
HETATM   29  C   UNL     1      -6.956   3.318  66.449  1.00  0.00    -0.054 A  
HETATM   30  C   UNL     1      -7.077   3.056  65.084  1.00  0.00    -0.058 A  
HETATM   31  C   UNL     1      -8.324   3.136  64.456  1.00  0.00    -0.090 A  
HETATM   32  C   UNL     1      -8.492   2.871  63.095  1.00  0.00    -0.085 A  
HETATM   33  N   UNL     1      -9.672   2.951  62.441  1.00  0.00    -0.092 NA 
HETATM   34  C   UNL     1     -10.741   3.314  63.177  1.00  0.00    -0.224 A  
HETATM   35  C   UNL     1     -10.691   3.589  64.537  1.00  0.00     0.018 A  
HETATM   36  C   UNL     1      -9.461   3.501  65.205  1.00  0.00    -0.158 A  
HETATM   37  C   UNL     1      -9.319   3.759  66.588  1.00  0.00    -0.207 A  
ENDBRANCH  24  28
ENDBRANCH  12  13
ENDBRANCH  11  12
ENDBRANCH   9  11
ENDBRANCH   6   9
TORSDOF 5
ENDMDL
MODEL      203
REMARK 921   NORMALIZED FREE ENERGY PREDICTED BY IDOCK:    2.74 KCAL/MOL
REMARK 922        TOTAL FREE ENERGY PREDICTED BY IDOCK:    1.31 KCAL/MOL
REMARK 923 INTER-LIGAND FREE ENERGY PREDICTED BY IDOCK:   -3.59 KCAL/MOL
REMARK 924 INTRA-LIGAND FREE ENERGY PREDICTED BY IDOCK:    4.90 KCAL/MOL
REMARK 927      BINDING AFFINITY PREDICTED BY RF-SCORE:    0.00 PKD
ROOT
HETATM    1  C   UNL     1     -13.427  10.712  70.942  1.00  0.00     0.116 C  
HETATM    2  C   UNL     1     -12.138  10.955  70.211  1.00  0.00    -0.440 A  
HETATM    3  C   UNL     1     -11.864  12.208  69.654  1.00  0.00    -0.391 A  
HETATM    4  C   UNL     1     -10.688  12.443  68.918  1.00  0.00    -0.202 A  
HETATM    5  C   UNL     1     -10.473  13.815  68.338  1.00  0.00    -0.256 C  
HETATM    6  C   UNL     1      -9.767  11.389  68.740  1.00  0.00    -0.155 A  
HETATM    7  C   UNL     1     -10.032  10.136  69.317  1.00  0.00    -0.234 A  
HETATM    8  C   UNL     1     -11.210   9.922  70.045  1.00  0.00    -0.327 A  
ENDROOT
BRANCH   6   9
HETATM    9  C   UNL     1      -8.547  11.587  67.895  1.00  0.00    -0.143 C  
HETATM   10  O   UNL     1      -8.171  10.788  67.052  1.00  0.00    -0.121 OA 
BRANCH   9  11
HETATM   11  O   UNL     1      -7.942  12.769  68.179  1.00  0.00    -0.137 OA 
BRANCH  11  12
HETATM   12  C   UNL     1      -6.997  12.706  69.263  1.00  0.00     0.040 C  
BRANCH  12  13
HETATM   13  C   UNL     1      -6.701  11.268  69.615  1.00  0.00    -0.122 A  
HETATM   14  C   UNL     1      -5.389  10.779  69.588  1.00  0.00    -0.038 A  
HETATM   15  C   UNL     1      -5.134   9.417  69.762  1.00  0.00    -0.034 A  
HETATM   16  C   UNL     1      -6.190   8.517  69.967  1.00  0.00    -0.034 A  
HETATM   17  C   UNL     1      -7.490   9.029  70.102  1.00  0.00    -0.072 A  
HETATM   18  C   UNL     1      -5.910   7.017  69.994  1.00  0.00    -0.023 C  
HETATM   19  C   UNL     1      -7.745  10.387  69.908  1.00  0.00    -0.083 A  
HETATM   20  C   UNL     1      -7.078   6.193  69.415  1.00  0.00    -0.069 C  
HETATM   21  C   UNL     1      -5.561   6.551  71.426  1.00  0.00    -0.027 C  
HETATM   22  O   UNL     1      -7.674   5.368  70.108  1.00  0.00    -0.074 OA 
HETATM   23  N   UNL     1      -5.168   5.135  71.499  1.00  0.00    -0.004 NA 
HETATM   24  N   UNL     1      -7.393   6.495  68.094  1.00  0.00    -0.088 N  
HETATM   25  H1  UNL     1      -4.937   4.828  72.444  1.00  0.00     0.000 HD 
HETATM   26  H2  UNL     1      -4.401   4.940  70.856  1.00  0.00     0.000 HD 
HETATM   27  H   UNL     1      -6.852   7.231  67.640  1.00  0.00     0.000 HD 
BRANCH  24  28
HETATM   28  C   UNL     1      -8.403   5.864  67.328  1.00  0.00    -0.105 A  
HETATM   29  C   UNL     1      -9.726   6.310  67.317  1.00  0.00    -0.150 A  
HETATM   30  C   UNL     1     -10.689   5.689  66.521  1.00  0.00    -0.296 A  
HETATM   31  C   UNL     1     -10.349   4.591  65.725  1.00  0.00    -0.287 A  
HETATM   32  C   UNL     1     -11.278   3.948  64.905  1.00  0.00     0.621 A  
HETATM   33  N   UNL     1     -11.002   2.874  64.133  1.00  0.00     0.021 NA 
HETATM   34  C   UNL     1      -9.735   2.415  64.177  1.00  0.00    -0.131 A  
HETATM   35  C   UNL     1      -8.729   2.983  64.946  1.00  0.00    -0.106 A  
HETATM   36  C   UNL     1      -9.029   4.098  65.743  1.00  0.00    -0.129 A  
HETATM   37  C   UNL     1      -8.065   4.743  66.553  1.00  0.00    -0.107 A  
ENDBRANCH  24  28
ENDBRANCH  12  13
ENDBRANCH  11  12
ENDBRANCH   9  11
ENDBRANCH   6   9
TORSDOF 5
ENDMDL
MODEL      204
REMARK 921   NORMALIZED FREE ENERGY PREDICTED BY IDOCK:    3.87 KCAL/MOL
REMARK 922        TOTAL FREE ENERGY PREDICTED BY IDOCK:    2.77 KCAL/MOL
REMARK 923 INTER-LIGAND FREE ENERGY PREDICTED BY IDOCK:    2.98 KCAL/MOL
REMARK 924 INTRA-LIGAND FREE ENERGY PREDICTED BY IDOCK:   -0.20 KCAL/MOL
REMARK 927      BINDING AFFINITY PREDICTED BY RF-SCORE:    0.00 PKD
ROOT
HETATM    1  C   UNL     1      -5.640  16.456  68.110  1.00  0.00    -0.111 C  
HETATM    2  C   UNL     1      -6.881  16.243  67.294  1.00  0.00    -0.230 A  
HETATM    3  C   UNL     1      -7.563  15.022  67.346  1.00  0.00    -0.233 A  
HETATM    4  C   UNL     1      -8.696  14.781  66.549  1.00  0.00    -0.160 A  
HETATM    5  C   UNL     1      -9.366  13.436  66.652  1.00  0.00    -0.248 C  
HETATM    6  C   UNL     1      -9.153  15.793  65.678  1.00  0.00    -0.008 A  
HETATM    7  C   UNL     1      -8.481  17.026  65.640  1.00  0.00     0.539 A  
HETATM    8  C   UNL     1      -7.353  17.246  66.441  1.00  0.00    -0.336 A  
ENDROOT
BRANCH   6   9
HETATM    9  C   UNL     1     -10.307  15.536  64.760  1.00  0.00    -0.005 C  
HETATM   10  O   UNL     1     -10.182  15.195  63.594  1.00  0.00     2.345 OA 
BRANCH   9  11
HETATM   11  O   UNL     1     -11.492  15.709  65.402  1.00  0.00    -0.142 OA 
BRANCH  11  12
HETATM   12  C   UNL     1     -12.263  14.503  65.557  1.00  0.00    -0.282 C  
BRANCH  12  13
HETATM   13  C   UNL     1     -12.354  14.124  67.015  1.00  0.00    -0.253 A  
HETATM   14  C   UNL     1     -11.839  14.967  68.008  1.00  0.00    -0.296 A  
HETATM   15  C   UNL     1     -11.785  14.546  69.339  1.00  0.00    -0.361 A  
HETATM   16  C   UNL     1     -12.245  13.272  69.700  1.00  0.00    -0.258 A  
HETATM   17  C   UNL     1     -12.858  12.477  68.720  1.00  0.00     1.665 A  
HETATM   18  C   UNL     1     -12.030  12.767  71.125  1.00  0.00     0.364 C  
HETATM   19  C   UNL     1     -12.894  12.890  67.388  1.00  0.00     1.905 A  
HETATM   20  C   UNL     1     -11.801  11.243  71.178  1.00  0.00     0.197 C  
HETATM   21  C   UNL     1     -13.210  13.181  72.036  1.00  0.00    -0.446 C  
HETATM   22  O   UNL     1     -12.571  10.510  71.799  1.00  0.00    -0.405 OA 
HETATM   23  N   UNL     1     -13.008  12.824  73.448  1.00  0.00     1.705 NA 
HETATM   24  N   UNL     1     -10.699  10.803  70.452  1.00  0.00    -0.375 N  
HETATM   25  H1  UNL     1     -13.786  13.098  74.049  1.00  0.00     0.000 HD 
HETATM   26  H2  UNL     1     -12.129  13.206  73.796  1.00  0.00     0.000 HD 
HETATM   27  H   UNL     1     -10.163  11.506  69.943  1.00  0.00     0.000 HD 
BRANCH  24  28
HETATM   28  C   UNL     1     -10.261   9.461  70.362  1.00  0.00    -0.255 A  
HETATM   29  C   UNL     1     -11.126   8.376  70.516  1.00  0.00    -0.267 A  
HETATM   30  C   UNL     1     -10.669   7.065  70.382  1.00  0.00    -0.259 A  
HETATM   31  C   UNL     1      -9.323   6.809  70.105  1.00  0.00    -0.159 A  
HETATM   32  C   UNL     1      -8.825   5.513  69.953  1.00  0.00    -0.127 A  
HETATM   33  N   UNL     1      -7.531   5.215  69.703  1.00  0.00    -0.060 NA 
HETATM   34  C   UNL     1      -6.686   6.260  69.598  1.00  0.00    -0.053 A  
HETATM   35  C   UNL     1      -7.073   7.588  69.721  1.00  0.00    -0.068 A  
HETATM   36  C   UNL     1      -8.420   7.884  69.980  1.00  0.00    -0.134 A  
HETATM   37  C   UNL     1      -8.902   9.206  70.114  1.00  0.00    -0.215 A  
ENDBRANCH  24  28
ENDBRANCH  12  13
ENDBRANCH  11  12
ENDBRANCH   9  11
ENDBRANCH   6   9
TORSDOF 5
ENDMDL
MODEL      205
REMARK 921   NORMALIZED FREE ENERGY PREDICTED BY IDOCK:    4.13 KCAL/MOL
REMARK 922        TOTAL FREE ENERGY PREDICTED BY IDOCK:    3.12 KCAL/MOL
REMARK 923 INTER-LIGAND FREE ENERGY PREDICTED BY IDOCK:   -1.29 KCAL/MOL
REMARK 924 INTRA-LIGAND FREE ENERGY PREDICTED BY IDOCK:    4.41 KCAL/MOL
REMARK 927      BINDING AFFINITY PREDICTED BY RF-SCORE:    0.00 PKD
ROOT
HETATM    1  C   UNL     1      -5.771  14.352  70.503  1.00  0.00    -0.158 C  
HETATM    2  C   UNL     1      -7.078  14.570  69.798  1.00  0.00    -0.052 A  
HETATM    3  C   UNL     1      -7.221  14.231  68.447  1.00  0.00    -0.113 A  
HETATM    4  C   UNL     1      -8.418  14.477  67.752  1.00  0.00    -0.176 A  
HETATM    5  C   UNL     1      -8.488  14.097  66.297  1.00  0.00     0.645 C  
HETATM    6  C   UNL     1      -9.498  15.078  68.433  1.00  0.00    -0.201 A  
HETATM    7  C   UNL     1      -9.363  15.399  69.794  1.00  0.00    -0.122 A  
HETATM    8  C   UNL     1      -8.161  15.148  70.468  1.00  0.00     1.252 A  
ENDROOT
BRANCH   6   9
HETATM    9  C   UNL     1     -10.756  15.424  67.699  1.00  0.00    -0.292 C  
HETATM   10  O   UNL     1     -10.979  15.092  66.545  1.00  0.00    -0.320 OA 
BRANCH   9  11
HETATM   11  O   UNL     1     -11.607  16.126  68.490  1.00  0.00    -0.377 OA 
BRANCH  11  12
HETATM   12  C   UNL     1     -11.600  15.722  69.872  1.00  0.00    -0.351 C  
BRANCH  12  13
HETATM   13  C   UNL     1     -11.862  14.240  69.985  1.00  0.00    -0.378 A  
HETATM   14  C   UNL     1     -12.067  13.640  71.234  1.00  0.00    -0.128 A  
HETATM   15  C   UNL     1     -12.155  12.251  71.350  1.00  0.00     0.433 A  
HETATM   16  C   UNL     1     -12.040  11.435  70.216  1.00  0.00    -0.459 A  
HETATM   17  C   UNL     1     -11.944  12.046  68.956  1.00  0.00    -0.321 A  
HETATM   18  C   UNL     1     -11.976   9.918  70.379  1.00  0.00    -0.271 C  
HETATM   19  C   UNL     1     -11.837  13.433  68.843  1.00  0.00    -0.373 A  
HETATM   20  C   UNL     1     -11.083   9.252  69.314  1.00  0.00    -0.009 C  
HETATM   21  C   UNL     1     -13.396   9.307  70.371  1.00  0.00     0.769 C  
HETATM   22  O   UNL     1     -11.548   8.429  68.525  1.00  0.00     0.935 OA 
HETATM   23  N   UNL     1     -13.410   7.861  70.640  1.00  0.00    -0.144 NA 
HETATM   24  N   UNL     1      -9.762   9.687  69.319  1.00  0.00    -0.175 N  
HETATM   25  H1  UNL     1     -14.347   7.458  70.636  1.00  0.00     0.000 HD 
HETATM   26  H2  UNL     1     -12.929   7.652  71.515  1.00  0.00     0.000 HD 
HETATM   27  H   UNL     1      -9.509  10.407  69.996  1.00  0.00     0.000 HD 
BRANCH  24  28
HETATM   28  C   UNL     1      -8.740   9.213  68.462  1.00  0.00    -0.129 A  
HETATM   29  C   UNL     1      -7.827   8.232  68.852  1.00  0.00    -0.111 A  
HETATM   30  C   UNL     1      -6.856   7.759  67.970  1.00  0.00    -0.072 A  
HETATM   31  C   UNL     1      -6.767   8.273  66.673  1.00  0.00    -0.064 A  
HETATM   32  C   UNL     1      -5.818   7.820  65.753  1.00  0.00    -0.038 A  
HETATM   33  N   UNL     1      -5.682   8.298  64.497  1.00  0.00    -0.051 NA 
HETATM   34  C   UNL     1      -6.534   9.277  64.133  1.00  0.00    -0.090 A  
HETATM   35  C   UNL     1      -7.522   9.794  64.960  1.00  0.00    -0.127 A  
HETATM   36  C   UNL     1      -7.653   9.289  66.262  1.00  0.00    -0.096 A  
HETATM   37  C   UNL     1      -8.634   9.753  67.169  1.00  0.00    -0.129 A  
ENDBRANCH  24  28
ENDBRANCH  12  13
ENDBRANCH  11  12
ENDBRANCH   9  11
ENDBRANCH   6   9
TORSDOF 5
ENDMDL
MODEL      206
REMARK 921   NORMALIZED FREE ENERGY PREDICTED BY IDOCK:    4.17 KCAL/MOL
REMARK 922        TOTAL FREE ENERGY PREDICTED BY IDOCK:    3.17 KCAL/MOL
REMARK 923 INTER-LIGAND FREE ENERGY PREDICTED BY IDOCK:   -3.90 KCAL/MOL
REMARK 924 INTRA-LIGAND FREE ENERGY PREDICTED BY IDOCK:    7.07 KCAL/MOL
REMARK 927      BINDING AFFINITY PREDICTED BY RF-SCORE:    0.00 PKD
ROOT
HETATM    1  C   UNL     1      -8.278   5.323  62.739  1.00  0.00    -0.105 C  
HETATM    2  C   UNL     1      -8.106   6.633  63.452  1.00  0.00    -0.009 A  
HETATM    3  C   UNL     1      -6.826   7.139  63.708  1.00  0.00    -0.048 A  
HETATM    4  C   UNL     1      -6.640   8.336  64.421  1.00  0.00    -0.066 A  
HETATM    5  C   UNL     1      -5.231   8.807  64.668  1.00  0.00    -0.039 C  
HETATM    6  C   UNL     1      -7.770   9.041  64.889  1.00  0.00    -0.111 A  
HETATM    7  C   UNL     1      -9.055   8.545  64.614  1.00  0.00     0.351 A  
HETATM    8  C   UNL     1      -9.219   7.349  63.903  1.00  0.00     1.982 A  
ENDROOT
BRANCH   6   9
HETATM    9  C   UNL     1      -7.600  10.275  65.719  1.00  0.00    -0.143 C  
HETATM   10  O   UNL     1      -8.527  10.865  66.252  1.00  0.00    -0.156 OA 
BRANCH   9  11
HETATM   11  O   UNL     1      -6.292  10.626  65.813  1.00  0.00    -0.122 OA 
BRANCH  11  12
HETATM   12  C   UNL     1      -5.562   9.924  66.836  1.00  0.00    -0.046 C  
BRANCH  12  13
HETATM   13  C   UNL     1      -6.491   9.028  67.619  1.00  0.00    -0.060 A  
HETATM   14  C   UNL     1      -7.095   7.918  67.015  1.00  0.00    -0.078 A  
HETATM   15  C   UNL     1      -8.070   7.182  67.692  1.00  0.00    -0.114 A  
HETATM   16  C   UNL     1      -8.459   7.545  68.989  1.00  0.00    -0.133 A  
HETATM   17  C   UNL     1      -7.774   8.590  69.629  1.00  0.00    -0.093 A  
HETATM   18  C   UNL     1      -9.636   6.833  69.652  1.00  0.00    -0.150 C  
HETATM   19  C   UNL     1      -6.814   9.336  68.944  1.00  0.00    -0.056 A  
HETATM   20  C   UNL     1     -10.438   7.767  70.580  1.00  0.00    -0.213 C  
HETATM   21  C   UNL     1      -9.157   5.575  70.412  1.00  0.00    -0.139 C  
HETATM   22  O   UNL     1     -10.541   7.526  71.783  1.00  0.00    -0.205 OA 
HETATM   23  N   UNL     1     -10.259   4.781  70.977  1.00  0.00    -0.200 NA 
HETATM   24  N   UNL     1     -10.979   8.880  69.946  1.00  0.00    -0.331 N  
HETATM   25  H1  UNL     1      -9.942   3.951  71.478  1.00  0.00     0.000 HD 
HETATM   26  H2  UNL     1     -10.933   4.532  70.253  1.00  0.00     0.000 HD 
HETATM   27  H   UNL     1     -10.787   8.991  68.950  1.00  0.00     0.000 HD 
BRANCH  24  28
HETATM   28  C   UNL     1     -11.775   9.872  70.568  1.00  0.00    -0.295 A  
HETATM   29  C   UNL     1     -12.763   9.563  71.504  1.00  0.00    -0.461 A  
HETATM   30  C   UNL     1     -13.504  10.566  72.129  1.00  0.00    -0.265 A  
HETATM   31  C   UNL     1     -13.280  11.910  71.814  1.00  0.00    -0.426 A  
HETATM   32  C   UNL     1     -13.991  12.947  72.423  1.00  0.00    -0.240 A  
HETATM   33  N   UNL     1     -13.823  14.258  72.141  1.00  0.00    -0.450 NA 
HETATM   34  C   UNL     1     -12.900  14.555  71.204  1.00  0.00    -0.338 A  
HETATM   35  C   UNL     1     -12.130  13.607  70.544  1.00  0.00    -0.411 A  
HETATM   36  C   UNL     1     -12.313  12.250  70.847  1.00  0.00    -0.363 A  
HETATM   37  C   UNL     1     -11.569  11.219  70.228  1.00  0.00    -0.366 A  
ENDBRANCH  24  28
ENDBRANCH  12  13
ENDBRANCH  11  12
ENDBRANCH   9  11
ENDBRANCH   6   9
TORSDOF 5
ENDMDL
MODEL      207
REMARK 921   NORMALIZED FREE ENERGY PREDICTED BY IDOCK:    4.31 KCAL/MOL
REMARK 922        TOTAL FREE ENERGY PREDICTED BY IDOCK:    3.34 KCAL/MOL
REMARK 923 INTER-LIGAND FREE ENERGY PREDICTED BY IDOCK:    1.44 KCAL/MOL
REMARK 924 INTRA-LIGAND FREE ENERGY PREDICTED BY IDOCK:    1.90 KCAL/MOL
REMARK 927      BINDING AFFINITY PREDICTED BY RF-SCORE:    0.00 PKD
ROOT
HETATM    1  C   UNL     1     -13.264  17.680  74.556  1.00  0.00     3.046 C  
HETATM    2  C   UNL     1     -12.747  16.837  73.426  1.00  0.00     0.168 A  
HETATM    3  C   UNL     1     -13.078  15.480  73.344  1.00  0.00    -0.651 A  
HETATM    4  C   UNL     1     -12.561  14.659  72.326  1.00  0.00    -0.401 A  
HETATM    5  C   UNL     1     -12.955  13.206  72.314  1.00  0.00    -0.354 C  
HETATM    6  C   UNL     1     -11.689  15.218  71.368  1.00  0.00    -0.444 A  
HETATM    7  C   UNL     1     -11.372  16.585  71.438  1.00  0.00    -0.025 A  
HETATM    8  C   UNL     1     -11.896  17.386  72.461  1.00  0.00     1.501 A  
ENDROOT
BRANCH   6   9
HETATM    9  C   UNL     1     -11.061  14.352  70.321  1.00  0.00     0.030 C  
HETATM   10  O   UNL     1     -11.627  13.405  69.797  1.00  0.00    -0.278 OA 
BRANCH   9  11
HETATM   11  O   UNL     1      -9.804  14.773  70.027  1.00  0.00     0.124 OA 
BRANCH  11  12
HETATM   12  C   UNL     1      -9.700  15.509  68.794  1.00  0.00    -0.213 C  
BRANCH  12  13
HETATM   13  C   UNL     1     -10.278  14.705  67.655  1.00  0.00    -0.232 A  
HETATM   14  C   UNL     1     -11.659  14.490  67.557  1.00  0.00    -0.403 A  
HETATM   15  C   UNL     1     -12.177  13.621  66.594  1.00  0.00    -0.437 A  
HETATM   16  C   UNL     1     -11.321  12.949  65.710  1.00  0.00    -0.349 A  
HETATM   17  C   UNL     1      -9.951  13.252  65.742  1.00  0.00    -0.261 A  
HETATM   18  C   UNL     1     -11.886  11.884  64.774  1.00  0.00    -0.259 C  
HETATM   19  C   UNL     1      -9.432  14.105  66.717  1.00  0.00    -0.290 A  
HETATM   20  C   UNL     1     -10.883  10.741  64.514  1.00  0.00     0.070 C  
HETATM   21  C   UNL     1     -12.359  12.518  63.446  1.00  0.00    -0.477 C  
HETATM   22  O   UNL     1     -10.478  10.504  63.376  1.00  0.00    -0.028 OA 
HETATM   23  N   UNL     1     -13.020  11.560  62.546  1.00  0.00    -0.127 NA 
HETATM   24  N   UNL     1     -10.478  10.062  65.659  1.00  0.00    -0.091 N  
HETATM   25  H1  UNL     1     -13.332  11.978  61.670  1.00  0.00     0.000 HD 
HETATM   26  H2  UNL     1     -13.792  11.092  63.020  1.00  0.00     0.000 HD 
HETATM   27  H   UNL     1     -10.854  10.383  66.551  1.00  0.00     0.000 HD 
BRANCH  24  28
HETATM   28  C   UNL     1      -9.588   8.962  65.686  1.00  0.00    -0.105 A  
HETATM   29  C   UNL     1      -9.962   7.683  65.269  1.00  0.00     2.017 A  
HETATM   30  C   UNL     1      -9.048   6.629  65.272  1.00  0.00     0.337 A  
HETATM   31  C   UNL     1      -7.736   6.830  65.711  1.00  0.00    -0.096 A  
HETATM   32  C   UNL     1      -6.787   5.806  65.720  1.00  0.00    -0.060 A  
HETATM   33  N   UNL     1      -5.514   5.946  66.151  1.00  0.00    -0.012 NA 
HETATM   34  C   UNL     1      -5.165   7.170  66.597  1.00  0.00    -0.022 A  
HETATM   35  C   UNL     1      -6.023   8.262  66.622  1.00  0.00    -0.052 A  
HETATM   36  C   UNL     1      -7.341   8.102  66.171  1.00  0.00    -0.070 A  
HETATM   37  C   UNL     1      -8.279   9.160  66.156  1.00  0.00    -0.111 A  
ENDBRANCH  24  28
ENDBRANCH  12  13
ENDBRANCH  11  12
ENDBRANCH   9  11
ENDBRANCH   6   9
TORSDOF 5
ENDMDL
MODEL      208
REMARK 921   NORMALIZED FREE ENERGY PREDICTED BY IDOCK:    4.48 KCAL/MOL
REMARK 922        TOTAL FREE ENERGY PREDICTED BY IDOCK:    3.56 KCAL/MOL
REMARK 923 INTER-LIGAND FREE ENERGY PREDICTED BY IDOCK:    2.49 KCAL/MOL
REMARK 924 INTRA-LIGAND FREE ENERGY PREDICTED BY IDOCK:    1.07 KCAL/MOL
REMARK 927      BINDING AFFINITY PREDICTED BY RF-SCORE:    0.00 PKD
ROOT
HETATM    1  C   UNL     1     -12.686  14.301  63.263  1.00  0.00     1.211 C  
HETATM    2  C   UNL     1     -12.102  14.269  64.645  1.00  0.00    -0.478 A  
HETATM    3  C   UNL     1     -12.874  13.838  65.731  1.00  0.00    -0.430 A  
HETATM    4  C   UNL     1     -12.366  13.851  67.042  1.00  0.00    -0.287 A  
HETATM    5  C   UNL     1     -13.263  13.386  68.158  1.00  0.00     3.628 C  
HETATM    6  C   UNL     1     -11.049  14.308  67.266  1.00  0.00    -0.315 A  
HETATM    7  C   UNL     1     -10.268  14.722  66.174  1.00  0.00    -0.310 A  
HETATM    8  C   UNL     1     -10.793  14.703  64.875  1.00  0.00    -0.436 A  
ENDROOT
BRANCH   6   9
HETATM    9  C   UNL     1     -10.511  14.409  68.659  1.00  0.00    -0.247 C  
HETATM   10  O   UNL     1      -9.329  14.575  68.917  1.00  0.00    -0.199 OA 
BRANCH   9  11
HETATM   11  O   UNL     1     -11.507  14.313  69.577  1.00  0.00    -0.261 OA 
BRANCH  11  12
HETATM   12  C   UNL     1     -11.252  13.365  70.630  1.00  0.00     1.053 C  
BRANCH  12  13
HETATM   13  C   UNL     1     -11.226  11.961  70.075  1.00  0.00     0.043 A  
HETATM   14  C   UNL     1     -12.399  11.201  69.993  1.00  0.00    -0.351 A  
HETATM   15  C   UNL     1     -12.349   9.854  69.625  1.00  0.00     0.427 A  
HETATM   16  C   UNL     1     -11.122   9.243  69.333  1.00  0.00    -0.063 A  
HETATM   17  C   UNL     1      -9.965  10.037  69.311  1.00  0.00    -0.226 A  
HETATM   18  C   UNL     1     -11.066   7.736  69.092  1.00  0.00     0.139 C  
HETATM   19  C   UNL     1     -10.013  11.377  69.698  1.00  0.00     0.572 A  
HETATM   20  C   UNL     1      -9.747   7.112  69.589  1.00  0.00    -0.158 C  
HETATM   21  C   UNL     1     -11.304   7.413  67.599  1.00  0.00     0.483 C  
HETATM   22  O   UNL     1      -8.985   6.542  68.808  1.00  0.00    -0.125 OA 
HETATM   23  N   UNL     1     -11.377   5.970  67.320  1.00  0.00    -0.424 NA 
HETATM   24  N   UNL     1      -9.507   7.285  70.948  1.00  0.00    -0.160 N  
HETATM   25  H1  UNL     1     -11.534   5.757  66.335  1.00  0.00     0.000 HD 
HETATM   26  H2  UNL     1     -12.084   5.524  67.904  1.00  0.00     0.000 HD 
HETATM   27  H   UNL     1     -10.197   7.815  71.481  1.00  0.00     0.000 HD 
BRANCH  24  28
HETATM   28  C   UNL     1      -8.385   6.787  71.652  1.00  0.00    -0.111 A  
HETATM   29  C   UNL     1      -7.250   7.561  71.901  1.00  0.00    -0.064 A  
HETATM   30  C   UNL     1      -6.177   7.051  72.631  1.00  0.00    -0.052 A  
HETATM   31  C   UNL     1      -6.210   5.741  73.118  1.00  0.00    -0.061 A  
HETATM   32  C   UNL     1      -5.162   5.195  73.864  1.00  0.00    -0.017 A  
HETATM   33  N   UNL     1      -5.140   3.930  74.339  1.00  0.00    -0.003 NA 
HETATM   34  C   UNL     1      -6.217   3.167  74.061  1.00  0.00    -0.019 A  
HETATM   35  C   UNL     1      -7.318   3.610  73.340  1.00  0.00    -0.060 A  
HETATM   36  C   UNL     1      -7.328   4.925  72.852  1.00  0.00    -0.090 A  
HETATM   37  C   UNL     1      -8.408   5.460  72.113  1.00  0.00    -0.126 A  
ENDBRANCH  24  28
ENDBRANCH  12  13
ENDBRANCH  11  12
ENDBRANCH   9  11
ENDBRANCH   6   9
TORSDOF 5
ENDMDL
MODEL      209
REMARK 921   NORMALIZED FREE ENERGY PREDICTED BY IDOCK:    4.52 KCAL/MOL
REMARK 922        TOTAL FREE ENERGY PREDICTED BY IDOCK:    3.61 KCAL/MOL
REMARK 923 INTER-LIGAND FREE ENERGY PREDICTED BY IDOCK:    1.00 KCAL/MOL
REMARK 924 INTRA-LIGAND FREE ENERGY PREDICTED BY IDOCK:    2.62 KCAL/MOL
REMARK 927      BINDING AFFINITY PREDICTED BY RF-SCORE:    0.00 PKD
ROOT
HETATM    1  C   UNL     1     -12.232  14.020  71.607  1.00  0.00    -0.228 C  
HETATM    2  C   UNL     1     -12.068  13.569  70.185  1.00  0.00    -0.425 A  
HETATM    3  C   UNL     1     -10.793  13.349  69.653  1.00  0.00     0.189 A  
HETATM    4  C   UNL     1     -10.613  12.980  68.308  1.00  0.00    -0.260 A  
HETATM    5  C   UNL     1      -9.208  12.775  67.807  1.00  0.00    -0.199 C  
HETATM    6  C   UNL     1     -11.745  12.828  67.479  1.00  0.00    -0.422 A  
HETATM    7  C   UNL     1     -13.027  13.029  68.018  1.00  0.00     2.454 A  
HETATM    8  C   UNL     1     -13.185  13.398  69.360  1.00  0.00     1.985 A  
ENDROOT
BRANCH   6   9
HETATM    9  C   UNL     1     -11.580  12.514  66.025  1.00  0.00    -0.406 C  
HETATM   10  O   UNL     1     -10.587  11.981  65.556  1.00  0.00    -0.255 OA 
BRANCH   9  11
HETATM   11  O   UNL     1     -12.680  12.879  65.317  1.00  0.00    -0.577 OA 
BRANCH  11  12
HETATM   12  C   UNL     1     -13.172  14.197  65.625  1.00  0.00     0.124 C  
BRANCH  12  13
HETATM   13  C   UNL     1     -12.021  15.158  65.792  1.00  0.00     0.165 A  
HETATM   14  C   UNL     1     -11.214  15.508  64.702  1.00  0.00    -0.381 A  
HETATM   15  C   UNL     1     -10.061  16.273  64.887  1.00  0.00     0.545 A  
HETATM   16  C   UNL     1      -9.693  16.704  66.170  1.00  0.00    -0.329 A  
HETATM   17  C   UNL     1     -10.562  16.443  67.240  1.00  0.00    -0.293 A  
HETATM   18  C   UNL     1      -8.349  17.398  66.377  1.00  0.00    -0.302 C  
HETATM   19  C   UNL     1     -11.703  15.662  67.057  1.00  0.00     0.281 A  
HETATM   20  C   UNL     1      -7.731  17.080  67.753  1.00  0.00    -0.172 C  
HETATM   21  C   UNL     1      -8.485  18.925  66.171  1.00  0.00    -0.183 C  
HETATM   22  O   UNL     1      -7.509  17.975  68.568  1.00  0.00    -0.261 OA 
HETATM   23  N   UNL     1      -7.202  19.639  66.244  1.00  0.00    -0.248 NA 
HETATM   24  N   UNL     1      -7.495  15.727  67.976  1.00  0.00    -0.122 N  
HETATM   25  H1  UNL     1      -7.291  20.646  66.108  1.00  0.00     0.000 HD 
HETATM   26  H2  UNL     1      -6.530  19.243  65.587  1.00  0.00     0.000 HD 
HETATM   27  H   UNL     1      -7.763  15.077  67.237  1.00  0.00     0.000 HD 
BRANCH  24  28
HETATM   28  C   UNL     1      -6.913  15.180  69.145  1.00  0.00    -0.147 A  
HETATM   29  C   UNL     1      -6.489  15.971  70.214  1.00  0.00     0.185 A  
HETATM   30  C   UNL     1      -5.955  15.396  71.368  1.00  0.00     0.554 A  
HETATM   31  C   UNL     1      -5.818  14.008  71.470  1.00  0.00    -0.172 A  
HETATM   32  C   UNL     1      -5.300  13.391  72.610  1.00  0.00     0.067 A  
HETATM   33  N   UNL     1      -5.131  12.058  72.749  1.00  0.00    -0.303 NA 
HETATM   34  C   UNL     1      -5.499  11.296  71.699  1.00  0.00     0.263 A  
HETATM   35  C   UNL     1      -6.036  11.802  70.522  1.00  0.00    -0.066 A  
HETATM   36  C   UNL     1      -6.206  13.188  70.391  1.00  0.00     0.037 A  
HETATM   37  C   UNL     1      -6.749  13.787  69.232  1.00  0.00    -0.101 A  
ENDBRANCH  24  28
ENDBRANCH  12  13
ENDBRANCH  11  12
ENDBRANCH   9  11
ENDBRANCH   6   9
TORSDOF 5
ENDMDL
MODEL      210
REMARK 921   NORMALIZED FREE ENERGY PREDICTED BY IDOCK:    4.69 KCAL/MOL
REMARK 922        TOTAL FREE ENERGY PREDICTED BY IDOCK:    3.83 KCAL/MOL
REMARK 923 INTER-LIGAND FREE ENERGY PREDICTED BY IDOCK:    2.51 KCAL/MOL
REMARK 924 INTRA-LIGAND FREE ENERGY PREDICTED BY IDOCK:    1.33 KCAL/MOL
REMARK 927      BINDING AFFINITY PREDICTED BY RF-SCORE:    0.00 PKD
ROOT
HETATM    1  C   UNL     1      -8.640   5.411  66.006  1.00  0.00    -0.127 C  
HETATM    2  C   UNL     1      -9.290   6.688  66.453  1.00  0.00    -0.175 A  
HETATM    3  C   UNL     1      -9.152   7.857  65.695  1.00  0.00    -0.018 A  
HETATM    4  C   UNL     1      -9.707   9.077  66.122  1.00  0.00    -0.354 A  
HETATM    5  C   UNL     1      -9.502  10.293  65.258  1.00  0.00    -0.296 C  
HETATM    6  C   UNL     1     -10.417   9.121  67.340  1.00  0.00    -0.339 A  
HETATM    7  C   UNL     1     -10.573   7.944  68.091  1.00  0.00    -0.179 A  
HETATM    8  C   UNL     1     -10.012   6.739  67.649  1.00  0.00    -0.171 A  
ENDROOT
BRANCH   6   9
HETATM    9  C   UNL     1     -10.949  10.421  67.858  1.00  0.00    -0.297 C  
HETATM   10  O   UNL     1     -10.393  11.085  68.720  1.00  0.00    -0.185 OA 
BRANCH   9  11
HETATM   11  O   UNL     1     -12.103  10.764  67.229  1.00  0.00     0.221 OA 
BRANCH  11  12
HETATM   12  C   UNL     1     -12.025  11.986  66.473  1.00  0.00    -0.006 C  
BRANCH  12  13
HETATM   13  C   UNL     1     -11.857  13.165  67.401  1.00  0.00    -0.412 A  
HETATM   14  C   UNL     1     -12.949  13.978  67.731  1.00  0.00     1.890 A  
HETATM   15  C   UNL     1     -12.764  15.153  68.463  1.00  0.00     0.874 A  
HETATM   16  C   UNL     1     -11.481  15.538  68.877  1.00  0.00    -0.362 A  
HETATM   17  C   UNL     1     -10.409  14.664  68.637  1.00  0.00    -0.246 A  
HETATM   18  C   UNL     1     -11.275  16.901  69.532  1.00  0.00     0.215 C  
HETATM   19  C   UNL     1     -10.591  13.500  67.890  1.00  0.00    -0.255 A  
HETATM   20  C   UNL     1      -9.902  17.513  69.191  1.00  0.00    -0.154 C  
HETATM   21  C   UNL     1     -11.474  16.808  71.063  1.00  0.00     0.392 C  
HETATM   22  O   UNL     1      -9.084  17.763  70.076  1.00  0.00     1.327 OA 
HETATM   23  N   UNL     1     -11.403  18.112  71.740  1.00  0.00     2.239 NA 
HETATM   24  N   UNL     1      -9.684  17.712  67.831  1.00  0.00    -0.285 N  
HETATM   25  H1  UNL     1     -11.534  18.051  72.750  1.00  0.00     0.000 HD 
HETATM   26  H2  UNL     1     -12.063  18.770  71.327  1.00  0.00     0.000 HD 
HETATM   27  H   UNL     1     -10.425  17.423  67.192  1.00  0.00     0.000 HD 
BRANCH  24  28
HETATM   28  C   UNL     1      -8.520  18.281  67.263  1.00  0.00    -0.250 A  
HETATM   29  C   UNL     1      -7.237  17.992  67.731  1.00  0.00    -0.211 A  
HETATM   30  C   UNL     1      -6.108  18.540  67.122  1.00  0.00    -0.176 A  
HETATM   31  C   UNL     1      -6.240  19.408  66.034  1.00  0.00    -0.204 A  
HETATM   32  C   UNL     1      -5.137  19.970  65.389  1.00  0.00    -0.156 A  
HETATM   33  N   UNL     1      -5.214  20.827  64.347  1.00  0.00    -0.185 NA 
HETATM   34  C   UNL     1      -6.455  21.142  63.923  1.00  0.00    -0.180 A  
HETATM   35  C   UNL     1      -7.620  20.634  64.482  1.00  0.00     0.986 A  
HETATM   36  C   UNL     1      -7.525  19.745  65.563  1.00  0.00    -0.184 A  
HETATM   37  C   UNL     1      -8.658  19.177  66.189  1.00  0.00    -0.233 A  
ENDBRANCH  24  28
ENDBRANCH  12  13
ENDBRANCH  11  12
ENDBRANCH   9  11
ENDBRANCH   6   9
TORSDOF 5
ENDMDL
MODEL      211
REMARK 921   NORMALIZED FREE ENERGY PREDICTED BY IDOCK:    5.08 KCAL/MOL
REMARK 922        TOTAL FREE ENERGY PREDICTED BY IDOCK:    4.34 KCAL/MOL
REMARK 923 INTER-LIGAND FREE ENERGY PREDICTED BY IDOCK:   -0.39 KCAL/MOL
REMARK 924 INTRA-LIGAND FREE ENERGY PREDICTED BY IDOCK:    4.72 KCAL/MOL
REMARK 927      BINDING AFFINITY PREDICTED BY RF-SCORE:    0.00 PKD
ROOT
HETATM    1  C   UNL     1      -5.551   7.773  68.477  1.00  0.00    -0.028 C  
HETATM    2  C   UNL     1      -6.135   9.156  68.471  1.00  0.00    -0.045 A  
HETATM    3  C   UNL     1      -5.629  10.136  67.610  1.00  0.00    -0.041 A  
HETATM    4  C   UNL     1      -6.124  11.453  67.626  1.00  0.00    -0.054 A  
HETATM    5  C   UNL     1      -5.516  12.453  66.679  1.00  0.00     0.562 C  
HETATM    6  C   UNL     1      -7.155  11.789  68.529  1.00  0.00    -0.091 A  
HETATM    7  C   UNL     1      -7.678  10.800  69.379  1.00  0.00    -0.107 A  
HETATM    8  C   UNL     1      -7.170   9.495  69.349  1.00  0.00    -0.064 A  
ENDROOT
BRANCH   6   9
HETATM    9  C   UNL     1      -7.645  13.200  68.623  1.00  0.00    -0.089 C  
HETATM   10  O   UNL     1      -7.035  14.093  69.191  1.00  0.00    -0.109 OA 
BRANCH   9  11
HETATM   11  O   UNL     1      -8.832  13.349  67.981  1.00  0.00    -0.168 OA 
BRANCH  11  12
HETATM   12  C   UNL     1      -8.717  13.515  66.555  1.00  0.00     0.110 C  
BRANCH  12  13
HETATM   13  C   UNL     1      -8.807  12.177  65.864  1.00  0.00     0.174 A  
HETATM   14  C   UNL     1      -9.814  11.921  64.924  1.00  0.00    -0.224 A  
HETATM   15  C   UNL     1      -9.989  10.638  64.402  1.00  0.00    -0.415 A  
HETATM   16  C   UNL     1      -9.160   9.585  64.812  1.00  0.00    -0.271 A  
HETATM   17  C   UNL     1      -8.086   9.871  65.669  1.00  0.00    -0.128 A  
HETATM   18  C   UNL     1      -9.466   8.160  64.356  1.00  0.00     1.810 C  
HETATM   19  C   UNL     1      -7.923  11.149  66.205  1.00  0.00    -0.090 A  
HETATM   20  C   UNL     1      -9.087   7.111  65.421  1.00  0.00     0.325 C  
HETATM   21  C   UNL     1      -8.774   7.856  63.008  1.00  0.00     0.441 C  
HETATM   22  O   UNL     1      -8.248   6.242  65.181  1.00  0.00    -0.135 OA 
HETATM   23  N   UNL     1      -9.123   6.537  62.458  1.00  0.00     0.046 NA 
HETATM   24  N   UNL     1      -9.741   7.267  66.638  1.00  0.00    -0.266 N  
HETATM   25  H1  UNL     1      -8.667   6.336  61.568  1.00  0.00     0.000 HD 
HETATM   26  H2  UNL     1     -10.135   6.435  62.377  1.00  0.00     0.000 HD 
HETATM   27  H   UNL     1     -10.384   8.054  66.727  1.00  0.00     0.000 HD 
BRANCH  24  28
HETATM   28  C   UNL     1      -9.588   6.423  67.764  1.00  0.00    -0.121 A  
HETATM   29  C   UNL     1      -9.251   5.072  67.650  1.00  0.00    -0.132 A  
HETATM   30  C   UNL     1      -9.070   4.277  68.782  1.00  0.00    -0.181 A  
HETATM   31  C   UNL     1      -9.239   4.816  70.061  1.00  0.00    -0.178 A  
HETATM   32  C   UNL     1      -9.057   4.059  71.220  1.00  0.00    -0.118 A  
HETATM   33  N   UNL     1      -9.226   4.530  72.476  1.00  0.00    -0.126 NA 
HETATM   34  C   UNL     1      -9.595   5.821  72.585  1.00  0.00    -0.153 A  
HETATM   35  C   UNL     1      -9.793   6.668  71.503  1.00  0.00    -0.182 A  
HETATM   36  C   UNL     1      -9.614   6.167  70.205  1.00  0.00    -0.187 A  
HETATM   37  C   UNL     1      -9.789   6.959  69.047  1.00  0.00    -0.152 A  
ENDBRANCH  24  28
ENDBRANCH  12  13
ENDBRANCH  11  12
ENDBRANCH   9  11
ENDBRANCH   6   9
TORSDOF 5
ENDMDL
MODEL      212
REMARK 921   NORMALIZED FREE ENERGY PREDICTED BY IDOCK:    5.56 KCAL/MOL
REMARK 922        TOTAL FREE ENERGY PREDICTED BY IDOCK:    4.95 KCAL/MOL
REMARK 923 INTER-LIGAND FREE ENERGY PREDICTED BY IDOCK:    4.00 KCAL/MOL
REMARK 924 INTRA-LIGAND FREE ENERGY PREDICTED BY IDOCK:    0.95 KCAL/MOL
REMARK 927      BINDING AFFINITY PREDICTED BY RF-SCORE:    0.00 PKD
ROOT
HETATM    1  C   UNL     1      -9.808   7.140  71.270  1.00  0.00    -0.178 C  
HETATM    2  C   UNL     1      -9.814   7.796  69.920  1.00  0.00    -0.177 A  
HETATM    3  C   UNL     1      -9.432   7.080  68.781  1.00  0.00    -0.136 A  
HETATM    4  C   UNL     1      -9.378   7.689  67.515  1.00  0.00    -0.159 A  
HETATM    5  C   UNL     1      -8.943   6.854  66.340  1.00  0.00    -0.172 C  
HETATM    6  C   UNL     1      -9.718   9.054  67.393  1.00  0.00    -0.217 A  
HETATM    7  C   UNL     1     -10.121   9.768  68.533  1.00  0.00    -0.185 A  
HETATM    8  C   UNL     1     -10.167   9.143  69.786  1.00  0.00    -0.219 A  
ENDROOT
BRANCH   6   9
HETATM    9  C   UNL     1      -9.593   9.749  66.073  1.00  0.00    -0.235 C  
HETATM   10  O   UNL     1      -8.655   9.585  65.308  1.00  0.00    -0.138 OA 
BRANCH   9  11
HETATM   11  O   UNL     1     -10.661  10.555  65.842  1.00  0.00    -0.181 OA 
BRANCH  11  12
HETATM   12  C   UNL     1     -11.009  11.409  66.947  1.00  0.00    -0.299 C  
BRANCH  12  13
HETATM   13  C   UNL     1     -10.978  12.856  66.520  1.00  0.00    -0.300 A  
HETATM   14  C   UNL     1     -10.703  13.206  65.192  1.00  0.00    -0.329 A  
HETATM   15  C   UNL     1     -10.523  14.544  64.832  1.00  0.00    -0.435 A  
HETATM   16  C   UNL     1     -10.613  15.557  65.797  1.00  0.00    -0.370 A  
HETATM   17  C   UNL     1     -10.996  15.209  67.102  1.00  0.00    -0.326 A  
HETATM   18  C   UNL     1     -10.255  16.993  65.421  1.00  0.00    -0.008 C  
HETATM   19  C   UNL     1     -11.156  13.872  67.465  1.00  0.00    -0.302 A  
HETATM   20  C   UNL     1      -9.618  17.764  66.594  1.00  0.00    -0.307 C  
HETATM   21  C   UNL     1     -11.494  17.740  64.875  1.00  0.00     1.931 C  
HETATM   22  O   UNL     1     -10.152  18.775  67.049  1.00  0.00    -0.321 OA 
HETATM   23  N   UNL     1     -11.188  19.094  64.387  1.00  0.00     1.530 NA 
HETATM   24  N   UNL     1      -8.445  17.198  67.082  1.00  0.00    -0.195 N  
HETATM   25  H1  UNL     1     -12.005  19.587  64.026  1.00  0.00     0.000 HD 
HETATM   26  H2  UNL     1     -10.444  19.068  63.690  1.00  0.00     0.000 HD 
HETATM   27  H   UNL     1      -8.126  16.332  66.647  1.00  0.00     0.000 HD 
BRANCH  24  28
HETATM   28  C   UNL     1      -7.657  17.725  68.133  1.00  0.00    -0.250 A  
HETATM   29  C   UNL     1      -7.053  18.982  68.062  1.00  0.00    -0.263 A  
HETATM   30  C   UNL     1      -6.315  19.488  69.132  1.00  0.00    -0.335 A  
HETATM   31  C   UNL     1      -6.150  18.735  70.298  1.00  0.00    -0.072 A  
HETATM   32  C   UNL     1      -5.429  19.208  71.396  1.00  0.00    -0.253 A  
HETATM   33  N   UNL     1      -5.227  18.512  72.537  1.00  0.00     0.149 NA 
HETATM   34  C   UNL     1      -5.772  17.280  72.589  1.00  0.00     2.590 A  
HETATM   35  C   UNL     1      -6.517  16.714  71.562  1.00  0.00     3.034 A  
HETATM   36  C   UNL     1      -6.719  17.449  70.384  1.00  0.00     1.252 A  
HETATM   37  C   UNL     1      -7.468  16.953  69.292  1.00  0.00    -0.116 A  
ENDBRANCH  24  28
ENDBRANCH  12  13
ENDBRANCH  11  12
ENDBRANCH   9  11
ENDBRANCH   6   9
TORSDOF 5
ENDMDL
MODEL      213
REMARK 921   NORMALIZED FREE ENERGY PREDICTED BY IDOCK:    6.03 KCAL/MOL
REMARK 922        TOTAL FREE ENERGY PREDICTED BY IDOCK:    5.57 KCAL/MOL
REMARK 923 INTER-LIGAND FREE ENERGY PREDICTED BY IDOCK:    5.30 KCAL/MOL
REMARK 924 INTRA-LIGAND FREE ENERGY PREDICTED BY IDOCK:    0.27 KCAL/MOL
REMARK 927      BINDING AFFINITY PREDICTED BY RF-SCORE:    0.00 PKD
ROOT
HETATM    1  C   UNL     1      -8.794   3.996  68.238  1.00  0.00    -0.138 C  
HETATM    2  C   UNL     1      -9.339   5.316  68.699  1.00  0.00    -0.155 A  
HETATM    3  C   UNL     1      -9.178   6.463  67.914  1.00  0.00    -0.113 A  
HETATM    4  C   UNL     1      -9.632   7.721  68.351  1.00  0.00    -0.157 A  
HETATM    5  C   UNL     1      -9.408   8.909  67.454  1.00  0.00    -0.165 C  
HETATM    6  C   UNL     1     -10.263   7.826  69.609  1.00  0.00    -0.206 A  
HETATM    7  C   UNL     1     -10.443   6.671  70.389  1.00  0.00    -0.249 A  
HETATM    8  C   UNL     1      -9.982   5.428  69.936  1.00  0.00    -0.294 A  
ENDROOT
BRANCH   6   9
HETATM    9  C   UNL     1     -10.683   9.163  70.134  1.00  0.00    -0.233 C  
HETATM   10  O   UNL     1      -9.994   9.847  70.873  1.00  0.00    -0.129 OA 
BRANCH   9  11
HETATM   11  O   UNL     1     -11.908   9.511  69.661  1.00  0.00     0.123 OA 
BRANCH  11  12
HETATM   12  C   UNL     1     -11.914  10.702  68.852  1.00  0.00    -0.058 C  
BRANCH  12  13
HETATM   13  C   UNL     1     -12.062  11.925  69.724  1.00  0.00    -0.321 A  
HETATM   14  C   UNL     1     -13.322  12.491  69.957  1.00  0.00     1.724 A  
HETATM   15  C   UNL     1     -13.441  13.707  70.634  1.00  0.00     0.324 A  
HETATM   16  C   UNL     1     -12.299  14.380  71.091  1.00  0.00    -0.428 A  
HETATM   17  C   UNL     1     -11.050  13.755  70.951  1.00  0.00     1.300 A  
HETATM   18  C   UNL     1     -12.433  15.781  71.683  1.00  0.00    -0.525 C  
HETATM   19  C   UNL     1     -10.931  12.550  70.257  1.00  0.00     1.130 A  
HETATM   20  C   UNL     1     -11.208  16.666  71.379  1.00  0.00     0.321 C  
HETATM   21  C   UNL     1     -12.699  15.708  73.205  1.00  0.00    -0.486 C  
HETATM   22  O   UNL     1     -10.518  17.125  72.289  1.00  0.00     3.295 OA 
HETATM   23  N   UNL     1     -12.953  17.022  73.816  1.00  0.00     0.202 NA 
HETATM   24  N   UNL     1     -10.958  16.852  70.023  1.00  0.00    -0.343 N  
HETATM   25  H1  UNL     1     -13.128  16.974  74.819  1.00  0.00     0.000 HD 
HETATM   26  H2  UNL     1     -13.715  17.502  73.337  1.00  0.00     0.000 HD 
HETATM   27  H   UNL     1     -11.579  16.382  69.364  1.00  0.00     0.000 HD 
BRANCH  24  28
HETATM   28  C   UNL     1      -9.913  17.640  69.484  1.00  0.00     0.139 A  
HETATM   29  C   UNL     1      -8.637  17.684  70.048  1.00  0.00     2.160 A  
HETATM   30  C   UNL     1      -7.618  18.440  69.469  1.00  0.00     0.297 A  
HETATM   31  C   UNL     1      -7.862  19.187  68.313  1.00  0.00    -0.351 A  
HETATM   32  C   UNL     1      -6.868  19.949  67.694  1.00  0.00    -0.243 A  
HETATM   33  N   UNL     1      -7.059  20.701  66.587  1.00  0.00    -0.259 NA 
HETATM   34  C   UNL     1      -8.302  20.695  66.066  1.00  0.00     0.393 A  
HETATM   35  C   UNL     1      -9.361  19.966  66.592  1.00  0.00    -0.500 A  
HETATM   36  C   UNL     1      -9.149  19.189  67.741  1.00  0.00    -0.344 A  
HETATM   37  C   UNL     1     -10.168  18.413  68.339  1.00  0.00    -0.407 A  
ENDBRANCH  24  28
ENDBRANCH  12  13
ENDBRANCH  11  12
ENDBRANCH   9  11
ENDBRANCH   6   9
TORSDOF 5
ENDMDL
MODEL      214
REMARK 921   NORMALIZED FREE ENERGY PREDICTED BY IDOCK:    6.18 KCAL/MOL
REMARK 922        TOTAL FREE ENERGY PREDICTED BY IDOCK:    5.75 KCAL/MOL
REMARK 923 INTER-LIGAND FREE ENERGY PREDICTED BY IDOCK:   -0.62 KCAL/MOL
REMARK 924 INTRA-LIGAND FREE ENERGY PREDICTED BY IDOCK:    6.38 KCAL/MOL
REMARK 927      BINDING AFFINITY PREDICTED BY RF-SCORE:    0.00 PKD
ROOT
HETATM    1  C   UNL     1      -8.709  20.385  69.481  1.00  0.00     1.083 C  
HETATM    2  C   UNL     1      -9.051  19.377  68.423  1.00  0.00    -0.410 A  
HETATM    3  C   UNL     1     -10.240  18.643  68.500  1.00  0.00    -0.398 A  
HETATM    4  C   UNL     1     -10.555  17.655  67.550  1.00  0.00    -0.345 A  
HETATM    5  C   UNL     1     -11.847  16.899  67.710  1.00  0.00     1.011 C  
HETATM    6  C   UNL     1      -9.651  17.399  66.497  1.00  0.00    -0.292 A  
HETATM    7  C   UNL     1      -8.466  18.149  66.408  1.00  0.00    -0.263 A  
HETATM    8  C   UNL     1      -8.170  19.129  67.365  1.00  0.00    -0.302 A  
ENDROOT
BRANCH   6   9
HETATM    9  C   UNL     1      -9.921  16.299  65.519  1.00  0.00    -0.182 C  
HETATM   10  O   UNL     1      -9.100  15.894  64.711  1.00  0.00     1.149 OA 
BRANCH   9  11
HETATM   11  O   UNL     1     -11.179  15.809  65.669  1.00  0.00    -0.202 OA 
BRANCH  11  12
HETATM   12  C   UNL     1     -11.232  14.449  66.139  1.00  0.00    -0.336 C  
BRANCH  12  13
HETATM   13  C   UNL     1     -11.644  14.413  67.590  1.00  0.00    -0.396 A  
HETATM   14  C   UNL     1     -10.942  15.147  68.554  1.00  0.00    -0.263 A  
HETATM   15  C   UNL     1     -11.227  14.993  69.912  1.00  0.00    -0.303 A  
HETATM   16  C   UNL     1     -12.220  14.098  70.332  1.00  0.00    -0.427 A  
HETATM   17  C   UNL     1     -12.993  13.448  69.358  1.00  0.00     1.156 A  
HETATM   18  C   UNL     1     -12.408  13.821  71.822  1.00  0.00    -0.154 C  
HETATM   19  C   UNL     1     -12.695  13.588  68.002  1.00  0.00     1.007 A  
HETATM   20  C   UNL     1     -12.852  12.370  72.096  1.00  0.00    -0.068 C  
HETATM   21  C   UNL     1     -13.398  14.831  72.446  1.00  0.00    -0.408 C  
HETATM   22  O   UNL     1     -13.927  12.133  72.649  1.00  0.00     0.094 OA 
HETATM   23  N   UNL     1     -13.534  14.690  73.904  1.00  0.00     0.330 NA 
HETATM   24  N   UNL     1     -11.963  11.402  71.642  1.00  0.00     0.298 N  
HETATM   25  H1  UNL     1     -14.187  15.356  74.315  1.00  0.00     0.000 HD 
HETATM   26  H2  UNL     1     -12.623  14.747  74.359  1.00  0.00     0.000 HD 
HETATM   27  H   UNL     1     -11.125  11.726  71.159  1.00  0.00     0.000 HD 
BRANCH  24  28
HETATM   28  C   UNL     1     -12.127  10.004  71.793  1.00  0.00    -0.240 A  
HETATM   29  C   UNL     1     -13.377   9.384  71.743  1.00  0.00    -0.489 A  
HETATM   30  C   UNL     1     -13.499   8.000  71.857  1.00  0.00    -0.342 A  
HETATM   31  C   UNL     1     -12.366   7.201  72.041  1.00  0.00    -0.298 A  
HETATM   32  C   UNL     1     -12.442   5.811  72.149  1.00  0.00     0.397 A  
HETATM   33  N   UNL     1     -11.379   4.999  72.345  1.00  0.00    -0.060 NA 
HETATM   34  C   UNL     1     -10.176   5.601  72.438  1.00  0.00    -0.193 A  
HETATM   35  C   UNL     1      -9.983   6.973  72.335  1.00  0.00    -0.184 A  
HETATM   36  C   UNL     1     -11.095   7.803  72.131  1.00  0.00    -0.331 A  
HETATM   37  C   UNL     1     -10.990   9.208  72.008  1.00  0.00    -0.262 A  
ENDBRANCH  24  28
ENDBRANCH  12  13
ENDBRANCH  11  12
ENDBRANCH   9  11
ENDBRANCH   6   9
TORSDOF 5
ENDMDL
MODEL      215
REMARK 921   NORMALIZED FREE ENERGY PREDICTED BY IDOCK:    6.62 KCAL/MOL
REMARK 922        TOTAL FREE ENERGY PREDICTED BY IDOCK:    6.33 KCAL/MOL
REMARK 923 INTER-LIGAND FREE ENERGY PREDICTED BY IDOCK:   -1.30 KCAL/MOL
REMARK 924 INTRA-LIGAND FREE ENERGY PREDICTED BY IDOCK:    7.63 KCAL/MOL
REMARK 927      BINDING AFFINITY PREDICTED BY RF-SCORE:    0.00 PKD
ROOT
HETATM    1  C   UNL     1      -9.236  17.028  69.076  1.00  0.00    -0.154 C  
HETATM    2  C   UNL     1      -8.859  15.816  68.274  1.00  0.00    -0.180 A  
HETATM    3  C   UNL     1      -9.827  15.121  67.542  1.00  0.00    -0.220 A  
HETATM    4  C   UNL     1      -9.507  13.952  66.827  1.00  0.00    -0.287 A  
HETATM    5  C   UNL     1     -10.608  13.253  66.076  1.00  0.00    -0.292 C  
HETATM    6  C   UNL     1      -8.180  13.473  66.851  1.00  0.00     0.046 A  
HETATM    7  C   UNL     1      -7.203  14.182  67.570  1.00  0.00    -0.188 A  
HETATM    8  C   UNL     1      -7.542  15.343  68.276  1.00  0.00    -0.115 A  
ENDROOT
BRANCH   6   9
HETATM    9  C   UNL     1      -7.828  12.189  66.167  1.00  0.00     0.661 C  
HETATM   10  O   UNL     1      -6.682  11.793  66.018  1.00  0.00     0.327 OA 
BRANCH   9  11
HETATM   11  O   UNL     1      -8.943  11.528  65.763  1.00  0.00    -0.195 OA 
BRANCH  11  12
HETATM   12  C   UNL     1      -9.792  11.087  66.840  1.00  0.00    -0.191 C  
BRANCH  12  13
HETATM   13  C   UNL     1      -8.971  10.824  68.078  1.00  0.00    -0.139 A  
HETATM   14  C   UNL     1      -7.592  11.068  68.090  1.00  0.00    -0.095 A  
HETATM   15  C   UNL     1      -6.811  10.682  69.182  1.00  0.00    -0.079 A  
HETATM   16  C   UNL     1      -7.396  10.041  70.283  1.00  0.00    -0.152 A  
HETATM   17  C   UNL     1      -8.792   9.898  70.312  1.00  0.00    -0.078 A  
HETATM   18  C   UNL     1      -6.508   9.481  71.391  1.00  0.00     0.048 C  
HETATM   19  C   UNL     1      -9.569  10.267  69.213  1.00  0.00    -0.239 A  
HETATM   20  C   UNL     1      -7.094   8.201  72.020  1.00  0.00    -0.083 C  
HETATM   21  C   UNL     1      -6.238  10.555  72.471  1.00  0.00     1.887 C  
HETATM   22  O   UNL     1      -7.385   8.161  73.216  1.00  0.00    -0.121 OA 
HETATM   23  N   UNL     1      -5.294  10.113  73.509  1.00  0.00    -0.325 NA 
HETATM   24  N   UNL     1      -7.282   7.155  71.123  1.00  0.00    -0.073 N  
HETATM   25  H1  UNL     1      -5.116  10.821  74.221  1.00  0.00     0.000 HD 
HETATM   26  H2  UNL     1      -4.421   9.791  73.090  1.00  0.00     0.000 HD 
HETATM   27  H   UNL     1      -7.041   7.327  70.147  1.00  0.00     0.000 HD 
BRANCH  24  28
HETATM   28  C   UNL     1      -7.779   5.872  71.453  1.00  0.00    -0.107 A  
HETATM   29  C   UNL     1      -7.538   4.747  70.662  1.00  0.00    -0.058 A  
HETATM   30  C   UNL     1      -8.010   3.488  71.037  1.00  0.00    -0.058 A  
HETATM   31  C   UNL     1      -8.751   3.331  72.212  1.00  0.00    -0.104 A  
HETATM   32  C   UNL     1      -9.232   2.088  72.630  1.00  0.00    -0.077 A  
HETATM   33  N   UNL     1      -9.967   1.889  73.746  1.00  0.00    -0.086 NA 
HETATM   34  C   UNL     1     -10.238   2.982  74.488  1.00  0.00    -0.159 A  
HETATM   35  C   UNL     1      -9.801   4.262  74.173  1.00  0.00    -0.170 A  
HETATM   36  C   UNL     1      -9.039   4.455  73.012  1.00  0.00    -0.129 A  
HETATM   37  C   UNL     1      -8.549   5.722  72.618  1.00  0.00    -0.120 A  
ENDBRANCH  24  28
ENDBRANCH  12  13
ENDBRANCH  11  12
ENDBRANCH   9  11
ENDBRANCH   6   9
TORSDOF 5
ENDMDL
MODEL      216
REMARK 921   NORMALIZED FREE ENERGY PREDICTED BY IDOCK:    6.79 KCAL/MOL
REMARK 922        TOTAL FREE ENERGY PREDICTED BY IDOCK:    6.55 KCAL/MOL
REMARK 923 INTER-LIGAND FREE ENERGY PREDICTED BY IDOCK:    7.19 KCAL/MOL
REMARK 924 INTRA-LIGAND FREE ENERGY PREDICTED BY IDOCK:   -0.64 KCAL/MOL
REMARK 927      BINDING AFFINITY PREDICTED BY RF-SCORE:    0.00 PKD
ROOT
HETATM    1  C   UNL     1     -10.489  17.966  70.815  1.00  0.00     2.146 C  
HETATM    2  C   UNL     1      -9.430  17.206  70.070  1.00  0.00     1.378 A  
HETATM    3  C   UNL     1      -9.052  15.924  70.485  1.00  0.00     1.663 A  
HETATM    4  C   UNL     1      -8.025  15.216  69.836  1.00  0.00     0.116 A  
HETATM    5  C   UNL     1      -7.668  13.847  70.351  1.00  0.00     1.886 C  
HETATM    6  C   UNL     1      -7.362  15.814  68.743  1.00  0.00    -0.141 A  
HETATM    7  C   UNL     1      -7.755  17.092  68.313  1.00  0.00    -0.220 A  
HETATM    8  C   UNL     1      -8.780  17.782  68.974  1.00  0.00    -0.007 A  
ENDROOT
BRANCH   6   9
HETATM    9  C   UNL     1      -6.212  15.118  68.084  1.00  0.00    -0.133 C  
HETATM   10  O   UNL     1      -5.168  14.847  68.655  1.00  0.00    -0.087 OA 
BRANCH   9  11
HETATM   11  O   UNL     1      -6.499  14.814  66.792  1.00  0.00     0.339 OA 
BRANCH  11  12
HETATM   12  C   UNL     1      -7.886  14.514  66.548  1.00  0.00     0.886 C  
BRANCH  12  13
HETATM   13  C   UNL     1      -8.046  13.068  66.148  1.00  0.00     1.279 A  
HETATM   14  C   UNL     1      -8.884  12.706  65.085  1.00  0.00     1.263 A  
HETATM   15  C   UNL     1      -9.150  11.362  64.816  1.00  0.00     0.036 A  
HETATM   16  C   UNL     1      -8.581  10.353  65.606  1.00  0.00    -0.175 A  
HETATM   17  C   UNL     1      -7.657  10.718  66.598  1.00  0.00    -0.134 A  
HETATM   18  C   UNL     1      -9.008   8.901  65.401  1.00  0.00    -0.232 C  
HETATM   19  C   UNL     1      -7.408  12.062  66.879  1.00  0.00    -0.042 A  
HETATM   20  C   UNL     1      -8.999   8.098  66.717  1.00  0.00    -0.146 C  
HETATM   21  C   UNL     1      -8.127   8.219  64.329  1.00  0.00    -0.147 C  
HETATM   22  O   UNL     1      -8.271   7.114  66.851  1.00  0.00    -0.114 OA 
HETATM   23  N   UNL     1      -8.562   6.852  64.003  1.00  0.00    -0.248 NA 
HETATM   24  N   UNL     1      -9.840   8.603  67.703  1.00  0.00    -0.170 N  
HETATM   25  H1  UNL     1      -7.981   6.401  63.296  1.00  0.00     0.000 HD 
HETATM   26  H2  UNL     1      -9.543   6.841  63.727  1.00  0.00     0.000 HD 
HETATM   27  H   UNL     1     -10.361   9.452  67.484  1.00  0.00     0.000 HD 
BRANCH  24  28
HETATM   28  C   UNL     1     -10.032   8.035  68.985  1.00  0.00    -0.185 A  
HETATM   29  C   UNL     1     -11.132   7.233  69.294  1.00  0.00    -0.056 A  
HETATM   30  C   UNL     1     -11.272   6.656  70.557  1.00  0.00    -0.388 A  
HETATM   31  C   UNL     1     -10.313   6.885  71.549  1.00  0.00    -0.220 A  
HETATM   32  C   UNL     1     -10.408   6.318  72.822  1.00  0.00    -0.197 A  
HETATM   33  N   UNL     1      -9.518   6.523  73.819  1.00  0.00    -0.149 NA 
HETATM   34  C   UNL     1      -8.478   7.333  73.535  1.00  0.00    -0.138 A  
HETATM   35  C   UNL     1      -8.279   7.940  72.301  1.00  0.00    -0.167 A  
HETATM   36  C   UNL     1      -9.210   7.718  71.276  1.00  0.00    -0.158 A  
HETATM   37  C   UNL     1      -9.083   8.290  69.989  1.00  0.00    -0.150 A  
ENDBRANCH  24  28
ENDBRANCH  12  13
ENDBRANCH  11  12
ENDBRANCH   9  11
ENDBRANCH   6   9
TORSDOF 5
ENDMDL
MODEL      217
REMARK 921   NORMALIZED FREE ENERGY PREDICTED BY IDOCK:    7.36 KCAL/MOL
REMARK 922        TOTAL FREE ENERGY PREDICTED BY IDOCK:    7.29 KCAL/MOL
REMARK 923 INTER-LIGAND FREE ENERGY PREDICTED BY IDOCK:    8.42 KCAL/MOL
REMARK 924 INTRA-LIGAND FREE ENERGY PREDICTED BY IDOCK:   -1.13 KCAL/MOL
REMARK 927      BINDING AFFINITY PREDICTED BY RF-SCORE:    0.00 PKD
ROOT
HETATM    1  C   UNL     1      -8.212  12.141  65.650  1.00  0.00     1.043 C  
HETATM    2  C   UNL     1      -7.619  12.062  67.027  1.00  0.00    -0.111 A  
HETATM    3  C   UNL     1      -8.373  12.432  68.146  1.00  0.00    -0.178 A  
HETATM    4  C   UNL     1      -7.821  12.418  69.440  1.00  0.00     0.685 A  
HETATM    5  C   UNL     1      -8.693  12.844  70.591  1.00  0.00     7.392 C  
HETATM    6  C   UNL     1      -6.478  12.022  69.610  1.00  0.00    -0.088 A  
HETATM    7  C   UNL     1      -5.726  11.631  68.489  1.00  0.00    -0.045 A  
HETATM    8  C   UNL     1      -6.294  11.653  67.209  1.00  0.00    -0.118 A  
ENDROOT
BRANCH   6   9
HETATM    9  C   UNL     1      -5.840  12.074  70.964  1.00  0.00     0.220 C  
HETATM   10  O   UNL     1      -5.661  13.108  71.588  1.00  0.00    -0.376 OA 
BRANCH   9  11
HETATM   11  O   UNL     1      -5.517  10.830  71.400  1.00  0.00    -0.259 OA 
BRANCH  11  12
HETATM   12  C   UNL     1      -6.532  10.203  72.207  1.00  0.00     1.489 C  
BRANCH  12  13
HETATM   13  C   UNL     1      -6.471   8.703  72.051  1.00  0.00    -0.074 A  
HETATM   14  C   UNL     1      -5.318   7.991  72.403  1.00  0.00    -0.036 A  
HETATM   15  C   UNL     1      -5.208   6.629  72.115  1.00  0.00    -0.031 A  
HETATM   16  C   UNL     1      -6.252   5.953  71.468  1.00  0.00    -0.040 A  
HETATM   17  C   UNL     1      -7.446   6.646  71.217  1.00  0.00    -0.084 A  
HETATM   18  C   UNL     1      -6.052   4.508  71.016  1.00  0.00    -0.018 C  
HETATM   19  C   UNL     1      -7.548   8.012  71.487  1.00  0.00    -0.087 A  
HETATM   20  C   UNL     1      -6.817   4.190  69.716  1.00  0.00    -0.041 C  
HETATM   21  C   UNL     1      -6.442   3.524  72.143  1.00  0.00    -0.015 C  
HETATM   22  O   UNL     1      -7.690   3.322  69.694  1.00  0.00    -0.044 OA 
HETATM   23  N   UNL     1      -6.163   2.119  71.811  1.00  0.00    -0.014 NA 
HETATM   24  N   UNL     1      -6.455   4.979  68.629  1.00  0.00    -0.036 N  
HETATM   25  H1  UNL     1      -6.420   1.469  72.555  1.00  0.00     0.000 HD 
HETATM   26  H2  UNL     1      -5.186   1.997  71.545  1.00  0.00     0.000 HD 
HETATM   27  H   UNL     1      -5.746   5.695  68.787  1.00  0.00     0.000 HD 
BRANCH  24  28
HETATM   28  C   UNL     1      -6.988   4.868  67.323  1.00  0.00    -0.061 A  
HETATM   29  C   UNL     1      -8.081   5.622  66.891  1.00  0.00    -0.102 A  
HETATM   30  C   UNL     1      -8.557   5.517  65.584  1.00  0.00    -0.148 A  
HETATM   31  C   UNL     1      -7.955   4.637  64.680  1.00  0.00    -0.097 A  
HETATM   32  C   UNL     1      -8.392   4.509  63.359  1.00  0.00    -0.108 A  
HETATM   33  N   UNL     1      -7.855   3.661  62.454  1.00  0.00    -0.061 NA 
HETATM   34  C   UNL     1      -6.828   2.900  62.883  1.00  0.00    -0.028 A  
HETATM   35  C   UNL     1      -6.305   2.953  64.169  1.00  0.00    -0.023 A  
HETATM   36  C   UNL     1      -6.872   3.838  65.098  1.00  0.00    -0.053 A  
HETATM   37  C   UNL     1      -6.400   3.961  66.425  1.00  0.00    -0.036 A  
ENDBRANCH  24  28
ENDBRANCH  12  13
ENDBRANCH  11  12
ENDBRANCH   9  11
ENDBRANCH   6   9
TORSDOF 5
ENDMDL
MODEL      218
REMARK 921   NORMALIZED FREE ENERGY PREDICTED BY IDOCK:    7.68 KCAL/MOL
REMARK 922        TOTAL FREE ENERGY PREDICTED BY IDOCK:    7.70 KCAL/MOL
REMARK 923 INTER-LIGAND FREE ENERGY PREDICTED BY IDOCK:   -2.42 KCAL/MOL
REMARK 924 INTRA-LIGAND FREE ENERGY PREDICTED BY IDOCK:   10.11 KCAL/MOL
REMARK 927      BINDING AFFINITY PREDICTED BY RF-SCORE:    0.00 PKD
ROOT
HETATM    1  C   UNL     1     -11.226   4.885  66.699  1.00  0.00     1.172 C  
HETATM    2  C   UNL     1     -10.675   5.127  68.074  1.00  0.00     0.114 A  
HETATM    3  C   UNL     1      -9.797   4.208  68.658  1.00  0.00    -0.082 A  
HETATM    4  C   UNL     1      -9.311   4.386  69.966  1.00  0.00    -0.227 A  
HETATM    5  C   UNL     1      -8.381   3.345  70.529  1.00  0.00    -0.088 C  
HETATM    6  C   UNL     1      -9.720   5.518  70.703  1.00  0.00    -0.233 A  
HETATM    7  C   UNL     1     -10.586   6.451  70.110  1.00  0.00    -0.294 A  
HETATM    8  C   UNL     1     -11.060   6.255  68.806  1.00  0.00    -0.424 A  
ENDROOT
BRANCH   6   9
HETATM    9  C   UNL     1      -9.283   5.692  72.124  1.00  0.00    -0.146 C  
HETATM   10  O   UNL     1      -9.870   5.203  73.077  1.00  0.00    -0.151 OA 
BRANCH   9  11
HETATM   11  O   UNL     1      -8.151   6.437  72.200  1.00  0.00    -0.107 OA 
BRANCH  11  12
HETATM   12  C   UNL     1      -8.381   7.853  72.327  1.00  0.00    -0.131 C  
BRANCH  12  13
HETATM   13  C   UNL     1      -8.786   8.438  70.996  1.00  0.00    -0.185 A  
HETATM   14  C   UNL     1     -10.019   9.083  70.841  1.00  0.00    -0.326 A  
HETATM   15  C   UNL     1     -10.457   9.486  69.577  1.00  0.00    -0.234 A  
HETATM   16  C   UNL     1      -9.667   9.250  68.443  1.00  0.00    -0.168 A  
HETATM   17  C   UNL     1      -8.386   8.703  68.620  1.00  0.00    -0.122 A  
HETATM   18  C   UNL     1     -10.228   9.549  67.055  1.00  0.00    -0.321 C  
HETATM   19  C   UNL     1      -7.958   8.283  69.880  1.00  0.00    -0.108 A  
HETATM   20  C   UNL     1      -9.704   8.567  65.988  1.00  0.00    -0.125 C  
HETATM   21  C   UNL     1      -9.937  11.012  66.651  1.00  0.00    -0.209 C  
HETATM   22  O   UNL     1      -9.051   8.970  65.026  1.00  0.00    -0.197 OA 
HETATM   23  N   UNL     1     -10.552  11.397  65.372  1.00  0.00    -0.278 NA 
HETATM   24  N   UNL     1     -10.008   7.232  66.239  1.00  0.00    -0.450 N  
HETATM   25  H1  UNL     1     -10.361  12.363  65.105  1.00  0.00     0.000 HD 
HETATM   26  H2  UNL     1     -11.556  11.217  65.385  1.00  0.00     0.000 HD 
HETATM   27  H   UNL     1     -10.519   7.022  67.096  1.00  0.00     0.000 HD 
BRANCH  24  28
HETATM   28  C   UNL     1      -9.665   6.144  65.402  1.00  0.00     0.713 A  
HETATM   29  C   UNL     1      -8.403   6.013  64.819  1.00  0.00    -0.086 A  
HETATM   30  C   UNL     1      -8.084   4.907  64.030  1.00  0.00    -0.116 A  
HETATM   31  C   UNL     1      -9.035   3.909  63.794  1.00  0.00    -0.115 A  
HETATM   32  C   UNL     1      -8.755   2.780  63.020  1.00  0.00    -0.085 A  
HETATM   33  N   UNL     1      -9.644   1.799  62.749  1.00  0.00    -0.089 NA 
HETATM   34  C   UNL     1     -10.876   1.947  63.275  1.00  0.00    -0.206 A  
HETATM   35  C   UNL     1     -11.260   3.021  64.067  1.00  0.00     0.590 A  
HETATM   36  C   UNL     1     -10.327   4.032  64.341  1.00  0.00    -0.216 A  
HETATM   37  C   UNL     1     -10.630   5.158  65.142  1.00  0.00     0.515 A  
ENDBRANCH  24  28
ENDBRANCH  12  13
ENDBRANCH  11  12
ENDBRANCH   9  11
ENDBRANCH   6   9
TORSDOF 5
ENDMDL
MODEL      219
REMARK 921   NORMALIZED FREE ENERGY PREDICTED BY IDOCK:    7.68 KCAL/MOL
REMARK 922        TOTAL FREE ENERGY PREDICTED BY IDOCK:    7.70 KCAL/MOL
REMARK 923 INTER-LIGAND FREE ENERGY PREDICTED BY IDOCK:    4.29 KCAL/MOL
REMARK 924 INTRA-LIGAND FREE ENERGY PREDICTED BY IDOCK:    3.41 KCAL/MOL
REMARK 927      BINDING AFFINITY PREDICTED BY RF-SCORE:    0.00 PKD
ROOT
HETATM    1  C   UNL     1     -12.226  17.582  71.668  1.00  0.00     4.870 C  
HETATM    2  C   UNL     1     -11.563  16.482  70.891  1.00  0.00    -0.009 A  
HETATM    3  C   UNL     1     -11.589  16.487  69.492  1.00  0.00     0.122 A  
HETATM    4  C   UNL     1     -11.021  15.439  68.744  1.00  0.00    -0.264 A  
HETATM    5  C   UNL     1     -11.102  15.510  67.243  1.00  0.00    -0.271 C  
HETATM    6  C   UNL     1     -10.412  14.361  69.423  1.00  0.00    -0.097 A  
HETATM    7  C   UNL     1     -10.368  14.366  70.827  1.00  0.00     1.395 A  
HETATM    8  C   UNL     1     -10.941  15.419  71.553  1.00  0.00    -0.156 A  
ENDROOT
BRANCH   6   9
HETATM    9  C   UNL     1      -9.872  13.195  68.656  1.00  0.00    -0.083 C  
HETATM   10  O   UNL     1      -9.486  12.161  69.179  1.00  0.00     0.235 OA 
BRANCH   9  11
HETATM   11  O   UNL     1      -9.892  13.436  67.320  1.00  0.00    -0.226 OA 
BRANCH  11  12
HETATM   12  C   UNL     1      -8.700  13.022  66.626  1.00  0.00    -0.019 C  
BRANCH  12  13
HETATM   13  C   UNL     1      -8.159  11.749  67.230  1.00  0.00    -0.164 A  
HETATM   14  C   UNL     1      -6.830  11.671  67.666  1.00  0.00    -0.094 A  
HETATM   15  C   UNL     1      -6.289  10.452  68.081  1.00  0.00    -0.052 A  
HETATM   16  C   UNL     1      -7.068   9.287  68.066  1.00  0.00    -0.078 A  
HETATM   17  C   UNL     1      -8.427   9.393  67.732  1.00  0.00    -0.116 A  
HETATM   18  C   UNL     1      -6.418   7.939  68.366  1.00  0.00    -0.053 C  
HETATM   19  C   UNL     1      -8.962  10.607  67.299  1.00  0.00    -0.141 A  
HETATM   20  C   UNL     1      -7.062   6.787  67.568  1.00  0.00    -0.085 C  
HETATM   21  C   UNL     1      -6.447   7.644  69.884  1.00  0.00    -0.034 C  
HETATM   22  O   UNL     1      -7.606   5.846  68.145  1.00  0.00    -0.086 OA 
HETATM   23  N   UNL     1      -5.733   6.411  70.252  1.00  0.00    -0.018 NA 
HETATM   24  N   UNL     1      -6.995   6.939  66.187  1.00  0.00    -0.067 N  
HETATM   25  H1  UNL     1      -5.751   6.217  71.253  1.00  0.00     0.000 HD 
HETATM   26  H2  UNL     1      -4.774   6.432  69.904  1.00  0.00     0.000 HD 
HETATM   27  H   UNL     1      -6.555   7.787  65.831  1.00  0.00     0.000 HD 
BRANCH  24  28
HETATM   28  C   UNL     1      -7.486   6.013  65.237  1.00  0.00    -0.083 A  
HETATM   29  C   UNL     1      -8.436   6.358  64.273  1.00  0.00     0.174 A  
HETATM   30  C   UNL     1      -8.871   5.431  63.325  1.00  0.00     0.149 A  
HETATM   31  C   UNL     1      -8.372   4.125  63.332  1.00  0.00    -0.096 A  
HETATM   32  C   UNL     1      -8.771   3.169  62.395  1.00  0.00    -0.074 A  
HETATM   33  N   UNL     1      -8.332   1.891  62.372  1.00  0.00    -0.063 NA 
HETATM   34  C   UNL     1      -7.449   1.544  63.329  1.00  0.00    -0.049 A  
HETATM   35  C   UNL     1      -6.975   2.415  64.302  1.00  0.00    -0.044 A  
HETATM   36  C   UNL     1      -7.439   3.739  64.315  1.00  0.00    -0.071 A  
HETATM   37  C   UNL     1      -7.006   4.693  65.264  1.00  0.00    -0.062 A  
ENDBRANCH  24  28
ENDBRANCH  12  13
ENDBRANCH  11  12
ENDBRANCH   9  11
ENDBRANCH   6   9
TORSDOF 5
ENDMDL
MODEL      220
REMARK 921   NORMALIZED FREE ENERGY PREDICTED BY IDOCK:    8.40 KCAL/MOL
REMARK 922        TOTAL FREE ENERGY PREDICTED BY IDOCK:    8.63 KCAL/MOL
REMARK 923 INTER-LIGAND FREE ENERGY PREDICTED BY IDOCK:    8.76 KCAL/MOL
REMARK 924 INTRA-LIGAND FREE ENERGY PREDICTED BY IDOCK:   -0.13 KCAL/MOL
REMARK 927      BINDING AFFINITY PREDICTED BY RF-SCORE:    0.00 PKD
ROOT
HETATM    1  C   UNL     1     -10.303  15.455  71.233  1.00  0.00     0.718 C  
HETATM    2  C   UNL     1     -10.508  16.327  70.029  1.00  0.00    -0.164 A  
HETATM    3  C   UNL     1     -10.054  17.651  70.026  1.00  0.00     0.834 A  
HETATM    4  C   UNL     1     -10.283  18.502  68.931  1.00  0.00    -0.269 A  
HETATM    5  C   UNL     1      -9.775  19.917  69.010  1.00  0.00    -0.292 C  
HETATM    6  C   UNL     1     -10.988  18.009  67.811  1.00  0.00    -0.106 A  
HETATM    7  C   UNL     1     -11.427  16.675  67.806  1.00  0.00     0.198 A  
HETATM    8  C   UNL     1     -11.189  15.843  68.907  1.00  0.00    -0.343 A  
ENDROOT
BRANCH   6   9
HETATM    9  C   UNL     1     -11.316  18.916  66.666  1.00  0.00     0.735 C  
HETATM   10  O   UNL     1     -11.494  20.118  66.784  1.00  0.00     0.480 OA 
BRANCH   9  11
HETATM   11  O   UNL     1     -11.364  18.228  65.496  1.00  0.00     0.326 OA 
BRANCH  11  12
HETATM   12  C   UNL     1     -10.084  17.755  65.035  1.00  0.00     1.545 C  
BRANCH  12  13
HETATM   13  C   UNL     1     -10.105  16.254  64.885  1.00  0.00     0.545 A  
HETATM   14  C   UNL     1     -10.789  15.647  63.824  1.00  0.00     2.081 A  
HETATM   15  C   UNL     1     -10.936  14.259  63.773  1.00  0.00     0.994 A  
HETATM   16  C   UNL     1     -10.402  13.451  64.786  1.00  0.00    -0.397 A  
HETATM   17  C   UNL     1      -9.625  14.055  65.788  1.00  0.00    -0.138 A  
HETATM   18  C   UNL     1     -10.709  11.956  64.802  1.00  0.00    -0.356 C  
HETATM   19  C   UNL     1      -9.495  15.443  65.848  1.00  0.00    -0.369 A  
HETATM   20  C   UNL     1     -10.805  11.392  66.234  1.00  0.00    -0.263 C  
HETATM   21  C   UNL     1      -9.668  11.174  63.967  1.00  0.00    -0.283 C  
HETATM   22  O   UNL     1     -10.037  10.509  66.617  1.00  0.00    -0.206 OA 
HETATM   23  N   UNL     1      -9.975   9.741  63.848  1.00  0.00    -0.355 NA 
HETATM   24  N   UNL     1     -11.785  11.988  67.020  1.00  0.00    -0.312 N  
HETATM   25  H1  UNL     1      -9.289   9.225  63.297  1.00  0.00     0.000 HD 
HETATM   26  H2  UNL     1     -10.915   9.602  63.477  1.00  0.00     0.000 HD 
HETATM   27  H   UNL     1     -12.330  12.741  66.599  1.00  0.00     0.000 HD 
BRANCH  24  28
HETATM   28  C   UNL     1     -12.090  11.634  68.356  1.00  0.00    -0.035 A  
HETATM   29  C   UNL     1     -11.724  10.406  68.910  1.00  0.00    -0.138 A  
HETATM   30  C   UNL     1     -12.005  10.103  70.243  1.00  0.00    -0.315 A  
HETATM   31  C   UNL     1     -12.678  11.025  71.051  1.00  0.00    -0.485 A  
HETATM   32  C   UNL     1     -12.970  10.768  72.392  1.00  0.00     0.324 A  
HETATM   33  N   UNL     1     -13.634  11.617  73.207  1.00  0.00     2.689 NA 
HETATM   34  C   UNL     1     -14.027  12.785  72.661  1.00  0.00     0.203 A  
HETATM   35  C   UNL     1     -13.781  13.149  71.343  1.00  0.00     0.194 A  
HETATM   36  C   UNL     1     -13.091  12.258  70.508  1.00  0.00     0.425 A  
HETATM   37  C   UNL     1     -12.793  12.549  69.157  1.00  0.00     1.293 A  
ENDBRANCH  24  28
ENDBRANCH  12  13
ENDBRANCH  11  12
ENDBRANCH   9  11
ENDBRANCH   6   9
TORSDOF 5
ENDMDL
MODEL      221
REMARK 921   NORMALIZED FREE ENERGY PREDICTED BY IDOCK:    8.53 KCAL/MOL
REMARK 922        TOTAL FREE ENERGY PREDICTED BY IDOCK:    8.80 KCAL/MOL
REMARK 923 INTER-LIGAND FREE ENERGY PREDICTED BY IDOCK:    3.54 KCAL/MOL
REMARK 924 INTRA-LIGAND FREE ENERGY PREDICTED BY IDOCK:    5.26 KCAL/MOL
REMARK 927      BINDING AFFINITY PREDICTED BY RF-SCORE:    0.00 PKD
ROOT
HETATM    1  C   UNL     1     -11.335  10.781  68.315  1.00  0.00    -0.376 C  
HETATM    2  C   UNL     1     -10.613  10.942  67.009  1.00  0.00    -0.307 A  
HETATM    3  C   UNL     1     -11.108  10.341  65.846  1.00  0.00     0.498 A  
HETATM    4  C   UNL     1     -10.419  10.432  64.623  1.00  0.00    -0.047 A  
HETATM    5  C   UNL     1     -11.010   9.747  63.420  1.00  0.00     4.627 C  
HETATM    6  C   UNL     1      -9.202  11.145  64.570  1.00  0.00    -0.126 A  
HETATM    7  C   UNL     1      -8.715  11.765  65.733  1.00  0.00     0.132 A  
HETATM    8  C   UNL     1      -9.415  11.661  66.942  1.00  0.00    -0.195 A  
ENDROOT
BRANCH   6   9
HETATM    9  C   UNL     1      -8.408  11.191  63.302  1.00  0.00     0.241 C  
HETATM   10  O   UNL     1      -7.998  12.225  62.797  1.00  0.00     1.494 OA 
BRANCH   9  11
HETATM   11  O   UNL     1      -8.191   9.942  62.815  1.00  0.00    -0.129 OA 
BRANCH  11  12
HETATM   12  C   UNL     1      -6.986   9.319  63.297  1.00  0.00    -0.090 C  
BRANCH  12  13
HETATM   13  C   UNL     1      -6.828   9.564  64.778  1.00  0.00    -0.103 A  
HETATM   14  C   UNL     1      -5.608  10.009  65.305  1.00  0.00    -0.077 A  
HETATM   15  C   UNL     1      -5.417  10.088  66.686  1.00  0.00    -0.045 A  
HETATM   16  C   UNL     1      -6.444   9.721  67.567  1.00  0.00    -0.068 A  
HETATM   17  C   UNL     1      -7.697   9.381  67.033  1.00  0.00    -0.091 A  
HETATM   18  C   UNL     1      -6.166   9.657  69.067  1.00  0.00    -0.041 C  
HETATM   19  C   UNL     1      -7.881   9.284  65.654  1.00  0.00    -0.099 A  
HETATM   20  C   UNL     1      -6.977   8.547  69.766  1.00  0.00    -0.047 C  
HETATM   21  C   UNL     1      -6.423  11.030  69.729  1.00  0.00    -0.137 C  
HETATM   22  O   UNL     1      -7.785   8.819  70.654  1.00  0.00    -0.071 OA 
HETATM   23  N   UNL     1      -6.063  11.066  71.155  1.00  0.00    -0.357 NA 
HETATM   24  N   UNL     1      -6.731   7.266  69.282  1.00  0.00    -0.047 N  
HETATM   25  H1  UNL     1      -6.232  11.972  71.592  1.00  0.00     0.000 HD 
HETATM   26  H2  UNL     1      -5.096  10.772  71.291  1.00  0.00     0.000 HD 
HETATM   27  H   UNL     1      -6.068   7.176  68.512  1.00  0.00     0.000 HD 
BRANCH  24  28
HETATM   28  C   UNL     1      -7.325   6.078  69.771  1.00  0.00    -0.079 A  
HETATM   29  C   UNL     1      -7.679   5.912  71.111  1.00  0.00    -0.109 A  
HETATM   30  C   UNL     1      -8.299   4.743  71.553  1.00  0.00    -0.109 A  
HETATM   31  C   UNL     1      -8.566   3.702  70.659  1.00  0.00    -0.112 A  
HETATM   32  C   UNL     1      -9.194   2.519  71.057  1.00  0.00    -0.131 A  
HETATM   33  N   UNL     1      -9.457   1.479  70.235  1.00  0.00    -0.099 NA 
HETATM   34  C   UNL     1      -9.075   1.621  68.950  1.00  0.00    -0.122 A  
HETATM   35  C   UNL     1      -8.454   2.755  68.444  1.00  0.00    -0.097 A  
HETATM   36  C   UNL     1      -8.188   3.828  69.308  1.00  0.00    -0.069 A  
HETATM   37  C   UNL     1      -7.565   5.022  68.877  1.00  0.00    -0.073 A  
ENDBRANCH  24  28
ENDBRANCH  12  13
ENDBRANCH  11  12
ENDBRANCH   9  11
ENDBRANCH   6   9
TORSDOF 5
ENDMDL
MODEL      222
REMARK 921   NORMALIZED FREE ENERGY PREDICTED BY IDOCK:    8.74 KCAL/MOL
REMARK 922        TOTAL FREE ENERGY PREDICTED BY IDOCK:    9.06 KCAL/MOL
REMARK 923 INTER-LIGAND FREE ENERGY PREDICTED BY IDOCK:   -1.44 KCAL/MOL
REMARK 924 INTRA-LIGAND FREE ENERGY PREDICTED BY IDOCK:   10.50 KCAL/MOL
REMARK 927      BINDING AFFINITY PREDICTED BY RF-SCORE:    0.00 PKD
ROOT
HETATM    1  C   UNL     1      -6.814   9.595  69.378  1.00  0.00    -0.054 C  
HETATM    2  C   UNL     1      -8.256   9.631  69.794  1.00  0.00    -0.168 A  
HETATM    3  C   UNL     1      -9.212  10.258  68.987  1.00  0.00    -0.188 A  
HETATM    4  C   UNL     1     -10.559  10.351  69.383  1.00  0.00    -0.267 A  
HETATM    5  C   UNL     1     -11.523  11.055  68.466  1.00  0.00    -0.379 C  
HETATM    6  C   UNL     1     -10.952   9.799  70.621  1.00  0.00    -0.398 A  
HETATM    7  C   UNL     1      -9.997   9.151  71.421  1.00  0.00    -0.373 A  
HETATM    8  C   UNL     1      -8.660   9.070  71.010  1.00  0.00    -0.264 A  
ENDROOT
BRANCH   6   9
HETATM    9  C   UNL     1     -12.360   9.954  71.103  1.00  0.00    -0.370 C  
HETATM   10  O   UNL     1     -13.327  10.025  70.360  1.00  0.00    -0.122 OA 
BRANCH   9  11
HETATM   11  O   UNL     1     -12.412   9.980  72.460  1.00  0.00     0.044 OA 
BRANCH  11  12
HETATM   12  C   UNL     1     -11.189   9.582  73.107  1.00  0.00     3.931 C  
BRANCH  12  13
HETATM   13  C   UNL     1     -10.928   8.114  72.873  1.00  0.00    -0.307 A  
HETATM   14  C   UNL     1     -10.251   7.345  73.828  1.00  0.00    -0.321 A  
HETATM   15  C   UNL     1      -9.875   6.030  73.545  1.00  0.00    -0.171 A  
HETATM   16  C   UNL     1     -10.169   5.460  72.298  1.00  0.00    -0.244 A  
HETATM   17  C   UNL     1     -10.942   6.198  71.388  1.00  0.00    -0.334 A  
HETATM   18  C   UNL     1      -9.612   4.083  71.946  1.00  0.00    -0.217 C  
HETATM   19  C   UNL     1     -11.300   7.518  71.665  1.00  0.00    -0.283 A  
HETATM   20  C   UNL     1      -9.292   3.947  70.444  1.00  0.00    -0.161 C  
HETATM   21  C   UNL     1     -10.577   2.967  72.409  1.00  0.00     0.076 C  
HETATM   22  O   UNL     1      -9.860   3.103  69.751  1.00  0.00    -0.030 OA 
HETATM   23  N   UNL     1     -10.043   1.612  72.202  1.00  0.00    -0.141 NA 
HETATM   24  N   UNL     1      -8.359   4.864  69.971  1.00  0.00    -0.072 N  
HETATM   25  H1  UNL     1     -10.679   0.876  72.508  1.00  0.00     0.000 HD 
HETATM   26  H2  UNL     1      -9.131   1.511  72.647  1.00  0.00     0.000 HD 
HETATM   27  H   UNL     1      -7.991   5.544  70.638  1.00  0.00     0.000 HD 
BRANCH  24  28
HETATM   28  C   UNL     1      -7.877   4.932  68.642  1.00  0.00    -0.077 A  
HETATM   29  C   UNL     1      -7.654   3.793  67.865  1.00  0.00    -0.066 A  
HETATM   30  C   UNL     1      -7.216   3.896  66.545  1.00  0.00    -0.068 A  
HETATM   31  C   UNL     1      -6.976   5.150  65.974  1.00  0.00    -0.067 A  
HETATM   32  C   UNL     1      -6.548   5.299  64.653  1.00  0.00    -0.043 A  
HETATM   33  N   UNL     1      -6.286   6.486  64.064  1.00  0.00    -0.033 NA 
HETATM   34  C   UNL     1      -6.459   7.584  64.826  1.00  0.00    -0.041 A  
HETATM   35  C   UNL     1      -6.891   7.554  66.146  1.00  0.00    -0.061 A  
HETATM   36  C   UNL     1      -7.160   6.315  66.746  1.00  0.00    -0.073 A  
HETATM   37  C   UNL     1      -7.608   6.191  68.081  1.00  0.00    -0.098 A  
ENDBRANCH  24  28
ENDBRANCH  12  13
ENDBRANCH  11  12
ENDBRANCH   9  11
ENDBRANCH   6   9
TORSDOF 5
ENDMDL
MODEL      223
REMARK 921   NORMALIZED FREE ENERGY PREDICTED BY IDOCK:    8.87 KCAL/MOL
REMARK 922        TOTAL FREE ENERGY PREDICTED BY IDOCK:    9.24 KCAL/MOL
REMARK 923 INTER-LIGAND FREE ENERGY PREDICTED BY IDOCK:    0.89 KCAL/MOL
REMARK 924 INTRA-LIGAND FREE ENERGY PREDICTED BY IDOCK:    8.35 KCAL/MOL
REMARK 927      BINDING AFFINITY PREDICTED BY RF-SCORE:    0.00 PKD
ROOT
HETATM    1  C   UNL     1      -9.271  17.050  69.116  1.00  0.00    -0.073 C  
HETATM    2  C   UNL     1      -9.846  16.090  68.115  1.00  0.00    -0.222 A  
HETATM    3  C   UNL     1     -11.223  16.064  67.866  1.00  0.00    -0.276 A  
HETATM    4  C   UNL     1     -11.789  15.137  66.973  1.00  0.00    -0.026 A  
HETATM    5  C   UNL     1     -13.281  15.163  66.771  1.00  0.00     3.159 C  
HETATM    6  C   UNL     1     -10.949  14.214  66.314  1.00  0.00    -0.303 A  
HETATM    7  C   UNL     1      -9.564  14.253  66.548  1.00  0.00    -0.313 A  
HETATM    8  C   UNL     1      -9.019  15.183  67.443  1.00  0.00    -0.193 A  
ENDROOT
BRANCH   6   9
HETATM    9  C   UNL     1     -11.533  13.164  65.421  1.00  0.00    -0.304 C  
HETATM   10  O   UNL     1     -10.969  12.730  64.428  1.00  0.00    -0.319 OA 
BRANCH   9  11
HETATM   11  O   UNL     1     -12.745  12.755  65.875  1.00  0.00    -0.432 OA 
BRANCH  11  12
HETATM   12  C   UNL     1     -12.718  12.168  67.189  1.00  0.00     2.356 C  
BRANCH  12  13
HETATM   13  C   UNL     1     -11.339  11.638  67.497  1.00  0.00    -0.364 A  
HETATM   14  C   UNL     1     -10.269  11.872  66.623  1.00  0.00    -0.236 A  
HETATM   15  C   UNL     1      -9.034  11.254  66.830  1.00  0.00    -0.173 A  
HETATM   16  C   UNL     1      -8.846  10.388  67.916  1.00  0.00    -0.125 A  
HETATM   17  C   UNL     1      -9.887  10.243  68.847  1.00  0.00    -0.200 A  
HETATM   18  C   UNL     1      -7.546   9.596  68.036  1.00  0.00    -0.083 C  
HETATM   19  C   UNL     1     -11.126  10.846  68.629  1.00  0.00    -0.305 A  
HETATM   20  C   UNL     1      -7.761   8.210  68.676  1.00  0.00    -0.112 C  
HETATM   21  C   UNL     1      -6.483  10.406  68.813  1.00  0.00    -0.051 C  
HETATM   22  O   UNL     1      -7.204   7.909  69.731  1.00  0.00    -0.063 OA 
HETATM   23  N   UNL     1      -5.170   9.745  68.864  1.00  0.00    -0.036 NA 
HETATM   24  N   UNL     1      -8.641   7.388  67.980  1.00  0.00    -0.122 N  
HETATM   25  H1  UNL     1      -4.468  10.280  69.377  1.00  0.00     0.000 HD 
HETATM   26  H2  UNL     1      -4.841   9.523  67.924  1.00  0.00     0.000 HD 
HETATM   27  H   UNL     1      -9.073   7.770  67.138  1.00  0.00     0.000 HD 
BRANCH  24  28
HETATM   28  C   UNL     1      -8.985   6.064  68.343  1.00  0.00    -0.114 A  
HETATM   29  C   UNL     1      -9.840   5.272  67.573  1.00  0.00    -0.183 A  
HETATM   30  C   UNL     1     -10.128   3.957  67.939  1.00  0.00     0.252 A  
HETATM   31  C   UNL     1      -9.575   3.407  69.100  1.00  0.00    -0.125 A  
HETATM   32  C   UNL     1      -9.827   2.092  69.497  1.00  0.00     0.326 A  
HETATM   33  N   UNL     1      -9.332   1.523  70.618  1.00  0.00    -0.092 NA 
HETATM   34  C   UNL     1      -8.542   2.301  71.385  1.00  0.00    -0.063 A  
HETATM   35  C   UNL     1      -8.215   3.616  71.081  1.00  0.00    -0.077 A  
HETATM   36  C   UNL     1      -8.736   4.195  69.914  1.00  0.00    -0.114 A  
HETATM   37  C   UNL     1      -8.452   5.524  69.525  1.00  0.00    -0.105 A  
ENDBRANCH  24  28
ENDBRANCH  12  13
ENDBRANCH  11  12
ENDBRANCH   9  11
ENDBRANCH   6   9
TORSDOF 5
ENDMDL
MODEL      224
REMARK 921   NORMALIZED FREE ENERGY PREDICTED BY IDOCK:    9.22 KCAL/MOL
REMARK 922        TOTAL FREE ENERGY PREDICTED BY IDOCK:    9.68 KCAL/MOL
REMARK 923 INTER-LIGAND FREE ENERGY PREDICTED BY IDOCK:    6.55 KCAL/MOL
REMARK 924 INTRA-LIGAND FREE ENERGY PREDICTED BY IDOCK:    3.13 KCAL/MOL
REMARK 927      BINDING AFFINITY PREDICTED BY RF-SCORE:    0.00 PKD
ROOT
HETATM    1  C   UNL     1      -8.884   9.397  64.070  1.00  0.00    -0.210 C  
HETATM    2  C   UNL     1      -9.598  10.013  65.238  1.00  0.00    -0.355 A  
HETATM    3  C   UNL     1     -10.730  10.811  65.039  1.00  0.00    -0.160 A  
HETATM    4  C   UNL     1     -11.382  11.442  66.113  1.00  0.00    -0.115 A  
HETATM    5  C   UNL     1     -12.585  12.295  65.814  1.00  0.00     0.599 C  
HETATM    6  C   UNL     1     -10.881  11.265  67.421  1.00  0.00    -0.311 A  
HETATM    7  C   UNL     1      -9.756  10.448  67.624  1.00  0.00    -0.191 A  
HETATM    8  C   UNL     1      -9.120   9.829  66.540  1.00  0.00    -0.182 A  
ENDROOT
BRANCH   6   9
HETATM    9  C   UNL     1     -11.505  11.988  68.573  1.00  0.00    -0.293 C  
HETATM   10  O   UNL     1     -10.959  12.898  69.177  1.00  0.00    -0.217 OA 
BRANCH   9  11
HETATM   11  O   UNL     1     -12.751  11.514  68.832  1.00  0.00    -0.017 OA 
BRANCH  11  12
HETATM   12  C   UNL     1     -13.042  11.346  70.232  1.00  0.00     0.373 C  
BRANCH  12  13
HETATM   13  C   UNL     1     -12.892  12.661  70.957  1.00  0.00    -0.254 A  
HETATM   14  C   UNL     1     -14.017  13.369  71.399  1.00  0.00     0.336 A  
HETATM   15  C   UNL     1     -13.885  14.654  71.931  1.00  0.00    -0.544 A  
HETATM   16  C   UNL     1     -12.622  15.255  72.030  1.00  0.00    -0.429 A  
HETATM   17  C   UNL     1     -11.490  14.499  71.688  1.00  0.00     0.169 A  
HETATM   18  C   UNL     1     -12.512  16.716  72.461  1.00  0.00     0.274 C  
HETATM   19  C   UNL     1     -11.625  13.224  71.138  1.00  0.00     1.058 A  
HETATM   20  C   UNL     1     -11.334  17.440  71.779  1.00  0.00     1.681 C  
HETATM   21  C   UNL     1     -12.414  16.826  74.000  1.00  0.00    -0.116 C  
HETATM   22  O   UNL     1     -10.417  17.921  72.446  1.00  0.00     3.335 OA 
HETATM   23  N   UNL     1     -12.421  18.215  74.486  1.00  0.00     1.391 NA 
HETATM   24  N   UNL     1     -11.400  17.460  70.390  1.00  0.00     0.710 N  
HETATM   25  H1  UNL     1     -12.357  18.287  75.501  1.00  0.00     0.000 HD 
HETATM   26  H2  UNL     1     -13.239  18.715  74.138  1.00  0.00     0.000 HD 
HETATM   27  H   UNL     1     -12.191  16.989  69.952  1.00  0.00     0.000 HD 
BRANCH  24  28
HETATM   28  C   UNL     1     -10.460  18.083  69.534  1.00  0.00     0.455 A  
HETATM   29  C   UNL     1     -10.839  18.812  68.405  1.00  0.00     0.233 A  
HETATM   30  C   UNL     1      -9.889  19.446  67.605  1.00  0.00    -0.450 A  
HETATM   31  C   UNL     1      -8.528  19.350  67.910  1.00  0.00    -0.348 A  
HETATM   32  C   UNL     1      -7.544  19.978  67.143  1.00  0.00    -0.287 A  
HETATM   33  N   UNL     1      -6.217  19.899  67.387  1.00  0.00    -0.188 NA 
HETATM   34  C   UNL     1      -5.847  19.158  68.451  1.00  0.00    -0.210 A  
HETATM   35  C   UNL     1      -6.739  18.501  69.288  1.00  0.00    -0.252 A  
HETATM   36  C   UNL     1      -8.114  18.591  69.024  1.00  0.00    -0.126 A  
HETATM   37  C   UNL     1      -9.092  17.959  69.826  1.00  0.00     1.192 A  
ENDBRANCH  24  28
ENDBRANCH  12  13
ENDBRANCH  11  12
ENDBRANCH   9  11
ENDBRANCH   6   9
TORSDOF 5
ENDMDL
MODEL      225
REMARK 921   NORMALIZED FREE ENERGY PREDICTED BY IDOCK:    9.66 KCAL/MOL
REMARK 922        TOTAL FREE ENERGY PREDICTED BY IDOCK:   10.26 KCAL/MOL
REMARK 923 INTER-LIGAND FREE ENERGY PREDICTED BY IDOCK:    6.96 KCAL/MOL
REMARK 924 INTRA-LIGAND FREE ENERGY PREDICTED BY IDOCK:    3.30 KCAL/MOL
REMARK 927      BINDING AFFINITY PREDICTED BY RF-SCORE:    0.00 PKD
ROOT
HETATM    1  C   UNL     1      -6.127  18.361  64.588  1.00  0.00     0.201 C  
HETATM    2  C   UNL     1      -7.024  18.111  65.766  1.00  0.00    -0.279 A  
HETATM    3  C   UNL     1      -7.543  16.833  66.003  1.00  0.00     0.018 A  
HETATM    4  C   UNL     1      -8.428  16.587  67.068  1.00  0.00    -0.225 A  
HETATM    5  C   UNL     1      -8.954  15.188  67.249  1.00  0.00    -0.213 C  
HETATM    6  C   UNL     1      -8.800  17.654  67.914  1.00  0.00    -0.246 A  
HETATM    7  C   UNL     1      -8.263  18.933  67.688  1.00  0.00    -0.290 A  
HETATM    8  C   UNL     1      -7.384  19.158  66.621  1.00  0.00    -0.234 A  
ENDROOT
BRANCH   6   9
HETATM    9  C   UNL     1      -9.802  17.440  69.005  1.00  0.00    -0.230 C  
HETATM   10  O   UNL     1     -10.789  18.140  69.165  1.00  0.00     0.321 OA 
BRANCH   9  11
HETATM   11  O   UNL     1      -9.475  16.362  69.765  1.00  0.00     0.011 OA 
BRANCH  11  12
HETATM   12  C   UNL     1     -10.047  15.122  69.309  1.00  0.00    -0.246 C  
BRANCH  12  13
HETATM   13  C   UNL     1      -9.153  13.965  69.685  1.00  0.00     1.155 A  
HETATM   14  C   UNL     1      -7.769  14.140  69.814  1.00  0.00     0.500 A  
HETATM   15  C   UNL     1      -6.929  13.042  70.009  1.00  0.00     0.655 A  
HETATM   16  C   UNL     1      -7.458  11.746  70.078  1.00  0.00     1.260 A  
HETATM   17  C   UNL     1      -8.853  11.589  70.058  1.00  0.00     2.316 A  
HETATM   18  C   UNL     1      -6.516  10.546  70.129  1.00  0.00    -0.144 C  
HETATM   19  C   UNL     1      -9.690  12.684  69.843  1.00  0.00     2.490 A  
HETATM   20  C   UNL     1      -7.098   9.314  69.408  1.00  0.00    -0.053 C  
HETATM   21  C   UNL     1      -6.141  10.206  71.590  1.00  0.00     0.373 C  
HETATM   22  O   UNL     1      -7.309   8.266  70.018  1.00  0.00    -0.061 OA 
HETATM   23  N   UNL     1      -5.144   9.131  71.701  1.00  0.00    -0.039 NA 
HETATM   24  N   UNL     1      -7.377   9.517  68.060  1.00  0.00    -0.082 N  
HETATM   25  H1  UNL     1      -4.896   8.907  72.664  1.00  0.00     0.000 HD 
HETATM   26  H2  UNL     1      -4.311   9.352  71.154  1.00  0.00     0.000 HD 
HETATM   27  H   UNL     1      -7.198  10.446  67.680  1.00  0.00     0.000 HD 
BRANCH  24  28
HETATM   28  C   UNL     1      -7.891   8.540  67.174  1.00  0.00    -0.097 A  
HETATM   29  C   UNL     1      -8.727   8.862  66.104  1.00  0.00    -0.177 A  
HETATM   30  C   UNL     1      -9.184   7.880  65.225  1.00  0.00     0.375 A  
HETATM   31  C   UNL     1      -8.824   6.541  65.410  1.00  0.00     0.050 A  
HETATM   32  C   UNL     1      -9.250   5.528  64.549  1.00  0.00     0.404 A  
HETATM   33  N   UNL     1      -8.944   4.220  64.696  1.00  0.00    -0.140 NA 
HETATM   34  C   UNL     1      -8.172   3.901  65.755  1.00  0.00    -0.105 A  
HETATM   35  C   UNL     1      -7.684   4.828  66.667  1.00  0.00    -0.095 A  
HETATM   36  C   UNL     1      -8.009   6.182  66.503  1.00  0.00    -0.105 A  
HETATM   37  C   UNL     1      -7.552   7.192  67.380  1.00  0.00    -0.109 A  
ENDBRANCH  24  28
ENDBRANCH  12  13
ENDBRANCH  11  12
ENDBRANCH   9  11
ENDBRANCH   6   9
TORSDOF 5
ENDMDL
MODEL      226
REMARK 921   NORMALIZED FREE ENERGY PREDICTED BY IDOCK:   10.05 KCAL/MOL
REMARK 922        TOTAL FREE ENERGY PREDICTED BY IDOCK:   10.76 KCAL/MOL
REMARK 923 INTER-LIGAND FREE ENERGY PREDICTED BY IDOCK:    3.89 KCAL/MOL
REMARK 924 INTRA-LIGAND FREE ENERGY PREDICTED BY IDOCK:    6.86 KCAL/MOL
REMARK 927      BINDING AFFINITY PREDICTED BY RF-SCORE:    0.00 PKD
ROOT
HETATM    1  C   UNL     1     -11.322   7.759  72.682  1.00  0.00    -0.449 C  
HETATM    2  C   UNL     1     -10.323   6.764  72.165  1.00  0.00    -0.221 A  
HETATM    3  C   UNL     1     -10.684   5.849  71.170  1.00  0.00    -0.328 A  
HETATM    4  C   UNL     1      -9.782   4.873  70.709  1.00  0.00    -0.268 A  
HETATM    5  C   UNL     1     -10.251   3.915  69.646  1.00  0.00     0.594 C  
HETATM    6  C   UNL     1      -8.486   4.817  71.264  1.00  0.00    -0.113 A  
HETATM    7  C   UNL     1      -8.117   5.749  72.249  1.00  0.00    -0.107 A  
HETATM    8  C   UNL     1      -9.030   6.713  72.695  1.00  0.00    -0.136 A  
ENDROOT
BRANCH   6   9
HETATM    9  C   UNL     1      -7.532   3.740  70.851  1.00  0.00    -0.040 C  
HETATM   10  O   UNL     1      -7.879   2.695  70.323  1.00  0.00    -0.043 OA 
BRANCH   9  11
HETATM   11  O   UNL     1      -6.249   4.093  71.120  1.00  0.00    -0.014 OA 
BRANCH  11  12
HETATM   12  C   UNL     1      -5.548   4.673  70.004  1.00  0.00    -0.012 C  
BRANCH  12  13
HETATM   13  C   UNL     1      -6.433   4.690  68.783  1.00  0.00    -0.037 A  
HETATM   14  C   UNL     1      -5.895   4.499  67.504  1.00  0.00    -0.023 A  
HETATM   15  C   UNL     1      -6.687   4.668  66.366  1.00  0.00    -0.053 A  
HETATM   16  C   UNL     1      -8.036   5.032  66.488  1.00  0.00    -0.107 A  
HETATM   17  C   UNL     1      -8.596   5.114  67.772  1.00  0.00    -0.103 A  
HETATM   18  C   UNL     1      -8.843   5.370  65.237  1.00  0.00    -0.132 C  
HETATM   19  C   UNL     1      -7.798   4.964  68.907  1.00  0.00    -0.077 A  
HETATM   20  C   UNL     1      -9.902   6.460  65.500  1.00  0.00     0.865 C  
HETATM   21  C   UNL     1      -9.494   4.098  64.646  1.00  0.00    -0.168 C  
HETATM   22  O   UNL     1     -11.100   6.228  65.340  1.00  0.00     2.333 OA 
HETATM   23  N   UNL     1     -10.192   4.338  63.373  1.00  0.00    -0.396 NA 
HETATM   24  N   UNL     1      -9.380   7.668  65.950  1.00  0.00    -0.398 N  
HETATM   25  H1  UNL     1     -10.621   3.498  62.983  1.00  0.00     0.000 HD 
HETATM   26  H2  UNL     1      -9.567   4.774  62.695  1.00  0.00     0.000 HD 
HETATM   27  H   UNL     1      -8.371   7.721  66.084  1.00  0.00     0.000 HD 
BRANCH  24  28
HETATM   28  C   UNL     1     -10.136   8.830  66.237  1.00  0.00    -0.184 A  
HETATM   29  C   UNL     1     -11.333   8.789  66.955  1.00  0.00     1.538 A  
HETATM   30  C   UNL     1     -12.034   9.957  67.254  1.00  0.00     3.113 A  
HETATM   31  C   UNL     1     -11.556  11.199  66.825  1.00  0.00     0.175 A  
HETATM   32  C   UNL     1     -12.220  12.394  67.113  1.00  0.00     0.239 A  
HETATM   33  N   UNL     1     -11.808  13.615  66.705  1.00  0.00    -0.389 NA 
HETATM   34  C   UNL     1     -10.676  13.651  65.974  1.00  0.00    -0.280 A  
HETATM   35  C   UNL     1      -9.931  12.528  65.639  1.00  0.00    -0.259 A  
HETATM   36  C   UNL     1     -10.369  11.267  66.069  1.00  0.00    -0.302 A  
HETATM   37  C   UNL     1      -9.670  10.073  65.779  1.00  0.00    -0.321 A  
ENDBRANCH  24  28
ENDBRANCH  12  13
ENDBRANCH  11  12
ENDBRANCH   9  11
ENDBRANCH   6   9
TORSDOF 5
ENDMDL
MODEL      227
REMARK 921   NORMALIZED FREE ENERGY PREDICTED BY IDOCK:   10.61 KCAL/MOL
REMARK 922        TOTAL FREE ENERGY PREDICTED BY IDOCK:   11.49 KCAL/MOL
REMARK 923 INTER-LIGAND FREE ENERGY PREDICTED BY IDOCK:    2.54 KCAL/MOL
REMARK 924 INTRA-LIGAND FREE ENERGY PREDICTED BY IDOCK:    8.95 KCAL/MOL
REMARK 927      BINDING AFFINITY PREDICTED BY RF-SCORE:    0.00 PKD
ROOT
HETATM    1  C   UNL     1     -13.322  12.068  70.656  1.00  0.00     0.807 C  
HETATM    2  C   UNL     1     -12.336  12.789  69.783  1.00  0.00    -0.096 A  
HETATM    3  C   UNL     1     -12.435  14.172  69.592  1.00  0.00    -0.207 A  
HETATM    4  C   UNL     1     -11.556  14.859  68.736  1.00  0.00    -0.348 A  
HETATM    5  C   UNL     1     -11.737  16.345  68.572  1.00  0.00     0.020 C  
HETATM    6  C   UNL     1     -10.553  14.136  68.055  1.00  0.00    -0.241 A  
HETATM    7  C   UNL     1     -10.440  12.751  68.262  1.00  0.00    -0.250 A  
HETATM    8  C   UNL     1     -11.326  12.085  69.118  1.00  0.00    -0.338 A  
ENDROOT
BRANCH   6   9
HETATM    9  C   UNL     1      -9.655  14.827  67.077  1.00  0.00    -0.241 C  
HETATM   10  O   UNL     1      -9.042  14.248  66.194  1.00  0.00    -0.148 OA 
BRANCH   9  11
HETATM   11  O   UNL     1      -9.637  16.168  67.293  1.00  0.00    -0.226 OA 
BRANCH  11  12
HETATM   12  C   UNL     1      -8.930  16.567  68.482  1.00  0.00    -0.231 C  
BRANCH  12  13
HETATM   13  C   UNL     1      -8.277  15.370  69.128  1.00  0.00    -0.243 A  
HETATM   14  C   UNL     1      -6.883  15.249  69.173  1.00  0.00    -0.138 A  
HETATM   15  C   UNL     1      -6.285  14.073  69.631  1.00  0.00    -0.127 A  
HETATM   16  C   UNL     1      -7.073  12.994  70.054  1.00  0.00     0.852 A  
HETATM   17  C   UNL     1      -8.466  13.161  70.110  1.00  0.00     3.602 A  
HETATM   18  C   UNL     1      -6.410  11.662  70.398  1.00  0.00     0.134 C  
HETATM   19  C   UNL     1      -9.062  14.329  69.634  1.00  0.00     0.719 A  
HETATM   20  C   UNL     1      -7.302  10.455  70.043  1.00  0.00    -0.111 C  
HETATM   21  C   UNL     1      -5.996  11.626  71.887  1.00  0.00     1.645 C  
HETATM   22  O   UNL     1      -7.681   9.673  70.915  1.00  0.00    -0.314 OA 
HETATM   23  N   UNL     1      -5.248  10.414  72.255  1.00  0.00    -0.300 NA 
HETATM   24  N   UNL     1      -7.643  10.370  68.698  1.00  0.00    -0.086 N  
HETATM   25  H1  UNL     1      -4.975  10.390  73.237  1.00  0.00     0.000 HD 
HETATM   26  H2  UNL     1      -4.436  10.293  71.649  1.00  0.00     0.000 HD 
HETATM   27  H   UNL     1      -7.300  11.107  68.080  1.00  0.00     0.000 HD 
BRANCH  24  28
HETATM   28  C   UNL     1      -8.427   9.346  68.115  1.00  0.00    -0.120 A  
HETATM   29  C   UNL     1      -9.309   9.584  67.059  1.00  0.00    -0.183 A  
HETATM   30  C   UNL     1     -10.038   8.545  66.481  1.00  0.00    -0.328 A  
HETATM   31  C   UNL     1      -9.911   7.238  66.962  1.00  0.00    -0.265 A  
HETATM   32  C   UNL     1     -10.613   6.166  66.405  1.00  0.00    -0.037 A  
HETATM   33  N   UNL     1     -10.538   4.891  66.846  1.00  0.00    -0.147 NA 
HETATM   34  C   UNL     1      -9.720   4.668  67.894  1.00  0.00    -0.143 A  
HETATM   35  C   UNL     1      -8.967   5.655  68.517  1.00  0.00    -0.115 A  
HETATM   36  C   UNL     1      -9.054   6.975  68.049  1.00  0.00    -0.127 A  
HETATM   37  C   UNL     1      -8.320   8.040  68.619  1.00  0.00    -0.127 A  
ENDBRANCH  24  28
ENDBRANCH  12  13
ENDBRANCH  11  12
ENDBRANCH   9  11
ENDBRANCH   6   9
TORSDOF 5
ENDMDL
MODEL      228
REMARK 921   NORMALIZED FREE ENERGY PREDICTED BY IDOCK:   10.85 KCAL/MOL
REMARK 922        TOTAL FREE ENERGY PREDICTED BY IDOCK:   11.79 KCAL/MOL
REMARK 923 INTER-LIGAND FREE ENERGY PREDICTED BY IDOCK:    6.08 KCAL/MOL
REMARK 924 INTRA-LIGAND FREE ENERGY PREDICTED BY IDOCK:    5.71 KCAL/MOL
REMARK 927      BINDING AFFINITY PREDICTED BY RF-SCORE:    0.00 PKD
ROOT
HETATM    1  C   UNL     1     -11.245  14.457  72.484  1.00  0.00     1.514 C  
HETATM    2  C   UNL     1     -11.401  14.204  71.012  1.00  0.00     0.384 A  
HETATM    3  C   UNL     1     -10.288  13.893  70.224  1.00  0.00     1.434 A  
HETATM    4  C   UNL     1     -10.402  13.705  68.835  1.00  0.00    -0.127 A  
HETATM    5  C   UNL     1      -9.155  13.387  68.054  1.00  0.00    -0.205 C  
HETATM    6  C   UNL     1     -11.668  13.834  68.225  1.00  0.00    -0.394 A  
HETATM    7  C   UNL     1     -12.790  14.127  69.019  1.00  0.00     0.914 A  
HETATM    8  C   UNL     1     -12.655  14.311  70.401  1.00  0.00    -0.405 A  
ENDROOT
BRANCH   6   9
HETATM    9  C   UNL     1     -11.806  13.720  66.739  1.00  0.00    -0.420 C  
HETATM   10  O   UNL     1     -11.090  13.015  66.045  1.00  0.00    -0.274 OA 
BRANCH   9  11
HETATM   11  O   UNL     1     -12.836  14.478  66.283  1.00  0.00    -0.086 OA 
BRANCH  11  12
HETATM   12  C   UNL     1     -12.848  15.826  66.789  1.00  0.00     3.011 C  
BRANCH  12  13
HETATM   13  C   UNL     1     -11.439  16.300  67.047  1.00  0.00     0.434 A  
HETATM   14  C   UNL     1     -10.584  16.622  65.985  1.00  0.00    -0.238 A  
HETATM   15  C   UNL     1      -9.238  16.911  66.217  1.00  0.00    -0.299 A  
HETATM   16  C   UNL     1      -8.720  16.882  67.520  1.00  0.00    -0.214 A  
HETATM   17  C   UNL     1      -9.604  16.666  68.589  1.00  0.00    -0.248 A  
HETATM   18  C   UNL     1      -7.218  17.040  67.740  1.00  0.00    -0.165 C  
HETATM   19  C   UNL     1     -10.945  16.359  68.353  1.00  0.00    -0.353 A  
HETATM   20  C   UNL     1      -6.714  16.222  68.946  1.00  0.00    -0.156 C  
HETATM   21  C   UNL     1      -6.840  18.532  67.886  1.00  0.00    -0.219 C  
HETATM   22  O   UNL     1      -6.188  16.778  69.910  1.00  0.00    -0.224 OA 
HETATM   23  N   UNL     1      -5.390  18.759  67.985  1.00  0.00    -0.174 NA 
HETATM   24  N   UNL     1      -6.938  14.853  68.845  1.00  0.00    -0.105 N  
HETATM   25  H1  UNL     1      -5.141  19.744  68.081  1.00  0.00     0.000 HD 
HETATM   26  H2  UNL     1      -4.903  18.337  67.195  1.00  0.00     0.000 HD 
HETATM   27  H   UNL     1      -7.423  14.519  68.012  1.00  0.00     0.000 HD 
BRANCH  24  28
HETATM   28  C   UNL     1      -6.548  13.887  69.803  1.00  0.00    -0.054 A  
HETATM   29  C   UNL     1      -6.291  12.556  69.465  1.00  0.00    -0.112 A  
HETATM   30  C   UNL     1      -5.870  11.638  70.427  1.00  0.00    -0.156 A  
HETATM   31  C   UNL     1      -5.713  12.030  71.759  1.00  0.00     0.813 A  
HETATM   32  C   UNL     1      -5.283  11.146  72.752  1.00  0.00     0.539 A  
HETATM   33  N   UNL     1      -5.133  11.472  74.055  1.00  0.00    -0.317 NA 
HETATM   34  C   UNL     1      -5.424  12.745  74.390  1.00  0.00     0.392 A  
HETATM   35  C   UNL     1      -5.848  13.710  73.484  1.00  0.00     0.409 A  
HETATM   36  C   UNL     1      -5.999  13.357  72.135  1.00  0.00     0.858 A  
HETATM   37  C   UNL     1      -6.420  14.276  71.146  1.00  0.00     0.323 A  
ENDBRANCH  24  28
ENDBRANCH  12  13
ENDBRANCH  11  12
ENDBRANCH   9  11
ENDBRANCH   6   9
TORSDOF 5
ENDMDL
MODEL      229
REMARK 921   NORMALIZED FREE ENERGY PREDICTED BY IDOCK:   11.00 KCAL/MOL
REMARK 922        TOTAL FREE ENERGY PREDICTED BY IDOCK:   11.99 KCAL/MOL
REMARK 923 INTER-LIGAND FREE ENERGY PREDICTED BY IDOCK:    3.20 KCAL/MOL
REMARK 924 INTRA-LIGAND FREE ENERGY PREDICTED BY IDOCK:    8.80 KCAL/MOL
REMARK 927      BINDING AFFINITY PREDICTED BY RF-SCORE:    0.00 PKD
ROOT
HETATM    1  C   UNL     1     -12.002  19.091  65.812  1.00  0.00     4.032 C  
HETATM    2  C   UNL     1     -10.691  19.049  66.541  1.00  0.00    -0.412 A  
HETATM    3  C   UNL     1      -9.487  18.966  65.831  1.00  0.00     0.088 A  
HETATM    4  C   UNL     1      -8.250  18.870  66.494  1.00  0.00    -0.306 A  
HETATM    5  C   UNL     1      -7.001  18.771  65.659  1.00  0.00    -0.260 C  
HETATM    6  C   UNL     1      -8.225  18.856  67.905  1.00  0.00    -0.305 A  
HETATM    7  C   UNL     1      -9.431  18.959  68.618  1.00  0.00    -0.427 A  
HETATM    8  C   UNL     1     -10.653  19.053  67.939  1.00  0.00    -0.441 A  
ENDROOT
BRANCH   6   9
HETATM    9  C   UNL     1      -6.931  18.674  68.636  1.00  0.00    -0.277 C  
HETATM   10  O   UNL     1      -5.859  18.493  68.079  1.00  0.00    -0.174 OA 
BRANCH   9  11
HETATM   11  O   UNL     1      -7.112  18.759  69.979  1.00  0.00     0.252 OA 
BRANCH  11  12
HETATM   12  C   UNL     1      -7.957  17.732  70.529  1.00  0.00     3.943 C  
BRANCH  12  13
HETATM   13  C   UNL     1      -8.575  16.915  69.421  1.00  0.00     0.254 A  
HETATM   14  C   UNL     1      -9.964  16.758  69.336  1.00  0.00    -0.140 A  
HETATM   15  C   UNL     1     -10.524  15.879  68.405  1.00  0.00    -0.254 A  
HETATM   16  C   UNL     1      -9.703  15.140  67.542  1.00  0.00    -0.205 A  
HETATM   17  C   UNL     1      -8.321  15.384  67.559  1.00  0.00    -0.190 A  
HETATM   18  C   UNL     1     -10.319  14.068  66.646  1.00  0.00    -0.278 C  
HETATM   19  C   UNL     1      -7.761  16.247  68.502  1.00  0.00    -0.189 A  
HETATM   20  C   UNL     1      -9.368  12.875  66.423  1.00  0.00    -0.187 C  
HETATM   21  C   UNL     1     -10.770  14.676  65.298  1.00  0.00    -0.381 C  
HETATM   22  O   UNL     1      -8.980  12.580  65.293  1.00  0.00     0.456 OA 
HETATM   23  N   UNL     1     -11.477  13.717  64.435  1.00  0.00    -0.442 NA 
HETATM   24  N   UNL     1      -8.988  12.219  67.589  1.00  0.00    -0.172 N  
HETATM   25  H1  UNL     1     -11.775  14.118  63.545  1.00  0.00     0.000 HD 
HETATM   26  H2  UNL     1     -12.266  13.300  64.927  1.00  0.00     0.000 HD 
HETATM   27  H   UNL     1      -9.345  12.587  68.471  1.00  0.00     0.000 HD 
BRANCH  24  28
HETATM   28  C   UNL     1      -8.146  11.083  67.652  1.00  0.00    -0.116 A  
HETATM   29  C   UNL     1      -6.866  11.125  68.208  1.00  0.00    -0.068 A  
HETATM   30  C   UNL     1      -6.078   9.978  68.290  1.00  0.00    -0.045 A  
HETATM   31  C   UNL     1      -6.550   8.757  67.799  1.00  0.00    -0.061 A  
HETATM   32  C   UNL     1      -5.799   7.582  67.871  1.00  0.00    -0.035 A  
HETATM   33  N   UNL     1      -6.204   6.384  67.394  1.00  0.00    -0.031 NA 
HETATM   34  C   UNL     1      -7.422   6.351  66.817  1.00  0.00    -0.087 A  
HETATM   35  C   UNL     1      -8.258   7.455  66.701  1.00  0.00    -0.125 A  
HETATM   36  C   UNL     1      -7.825   8.692  67.200  1.00  0.00    -0.097 A  
HETATM   37  C   UNL     1      -8.612   9.864  67.130  1.00  0.00    -0.125 A  
ENDBRANCH  24  28
ENDBRANCH  12  13
ENDBRANCH  11  12
ENDBRANCH   9  11
ENDBRANCH   6   9
TORSDOF 5
ENDMDL
MODEL      230
REMARK 921   NORMALIZED FREE ENERGY PREDICTED BY IDOCK:   11.71 KCAL/MOL
REMARK 922        TOTAL FREE ENERGY PREDICTED BY IDOCK:   12.91 KCAL/MOL
REMARK 923 INTER-LIGAND FREE ENERGY PREDICTED BY IDOCK:   -0.50 KCAL/MOL
REMARK 924 INTRA-LIGAND FREE ENERGY PREDICTED BY IDOCK:   13.41 KCAL/MOL
REMARK 927      BINDING AFFINITY PREDICTED BY RF-SCORE:    0.00 PKD
ROOT
HETATM    1  C   UNL     1     -12.831  12.887  70.623  1.00  0.00    -0.048 C  
HETATM    2  C   UNL     1     -12.068  13.782  69.690  1.00  0.00    -0.392 A  
HETATM    3  C   UNL     1     -12.507  15.086  69.440  1.00  0.00    -0.076 A  
HETATM    4  C   UNL     1     -11.839  15.923  68.528  1.00  0.00    -0.197 A  
HETATM    5  C   UNL     1     -12.383  17.309  68.303  1.00  0.00     2.897 C  
HETATM    6  C   UNL     1     -10.702  15.434  67.851  1.00  0.00    -0.286 A  
HETATM    7  C   UNL     1     -10.248  14.131  68.117  1.00  0.00    -0.241 A  
HETATM    8  C   UNL     1     -10.928  13.313  69.028  1.00  0.00    -0.249 A  
ENDROOT
BRANCH   6   9
HETATM    9  C   UNL     1     -10.019  16.273  66.816  1.00  0.00    -0.261 C  
HETATM   10  O   UNL     1      -9.379  15.811  65.885  1.00  0.00    -0.333 OA 
BRANCH   9  11
HETATM   11  O   UNL     1     -10.228  17.595  67.043  1.00  0.00    -0.309 OA 
BRANCH  11  12
HETATM   12  C   UNL     1      -9.672  18.079  68.280  1.00  0.00    -0.330 C  
BRANCH  12  13
HETATM   13  C   UNL     1      -8.844  17.002  68.937  1.00  0.00    -0.206 A  
HETATM   14  C   UNL     1      -7.471  17.180  69.148  1.00  0.00    -0.147 A  
HETATM   15  C   UNL     1      -6.680  16.127  69.614  1.00  0.00    -0.165 A  
HETATM   16  C   UNL     1      -7.250  14.874  69.877  1.00  0.00    -0.069 A  
HETATM   17  C   UNL     1      -8.642  14.733  69.768  1.00  0.00     0.301 A  
HETATM   18  C   UNL     1      -6.349  13.693  70.228  1.00  0.00    -0.003 C  
HETATM   19  C   UNL     1      -9.428  15.780  69.284  1.00  0.00    -0.270 A  
HETATM   20  C   UNL     1      -6.905  12.355  69.701  1.00  0.00     0.149 C  
HETATM   21  C   UNL     1      -6.103  13.627  71.753  1.00  0.00     0.599 C  
HETATM   22  O   UNL     1      -7.194  11.442  70.475  1.00  0.00     0.557 OA 
HETATM   23  N   UNL     1      -5.148  12.579  72.145  1.00  0.00    -0.366 NA 
HETATM   24  N   UNL     1      -7.070  12.306  68.321  1.00  0.00    -0.085 N  
HETATM   25  H1  UNL     1      -4.986  12.536  73.151  1.00  0.00     0.000 HD 
HETATM   26  H2  UNL     1      -4.269  12.684  71.640  1.00  0.00     0.000 HD 
HETATM   27  H   UNL     1      -6.834  13.145  67.791  1.00  0.00     0.000 HD 
BRANCH  24  28
HETATM   28  C   UNL     1      -7.537  11.187  67.591  1.00  0.00    -0.105 A  
HETATM   29  C   UNL     1      -8.798  11.155  66.991  1.00  0.00    -0.149 A  
HETATM   30  C   UNL     1      -9.213  10.052  66.246  1.00  0.00    -0.199 A  
HETATM   31  C   UNL     1      -8.374   8.942  66.096  1.00  0.00    -0.125 A  
HETATM   32  C   UNL     1      -8.745   7.822  65.349  1.00  0.00    -0.020 A  
HETATM   33  N   UNL     1      -7.979   6.720  65.190  1.00  0.00    -0.123 NA 
HETATM   34  C   UNL     1      -6.780   6.732  65.805  1.00  0.00    -0.052 A  
HETATM   35  C   UNL     1      -6.305   7.796  66.562  1.00  0.00    -0.046 A  
HETATM   36  C   UNL     1      -7.111   8.933  66.719  1.00  0.00    -0.081 A  
HETATM   37  C   UNL     1      -6.705  10.062  67.467  1.00  0.00    -0.072 A  
ENDBRANCH  24  28
ENDBRANCH  12  13
ENDBRANCH  11  12
ENDBRANCH   9  11
ENDBRANCH   6   9
TORSDOF 5
ENDMDL
MODEL      231
REMARK 921   NORMALIZED FREE ENERGY PREDICTED BY IDOCK:   12.03 KCAL/MOL
REMARK 922        TOTAL FREE ENERGY PREDICTED BY IDOCK:   13.32 KCAL/MOL
REMARK 923 INTER-LIGAND FREE ENERGY PREDICTED BY IDOCK:   10.13 KCAL/MOL
REMARK 924 INTRA-LIGAND FREE ENERGY PREDICTED BY IDOCK:    3.18 KCAL/MOL
REMARK 927      BINDING AFFINITY PREDICTED BY RF-SCORE:    0.00 PKD
ROOT
HETATM    1  C   UNL     1      -6.966  19.019  63.693  1.00  0.00     4.011 C  
HETATM    2  C   UNL     1      -7.854  18.798  64.884  1.00  0.00     2.379 A  
HETATM    3  C   UNL     1      -8.391  17.533  65.143  1.00  0.00     2.669 A  
HETATM    4  C   UNL     1      -9.268  17.315  66.220  1.00  0.00    -0.243 A  
HETATM    5  C   UNL     1      -9.815  15.927  66.425  1.00  0.00    -0.302 C  
HETATM    6  C   UNL     1      -9.613  18.398  67.057  1.00  0.00    -0.301 A  
HETATM    7  C   UNL     1      -9.058  19.665  66.809  1.00  0.00    -0.424 A  
HETATM    8  C   UNL     1      -8.187  19.861  65.729  1.00  0.00    -0.116 A  
ENDROOT
BRANCH   6   9
HETATM    9  C   UNL     1     -10.606  18.213  68.161  1.00  0.00    -0.302 C  
HETATM   10  O   UNL     1     -11.583  18.928  68.320  1.00  0.00     1.095 OA 
BRANCH   9  11
HETATM   11  O   UNL     1     -10.285  17.144  68.935  1.00  0.00    -0.299 OA 
BRANCH  11  12
HETATM   12  C   UNL     1     -10.880  15.905  68.508  1.00  0.00    -0.298 C  
BRANCH  12  13
HETATM   13  C   UNL     1     -10.004  14.741  68.903  1.00  0.00    -0.233 A  
HETATM   14  C   UNL     1      -8.776  14.952  69.543  1.00  0.00     0.018 A  
HETATM   15  C   UNL     1      -7.900  13.888  69.768  1.00  0.00     0.823 A  
HETATM   16  C   UNL     1      -8.237  12.591  69.357  1.00  0.00     0.998 A  
HETATM   17  C   UNL     1      -9.513  12.369  68.816  1.00  0.00     0.087 A  
HETATM   18  C   UNL     1      -7.204  11.472  69.463  1.00  0.00     0.066 C  
HETATM   19  C   UNL     1     -10.379  13.435  68.573  1.00  0.00    -0.240 A  
HETATM   20  C   UNL     1      -7.342  10.437  68.328  1.00  0.00    -0.088 C  
HETATM   21  C   UNL     1      -7.280  10.788  70.848  1.00  0.00     1.744 C  
HETATM   22  O   UNL     1      -7.591   9.257  68.576  1.00  0.00    -0.083 OA 
HETATM   23  N   UNL     1      -6.232   9.776  71.056  1.00  0.00    -0.187 NA 
HETATM   24  N   UNL     1      -7.195  10.966  67.050  1.00  0.00    -0.107 N  
HETATM   25  H1  UNL     1      -6.282   9.325  71.970  1.00  0.00     0.000 HD 
HETATM   26  H2  UNL     1      -5.307  10.176  70.900  1.00  0.00     0.000 HD 
HETATM   27  H   UNL     1      -7.033  11.970  66.974  1.00  0.00     0.000 HD 
BRANCH  24  28
HETATM   28  C   UNL     1      -7.251  10.224  65.846  1.00  0.00    -0.131 A  
HETATM   29  C   UNL     1      -7.291  10.832  64.590  1.00  0.00     0.306 A  
HETATM   30  C   UNL     1      -7.306  10.072  63.421  1.00  0.00    -0.137 A  
HETATM   31  C   UNL     1      -7.297   8.675  63.485  1.00  0.00    -0.101 A  
HETATM   32  C   UNL     1      -7.301   7.875  62.340  1.00  0.00    -0.099 A  
HETATM   33  N   UNL     1      -7.311   6.524  62.351  1.00  0.00    -0.056 NA 
HETATM   34  C   UNL     1      -7.318   5.935  63.563  1.00  0.00    -0.064 A  
HETATM   35  C   UNL     1      -7.304   6.631  64.765  1.00  0.00    -0.084 A  
HETATM   36  C   UNL     1      -7.293   8.034  64.740  1.00  0.00    -0.082 A  
HETATM   37  C   UNL     1      -7.273   8.821  65.914  1.00  0.00    -0.084 A  
ENDBRANCH  24  28
ENDBRANCH  12  13
ENDBRANCH  11  12
ENDBRANCH   9  11
ENDBRANCH   6   9
TORSDOF 5
ENDMDL
MODEL      232
REMARK 921   NORMALIZED FREE ENERGY PREDICTED BY IDOCK:   12.14 KCAL/MOL
REMARK 922        TOTAL FREE ENERGY PREDICTED BY IDOCK:   13.46 KCAL/MOL
REMARK 923 INTER-LIGAND FREE ENERGY PREDICTED BY IDOCK:    0.67 KCAL/MOL
REMARK 924 INTRA-LIGAND FREE ENERGY PREDICTED BY IDOCK:   12.79 KCAL/MOL
REMARK 927      BINDING AFFINITY PREDICTED BY RF-SCORE:    0.00 PKD
ROOT
HETATM    1  C   UNL     1      -6.388   9.316  65.220  1.00  0.00    -0.065 C  
HETATM    2  C   UNL     1      -7.645   9.949  65.742  1.00  0.00    -0.113 A  
HETATM    3  C   UNL     1      -8.122   9.631  67.019  1.00  0.00    -0.113 A  
HETATM    4  C   UNL     1      -9.326  10.170  67.507  1.00  0.00    -0.168 A  
HETATM    5  C   UNL     1      -9.779   9.769  68.885  1.00  0.00    -0.172 C  
HETATM    6  C   UNL     1     -10.067  11.050  66.689  1.00  0.00    -0.262 A  
HETATM    7  C   UNL     1      -9.579  11.385  65.415  1.00  0.00    -0.255 A  
HETATM    8  C   UNL     1      -8.378  10.836  64.947  1.00  0.00    -0.018 A  
ENDROOT
BRANCH   6   9
HETATM    9  C   UNL     1     -11.391  11.575  67.150  1.00  0.00    -0.284 C  
HETATM   10  O   UNL     1     -12.453  11.007  66.948  1.00  0.00     1.554 OA 
BRANCH   9  11
HETATM   11  O   UNL     1     -11.244  12.740  67.833  1.00  0.00    -0.244 OA 
BRANCH  11  12
HETATM   12  C   UNL     1     -10.788  12.579  69.188  1.00  0.00    -0.084 C  
BRANCH  12  13
HETATM   13  C   UNL     1     -11.314  11.288  69.767  1.00  0.00    -0.348 A  
HETATM   14  C   UNL     1     -11.514  11.149  71.146  1.00  0.00     0.703 A  
HETATM   15  C   UNL     1     -11.853   9.910  71.694  1.00  0.00    -0.374 A  
HETATM   16  C   UNL     1     -11.998   8.785  70.871  1.00  0.00    -0.235 A  
HETATM   17  C   UNL     1     -11.904   8.954  69.480  1.00  0.00     0.841 A  
HETATM   18  C   UNL     1     -12.208   7.410  71.499  1.00  0.00    -0.368 C  
HETATM   19  C   UNL     1     -11.546  10.188  68.936  1.00  0.00    -0.056 A  
HETATM   20  C   UNL     1     -11.558   6.282  70.673  1.00  0.00    -0.281 C  
HETATM   21  C   UNL     1     -13.713   7.135  71.723  1.00  0.00    -0.258 C  
HETATM   22  O   UNL     1     -12.240   5.376  70.195  1.00  0.00     2.688 OA 
HETATM   23  N   UNL     1     -13.976   5.873  72.432  1.00  0.00    -0.200 NA 
HETATM   24  N   UNL     1     -10.184   6.414  70.504  1.00  0.00    -0.186 N  
HETATM   25  H1  UNL     1     -14.969   5.692  72.580  1.00  0.00     0.000 HD 
HETATM   26  H2  UNL     1     -13.466   5.842  73.315  1.00  0.00     0.000 HD 
HETATM   27  H   UNL     1      -9.738   7.235  70.914  1.00  0.00     0.000 HD 
BRANCH  24  28
HETATM   28  C   UNL     1      -9.352   5.502  69.811  1.00  0.00    -0.142 A  
HETATM   29  C   UNL     1      -8.049   5.212  70.221  1.00  0.00    -0.086 A  
HETATM   30  C   UNL     1      -7.270   4.278  69.538  1.00  0.00    -0.050 A  
HETATM   31  C   UNL     1      -7.776   3.622  68.413  1.00  0.00    -0.060 A  
HETATM   32  C   UNL     1      -7.034   2.672  67.706  1.00  0.00    -0.048 A  
HETATM   33  N   UNL     1      -7.472   2.025  66.603  1.00  0.00    -0.064 NA 
HETATM   34  C   UNL     1      -8.714   2.337  66.180  1.00  0.00    -0.120 A  
HETATM   35  C   UNL     1      -9.542   3.256  66.811  1.00  0.00    -0.052 A  
HETATM   36  C   UNL     1      -9.075   3.920  67.955  1.00  0.00    -0.183 A  
HETATM   37  C   UNL     1      -9.852   4.866  68.663  1.00  0.00    -0.221 A  
ENDBRANCH  24  28
ENDBRANCH  12  13
ENDBRANCH  11  12
ENDBRANCH   9  11
ENDBRANCH   6   9
TORSDOF 5
ENDMDL
MODEL      233
REMARK 921   NORMALIZED FREE ENERGY PREDICTED BY IDOCK:   14.14 KCAL/MOL
REMARK 922        TOTAL FREE ENERGY PREDICTED BY IDOCK:   16.05 KCAL/MOL
REMARK 923 INTER-LIGAND FREE ENERGY PREDICTED BY IDOCK:    8.62 KCAL/MOL
REMARK 924 INTRA-LIGAND FREE ENERGY PREDICTED BY IDOCK:    7.43 KCAL/MOL
REMARK 927      BINDING AFFINITY PREDICTED BY RF-SCORE:    0.00 PKD
ROOT
HETATM    1  C   UNL     1     -12.222   5.687  68.128  1.00  0.00     5.612 C  
HETATM    2  C   UNL     1     -11.220   5.275  67.089  1.00  0.00     0.931 A  
HETATM    3  C   UNL     1     -11.633   4.610  65.929  1.00  0.00     1.889 A  
HETATM    4  C   UNL     1     -10.707   4.166  64.968  1.00  0.00    -0.120 A  
HETATM    5  C   UNL     1     -11.230   3.446  63.754  1.00  0.00     0.324 C  
HETATM    6  C   UNL     1      -9.331   4.397  65.181  1.00  0.00    -0.165 A  
HETATM    7  C   UNL     1      -8.917   5.082  66.336  1.00  0.00    -0.123 A  
HETATM    8  C   UNL     1      -9.856   5.515  67.281  1.00  0.00    -0.169 A  
ENDROOT
BRANCH   6   9
HETATM    9  C   UNL     1      -8.318   3.866  64.216  1.00  0.00    -0.091 C  
HETATM   10  O   UNL     1      -7.497   3.007  64.501  1.00  0.00    -0.071 OA 
BRANCH   9  11
HETATM   11  O   UNL     1      -8.452   4.446  62.996  1.00  0.00    -0.091 OA 
BRANCH  11  12
HETATM   12  C   UNL     1      -8.992   5.780  63.032  1.00  0.00     0.443 C  
BRANCH  12  13
HETATM   13  C   UNL     1      -8.347   6.576  64.140  1.00  0.00     0.121 A  
HETATM   14  C   UNL     1      -7.298   6.035  64.894  1.00  0.00    -0.073 A  
HETATM   15  C   UNL     1      -6.807   6.709  66.014  1.00  0.00    -0.053 A  
HETATM   16  C   UNL     1      -7.358   7.938  66.402  1.00  0.00    -0.086 A  
HETATM   17  C   UNL     1      -8.333   8.525  65.581  1.00  0.00    -0.154 A  
HETATM   18  C   UNL     1      -6.923   8.581  67.717  1.00  0.00    -0.075 C  
HETATM   19  C   UNL     1      -8.837   7.842  64.473  1.00  0.00     0.458 A  
HETATM   20  C   UNL     1      -8.066   9.364  68.393  1.00  0.00    -0.109 C  
HETATM   21  C   UNL     1      -5.686   9.483  67.501  1.00  0.00    -0.041 C  
HETATM   22  O   UNL     1      -7.968  10.574  68.597  1.00  0.00    -0.109 OA 
HETATM   23  N   UNL     1      -5.147  10.042  68.751  1.00  0.00    -0.036 NA 
HETATM   24  N   UNL     1      -9.184   8.595  68.701  1.00  0.00    -0.139 N  
HETATM   25  H1  UNL     1      -4.330  10.637  68.608  1.00  0.00     0.000 HD 
HETATM   26  H2  UNL     1      -4.942   9.299  69.419  1.00  0.00     0.000 HD 
HETATM   27  H   UNL     1      -9.159   7.609  68.441  1.00  0.00     0.000 HD 
BRANCH  24  28
HETATM   28  C   UNL     1     -10.351   9.069  69.346  1.00  0.00    -0.213 A  
HETATM   29  C   UNL     1     -11.251   8.219  69.990  1.00  0.00    -0.081 A  
HETATM   30  C   UNL     1     -12.372   8.722  70.650  1.00  0.00     0.122 A  
HETATM   31  C   UNL     1     -12.627  10.097  70.665  1.00  0.00    -0.353 A  
HETATM   32  C   UNL     1     -13.731  10.644  71.323  1.00  0.00     0.408 A  
HETATM   33  N   UNL     1     -14.029  11.962  71.351  1.00  0.00     1.207 NA 
HETATM   34  C   UNL     1     -13.184  12.780  70.691  1.00  0.00     0.496 A  
HETATM   35  C   UNL     1     -12.052  12.347  70.013  1.00  0.00    -0.335 A  
HETATM   36  C   UNL     1     -11.754  10.976  69.993  1.00  0.00    -0.437 A  
HETATM   37  C   UNL     1     -10.620  10.448  69.333  1.00  0.00    -0.267 A  
ENDBRANCH  24  28
ENDBRANCH  12  13
ENDBRANCH  11  12
ENDBRANCH   9  11
ENDBRANCH   6   9
TORSDOF 5
ENDMDL
MODEL      234
REMARK 921   NORMALIZED FREE ENERGY PREDICTED BY IDOCK:   15.09 KCAL/MOL
REMARK 922        TOTAL FREE ENERGY PREDICTED BY IDOCK:   17.28 KCAL/MOL
REMARK 923 INTER-LIGAND FREE ENERGY PREDICTED BY IDOCK:    4.22 KCAL/MOL
REMARK 924 INTRA-LIGAND FREE ENERGY PREDICTED BY IDOCK:   13.06 KCAL/MOL
REMARK 927      BINDING AFFINITY PREDICTED BY RF-SCORE:    0.00 PKD
ROOT
HETATM    1  C   UNL     1      -9.131  17.920  69.667  1.00  0.00     0.888 C  
HETATM    2  C   UNL     1      -9.803  16.981  68.707  1.00  0.00    -0.278 A  
HETATM    3  C   UNL     1     -11.191  17.017  68.534  1.00  0.00    -0.037 A  
HETATM    4  C   UNL     1     -11.847  16.111  67.682  1.00  0.00     0.467 A  
HETATM    5  C   UNL     1     -13.345  16.205  67.560  1.00  0.00     5.369 C  
HETATM    6  C   UNL     1     -11.087  15.146  66.987  1.00  0.00    -0.328 A  
HETATM    7  C   UNL     1      -9.692  15.123  67.145  1.00  0.00    -0.230 A  
HETATM    8  C   UNL     1      -9.057  16.033  68.000  1.00  0.00    -0.189 A  
ENDROOT
BRANCH   6   9
HETATM    9  C   UNL     1     -11.767  14.119  66.136  1.00  0.00    -0.393 C  
HETATM   10  O   UNL     1     -11.278  13.652  65.119  1.00  0.00    -0.298 OA 
BRANCH   9  11
HETATM   11  O   UNL     1     -12.971  13.771  66.657  1.00  0.00     0.065 OA 
BRANCH  11  12
HETATM   12  C   UNL     1     -12.904  13.217  67.984  1.00  0.00     1.752 C  
BRANCH  12  13
HETATM   13  C   UNL     1     -11.491  12.794  68.303  1.00  0.00    -0.354 A  
HETATM   14  C   UNL     1     -10.400  13.400  67.667  1.00  0.00    -0.238 A  
HETATM   15  C   UNL     1      -9.106  12.904  67.847  1.00  0.00    -0.201 A  
HETATM   16  C   UNL     1      -8.880  11.791  68.668  1.00  0.00    -0.062 A  
HETATM   17  C   UNL     1      -9.961  11.257  69.388  1.00  0.00     0.134 A  
HETATM   18  C   UNL     1      -7.489  11.164  68.727  1.00  0.00    -0.118 C  
HETATM   19  C   UNL     1     -11.255  11.740  69.192  1.00  0.00    -0.324 A  
HETATM   20  C   UNL     1      -7.543   9.637  68.930  1.00  0.00    -0.076 C  
HETATM   21  C   UNL     1      -6.632  11.839  69.822  1.00  0.00    -0.047 C  
HETATM   22  O   UNL     1      -7.037   9.114  69.923  1.00  0.00    -0.048 OA 
HETATM   23  N   UNL     1      -5.241  11.358  69.852  1.00  0.00    -0.055 NA 
HETATM   24  N   UNL     1      -8.225   8.949  67.932  1.00  0.00    -0.110 N  
HETATM   25  H1  UNL     1      -4.675  11.803  70.574  1.00  0.00     0.000 HD 
HETATM   26  H2  UNL     1      -4.805  11.458  68.936  1.00  0.00     0.000 HD 
HETATM   27  H   UNL     1      -8.638   9.502  67.181  1.00  0.00     0.000 HD 
BRANCH  24  28
HETATM   28  C   UNL     1      -8.392   7.545  67.872  1.00  0.00    -0.123 A  
HETATM   29  C   UNL     1      -9.219   6.849  68.756  1.00  0.00    -0.131 A  
HETATM   30  C   UNL     1      -9.393   5.469  68.645  1.00  0.00    -0.149 A  
HETATM   31  C   UNL     1      -8.725   4.749  67.650  1.00  0.00    -0.106 A  
HETATM   32  C   UNL     1      -8.878   3.370  67.497  1.00  0.00    -0.130 A  
HETATM   33  N   UNL     1      -8.241   2.628  66.563  1.00  0.00    -0.083 NA 
HETATM   34  C   UNL     1      -7.408   3.293  65.738  1.00  0.00    -0.072 A  
HETATM   35  C   UNL     1      -7.189   4.663  65.793  1.00  0.00    -0.076 A  
HETATM   36  C   UNL     1      -7.857   5.421  66.766  1.00  0.00    -0.101 A  
HETATM   37  C   UNL     1      -7.697   6.820  66.890  1.00  0.00    -0.103 A  
ENDBRANCH  24  28
ENDBRANCH  12  13
ENDBRANCH  11  12
ENDBRANCH   9  11
ENDBRANCH   6   9
TORSDOF 5
ENDMDL
MODEL      235
REMARK 921   NORMALIZED FREE ENERGY PREDICTED BY IDOCK:   16.85 KCAL/MOL
REMARK 922        TOTAL FREE ENERGY PREDICTED BY IDOCK:   19.55 KCAL/MOL
REMARK 923 INTER-LIGAND FREE ENERGY PREDICTED BY IDOCK:   17.55 KCAL/MOL
REMARK 924 INTRA-LIGAND FREE ENERGY PREDICTED BY IDOCK:    2.00 KCAL/MOL
REMARK 927      BINDING AFFINITY PREDICTED BY RF-SCORE:    0.00 PKD
ROOT
HETATM    1  C   UNL     1     -12.266  12.935  63.526  1.00  0.00    -0.595 C  
HETATM    2  C   UNL     1     -11.225  12.049  64.148  1.00  0.00    -0.441 A  
HETATM    3  C   UNL     1     -10.714  12.340  65.418  1.00  0.00    -0.320 A  
HETATM    4  C   UNL     1      -9.700  11.557  65.997  1.00  0.00    -0.253 A  
HETATM    5  C   UNL     1      -9.192  11.943  67.361  1.00  0.00    -0.177 C  
HETATM    6  C   UNL     1      -9.188  10.453  65.281  1.00  0.00    -0.240 A  
HETATM    7  C   UNL     1      -9.716  10.149  64.015  1.00  0.00    -0.273 A  
HETATM    8  C   UNL     1     -10.725  10.943  63.454  1.00  0.00    -0.019 A  
ENDROOT
BRANCH   6   9
HETATM    9  C   UNL     1      -8.055   9.650  65.838  1.00  0.00    -0.112 C  
HETATM   10  O   UNL     1      -7.977   8.435  65.747  1.00  0.00    -0.099 OA 
BRANCH   9  11
HETATM   11  O   UNL     1      -7.130  10.452  66.426  1.00  0.00    -0.104 OA 
BRANCH  11  12
HETATM   12  C   UNL     1      -7.003  10.264  67.848  1.00  0.00    -0.083 C  
BRANCH  12  13
HETATM   13  C   UNL     1      -6.776  11.589  68.533  1.00  0.00    -0.067 A  
HETATM   14  C   UNL     1      -7.127  11.773  69.876  1.00  0.00     0.451 A  
HETATM   15  C   UNL     1      -7.060  13.039  70.462  1.00  0.00     1.996 A  
HETATM   16  C   UNL     1      -6.640  14.147  69.713  1.00  0.00    -0.104 A  
HETATM   17  C   UNL     1      -6.185  13.937  68.402  1.00  0.00    -0.101 A  
HETATM   18  C   UNL     1      -6.726  15.545  70.319  1.00  0.00     0.138 C  
HETATM   19  C   UNL     1      -6.271  12.676  67.811  1.00  0.00    -0.131 A  
HETATM   20  C   UNL     1      -7.037  16.623  69.261  1.00  0.00    -0.212 C  
HETATM   21  C   UNL     1      -5.432  15.887  71.093  1.00  0.00     0.092 C  
HETATM   22  O   UNL     1      -6.249  17.544  69.047  1.00  0.00    -0.190 OA 
HETATM   23  N   UNL     1      -5.498  17.177  71.798  1.00  0.00     0.174 NA 
HETATM   24  N   UNL     1      -8.236  16.431  68.583  1.00  0.00    -0.211 N  
HETATM   25  H1  UNL     1      -4.644  17.402  72.309  1.00  0.00     0.000 HD 
HETATM   26  H2  UNL     1      -6.309  17.211  72.415  1.00  0.00     0.000 HD 
HETATM   27  H   UNL     1      -8.783  15.604  68.822  1.00  0.00     0.000 HD 
BRANCH  24  28
HETATM   28  C   UNL     1      -8.760  17.290  67.587  1.00  0.00    -0.219 A  
HETATM   29  C   UNL     1      -7.947  17.982  66.687  1.00  0.00    -0.278 A  
HETATM   30  C   UNL     1      -8.497  18.790  65.693  1.00  0.00     0.589 A  
HETATM   31  C   UNL     1      -9.884  18.937  65.587  1.00  0.00     0.339 A  
HETATM   32  C   UNL     1     -10.477  19.727  64.600  1.00  0.00     2.455 A  
HETATM   33  N   UNL     1     -11.809  19.915  64.468  1.00  0.00     2.600 NA 
HETATM   34  C   UNL     1     -12.594  19.284  65.364  1.00  0.00     9.214 A  
HETATM   35  C   UNL     1     -12.113  18.466  66.379  1.00  0.00     4.252 A  
HETATM   36  C   UNL     1     -10.728  18.279  66.504  1.00  0.00    -0.199 A  
HETATM   37  C   UNL     1     -10.152  17.460  67.502  1.00  0.00    -0.322 A  
ENDBRANCH  24  28
ENDBRANCH  12  13
ENDBRANCH  11  12
ENDBRANCH   9  11
ENDBRANCH   6   9
TORSDOF 5
ENDMDL
MODEL      236
REMARK 921   NORMALIZED FREE ENERGY PREDICTED BY IDOCK:   17.16 KCAL/MOL
REMARK 922        TOTAL FREE ENERGY PREDICTED BY IDOCK:   19.95 KCAL/MOL
REMARK 923 INTER-LIGAND FREE ENERGY PREDICTED BY IDOCK:    5.36 KCAL/MOL
REMARK 924 INTRA-LIGAND FREE ENERGY PREDICTED BY IDOCK:   14.60 KCAL/MOL
REMARK 927      BINDING AFFINITY PREDICTED BY RF-SCORE:    0.00 PKD
ROOT
HETATM    1  C   UNL     1     -11.352  10.772  68.319  1.00  0.00    -0.376 C  
HETATM    2  C   UNL     1     -10.712  10.987  66.979  1.00  0.00    -0.319 A  
HETATM    3  C   UNL     1     -11.224  10.358  65.838  1.00  0.00     0.610 A  
HETATM    4  C   UNL     1     -10.608  10.501  64.582  1.00  0.00    -0.041 A  
HETATM    5  C   UNL     1     -11.212   9.781  63.406  1.00  0.00     5.846 C  
HETATM    6  C   UNL     1      -9.448  11.298  64.472  1.00  0.00    -0.211 A  
HETATM    7  C   UNL     1      -8.945  11.946  65.612  1.00  0.00     0.107 A  
HETATM    8  C   UNL     1      -9.573  11.789  66.855  1.00  0.00    -0.204 A  
ENDROOT
BRANCH   6   9
HETATM    9  C   UNL     1      -8.726  11.404  63.165  1.00  0.00     0.115 C  
HETATM   10  O   UNL     1      -8.477  12.464  62.613  1.00  0.00     1.429 OA 
BRANCH   9  11
HETATM   11  O   UNL     1      -8.374  10.177  62.699  1.00  0.00    -0.135 OA 
BRANCH  11  12
HETATM   12  C   UNL     1      -7.164   9.651  63.275  1.00  0.00    -0.111 C  
BRANCH  12  13
HETATM   13  C   UNL     1      -6.829  10.386  64.549  1.00  0.00    -0.006 A  
HETATM   14  C   UNL     1      -5.520  10.814  64.808  1.00  0.00    -0.059 A  
HETATM   15  C   UNL     1      -5.182  11.354  66.050  1.00  0.00    -0.008 A  
HETATM   16  C   UNL     1      -6.147  11.476  67.059  1.00  0.00    -0.131 A  
HETATM   17  C   UNL     1      -7.478  11.147  66.758  1.00  0.00    -0.146 A  
HETATM   18  C   UNL     1      -5.727  11.916  68.460  1.00  0.00    -0.049 C  
HETATM   19  C   UNL     1      -7.811  10.589  65.523  1.00  0.00    -0.138 A  
HETATM   20  C   UNL     1      -6.580  11.256  69.562  1.00  0.00    -0.129 C  
HETATM   21  C   UNL     1      -5.760  13.457  68.582  1.00  0.00    -0.084 C  
HETATM   22  O   UNL     1      -7.258  11.939  70.329  1.00  0.00     0.623 OA 
HETATM   23  N   UNL     1      -5.255  13.950  69.872  1.00  0.00    -0.092 NA 
HETATM   24  N   UNL     1      -6.528   9.866  69.571  1.00  0.00    -0.045 N  
HETATM   25  H1  UNL     1      -5.277  14.966  69.953  1.00  0.00     0.000 HD 
HETATM   26  H2  UNL     1      -4.317  13.592  70.054  1.00  0.00     0.000 HD 
HETATM   27  H   UNL     1      -5.961   9.413  68.854  1.00  0.00     0.000 HD 
BRANCH  24  28
HETATM   28  C   UNL     1      -7.197   9.028  70.496  1.00  0.00    -0.081 A  
HETATM   29  C   UNL     1      -8.558   8.735  70.394  1.00  0.00    -0.176 A  
HETATM   30  C   UNL     1      -9.179   7.874  71.299  1.00  0.00    -0.170 A  
HETATM   31  C   UNL     1      -8.449   7.296  72.342  1.00  0.00    -0.127 A  
HETATM   32  C   UNL     1      -9.027   6.420  73.263  1.00  0.00    -0.128 A  
HETATM   33  N   UNL     1      -8.368   5.852  74.297  1.00  0.00    -0.109 NA 
HETATM   34  C   UNL     1      -7.064   6.170  74.422  1.00  0.00    -0.090 A  
HETATM   35  C   UNL     1      -6.385   7.019  73.559  1.00  0.00    -0.065 A  
HETATM   36  C   UNL     1      -7.081   7.602  72.489  1.00  0.00    -0.078 A  
HETATM   37  C   UNL     1      -6.468   8.473  71.560  1.00  0.00    -0.064 A  
ENDBRANCH  24  28
ENDBRANCH  12  13
ENDBRANCH  11  12
ENDBRANCH   9  11
ENDBRANCH   6   9
TORSDOF 5
ENDMDL
MODEL      237
REMARK 921   NORMALIZED FREE ENERGY PREDICTED BY IDOCK:   17.20 KCAL/MOL
REMARK 922        TOTAL FREE ENERGY PREDICTED BY IDOCK:   20.00 KCAL/MOL
REMARK 923 INTER-LIGAND FREE ENERGY PREDICTED BY IDOCK:    6.57 KCAL/MOL
REMARK 924 INTRA-LIGAND FREE ENERGY PREDICTED BY IDOCK:   13.43 KCAL/MOL
REMARK 927      BINDING AFFINITY PREDICTED BY RF-SCORE:    0.00 PKD
ROOT
HETATM    1  C   UNL     1      -5.650  16.499  68.079  1.00  0.00    -0.120 C  
HETATM    2  C   UNL     1      -6.893  16.643  67.249  1.00  0.00    -0.212 A  
HETATM    3  C   UNL     1      -7.892  15.665  67.292  1.00  0.00    -0.230 A  
HETATM    4  C   UNL     1      -9.039  15.752  66.483  1.00  0.00    -0.327 A  
HETATM    5  C   UNL     1     -10.063  14.652  66.577  1.00  0.00    -0.286 C  
HETATM    6  C   UNL     1      -9.183  16.851  65.610  1.00  0.00     0.244 A  
HETATM    7  C   UNL     1      -8.190  17.844  65.581  1.00  0.00     0.453 A  
HETATM    8  C   UNL     1      -7.053  17.738  66.394  1.00  0.00    -0.299 A  
ENDROOT
BRANCH   6   9
HETATM    9  C   UNL     1     -10.353  16.929  64.679  1.00  0.00     1.328 C  
HETATM   10  O   UNL     1     -10.249  17.022  63.466  1.00  0.00     5.058 OA 
BRANCH   9  11
HETATM   11  O   UNL     1     -11.526  16.859  65.361  1.00  0.00     0.341 OA 
BRANCH  11  12
HETATM   12  C   UNL     1     -12.222  15.607  65.216  1.00  0.00     0.732 C  
BRANCH  12  13
HETATM   13  C   UNL     1     -11.985  14.735  66.424  1.00  0.00    -0.179 A  
HETATM   14  C   UNL     1     -11.333  15.238  67.556  1.00  0.00    -0.300 A  
HETATM   15  C   UNL     1     -10.979  14.391  68.608  1.00  0.00    -0.264 A  
HETATM   16  C   UNL     1     -11.271  13.021  68.547  1.00  0.00    -0.309 A  
HETATM   17  C   UNL     1     -12.021  12.543  67.460  1.00  0.00    -0.287 A  
HETATM   18  C   UNL     1     -10.736  12.084  69.627  1.00  0.00     0.274 C  
HETATM   19  C   UNL     1     -12.357  13.387  66.401  1.00  0.00    -0.381 A  
HETATM   20  C   UNL     1     -10.403  10.684  69.075  1.00  0.00    -0.218 C  
HETATM   21  C   UNL     1     -11.727  11.992  70.810  1.00  0.00     0.378 C  
HETATM   22  O   UNL     1     -10.980   9.683  69.502  1.00  0.00    -0.232 OA 
HETATM   23  N   UNL     1     -11.216  11.194  71.936  1.00  0.00     2.589 NA 
HETATM   24  N   UNL     1      -9.449  10.678  68.063  1.00  0.00    -0.155 N  
HETATM   25  H1  UNL     1     -11.870  11.134  72.717  1.00  0.00     0.000 HD 
HETATM   26  H2  UNL     1     -10.311  11.546  72.247  1.00  0.00     0.000 HD 
HETATM   27  H   UNL     1      -9.075  11.580  67.767  1.00  0.00     0.000 HD 
BRANCH  24  28
HETATM   28  C   UNL     1      -8.953   9.523  67.412  1.00  0.00    -0.131 A  
HETATM   29  C   UNL     1      -9.699   8.349  67.292  1.00  0.00    -0.240 A  
HETATM   30  C   UNL     1      -9.196   7.242  66.610  1.00  0.00    -0.193 A  
HETATM   31  C   UNL     1      -7.918   7.280  66.042  1.00  0.00    -0.115 A  
HETATM   32  C   UNL     1      -7.380   6.199  65.341  1.00  0.00    -0.080 A  
HETATM   33  N   UNL     1      -6.146   6.181  64.791  1.00  0.00    -0.029 NA 
HETATM   34  C   UNL     1      -5.407   7.299  64.945  1.00  0.00    -0.029 A  
HETATM   35  C   UNL     1      -5.845   8.435  65.612  1.00  0.00    -0.044 A  
HETATM   36  C   UNL     1      -7.129   8.440  66.178  1.00  0.00    -0.076 A  
HETATM   37  C   UNL     1      -7.658   9.554  66.869  1.00  0.00    -0.095 A  
ENDBRANCH  24  28
ENDBRANCH  12  13
ENDBRANCH  11  12
ENDBRANCH   9  11
ENDBRANCH   6   9
TORSDOF 5
ENDMDL
MODEL      238
REMARK 921   NORMALIZED FREE ENERGY PREDICTED BY IDOCK:   17.91 KCAL/MOL
REMARK 922        TOTAL FREE ENERGY PREDICTED BY IDOCK:   20.91 KCAL/MOL
REMARK 923 INTER-LIGAND FREE ENERGY PREDICTED BY IDOCK:   18.20 KCAL/MOL
REMARK 924 INTRA-LIGAND FREE ENERGY PREDICTED BY IDOCK:    2.71 KCAL/MOL
REMARK 927      BINDING AFFINITY PREDICTED BY RF-SCORE:    0.00 PKD
ROOT
HETATM    1  C   UNL     1      -7.900   7.810  67.399  1.00  0.00    -0.118 C  
HETATM    2  C   UNL     1      -8.856   8.829  67.948  1.00  0.00    -0.136 A  
HETATM    3  C   UNL     1      -8.980  10.084  67.342  1.00  0.00    -0.139 A  
HETATM    4  C   UNL     1      -9.829  11.074  67.871  1.00  0.00    -0.186 A  
HETATM    5  C   UNL     1      -9.896  12.404  67.169  1.00  0.00    -0.206 C  
HETATM    6  C   UNL     1     -10.570  10.792  69.038  1.00  0.00    -0.250 A  
HETATM    7  C   UNL     1     -10.461   9.525  69.635  1.00  0.00    -0.239 A  
HETATM    8  C   UNL     1      -9.609   8.553  69.094  1.00  0.00    -0.167 A  
ENDROOT
BRANCH   6   9
HETATM    9  C   UNL     1     -11.419  11.851  69.668  1.00  0.00    -0.266 C  
HETATM   10  O   UNL     1     -11.051  12.548  70.601  1.00  0.00     1.087 OA 
BRANCH   9  11
HETATM   11  O   UNL     1     -12.626  11.942  69.052  1.00  0.00     0.032 OA 
BRANCH  11  12
HETATM   12  C   UNL     1     -12.882  13.218  68.436  1.00  0.00     1.565 C  
BRANCH  12  13
HETATM   13  C   UNL     1     -12.502  14.337  69.374  1.00  0.00    -0.112 A  
HETATM   14  C   UNL     1     -13.484  15.145  69.961  1.00  0.00     0.562 A  
HETATM   15  C   UNL     1     -13.126  16.272  70.705  1.00  0.00     1.706 A  
HETATM   16  C   UNL     1     -11.776  16.613  70.873  1.00  0.00     0.346 A  
HETATM   17  C   UNL     1     -10.797  15.740  70.375  1.00  0.00    -0.345 A  
HETATM   18  C   UNL     1     -11.408  17.932  71.548  1.00  0.00     3.083 C  
HETATM   19  C   UNL     1     -11.155  14.625  69.617  1.00  0.00    -0.284 A  
HETATM   20  C   UNL     1     -10.115  18.544  70.971  1.00  0.00     3.157 C  
HETATM   21  C   UNL     1     -11.300  17.752  73.080  1.00  0.00     1.895 C  
HETATM   22  O   UNL     1      -9.131  18.729  71.687  1.00  0.00     6.207 OA 
HETATM   23  N   UNL     1     -11.061  19.012  73.799  1.00  0.00     1.892 NA 
HETATM   24  N   UNL     1     -10.169  18.819  69.609  1.00  0.00    -0.162 N  
HETATM   25  H1  UNL     1     -10.990  18.893  74.810  1.00  0.00     0.000 HD 
HETATM   26  H2  UNL     1     -11.773  19.703  73.565  1.00  0.00     0.000 HD 
HETATM   27  H   UNL     1     -11.030  18.579  69.117  1.00  0.00     0.000 HD 
BRANCH  24  28
HETATM   28  C   UNL     1      -9.127  19.404  68.850  1.00  0.00    -0.314 A  
HETATM   29  C   UNL     1      -8.026  20.026  69.441  1.00  0.00     0.273 A  
HETATM   30  C   UNL     1      -6.997  20.558  68.664  1.00  0.00    -0.070 A  
HETATM   31  C   UNL     1      -7.056  20.493  67.269  1.00  0.00    -0.362 A  
HETATM   32  C   UNL     1      -6.043  21.004  66.454  1.00  0.00    -0.275 A  
HETATM   33  N   UNL     1      -6.064  20.981  65.103  1.00  0.00    -0.246 NA 
HETATM   34  C   UNL     1      -7.148  20.420  64.531  1.00  0.00     0.307 A  
HETATM   35  C   UNL     1      -8.208  19.872  65.243  1.00  0.00     0.699 A  
HETATM   36  C   UNL     1      -8.173  19.902  66.645  1.00  0.00    -0.359 A  
HETATM   37  C   UNL     1      -9.204  19.364  67.448  1.00  0.00    -0.371 A  
ENDBRANCH  24  28
ENDBRANCH  12  13
ENDBRANCH  11  12
ENDBRANCH   9  11
ENDBRANCH   6   9
TORSDOF 5
ENDMDL
MODEL      239
REMARK 921   NORMALIZED FREE ENERGY PREDICTED BY IDOCK:   20.52 KCAL/MOL
REMARK 922        TOTAL FREE ENERGY PREDICTED BY IDOCK:   24.30 KCAL/MOL
REMARK 923 INTER-LIGAND FREE ENERGY PREDICTED BY IDOCK:   10.08 KCAL/MOL
REMARK 924 INTRA-LIGAND FREE ENERGY PREDICTED BY IDOCK:   14.22 KCAL/MOL
REMARK 927      BINDING AFFINITY PREDICTED BY RF-SCORE:    0.00 PKD
ROOT
HETATM    1  C   UNL     1     -11.370  10.788  68.313  1.00  0.00    -0.376 C  
HETATM    2  C   UNL     1     -10.831  11.127  66.954  1.00  0.00    -0.333 A  
HETATM    3  C   UNL     1     -11.314  10.473  65.815  1.00  0.00     0.797 A  
HETATM    4  C   UNL     1     -10.785  10.736  64.539  1.00  0.00    -0.147 A  
HETATM    5  C   UNL     1     -11.349   9.981  63.365  1.00  0.00     4.739 C  
HETATM    6  C   UNL     1      -9.745  11.681  64.406  1.00  0.00    -0.199 A  
HETATM    7  C   UNL     1      -9.273  12.352  65.546  1.00  0.00     0.211 A  
HETATM    8  C   UNL     1      -9.812  12.075  66.809  1.00  0.00    -0.218 A  
ENDROOT
BRANCH   6   9
HETATM    9  C   UNL     1      -9.109  11.922  63.073  1.00  0.00     0.442 C  
HETATM   10  O   UNL     1      -8.824  13.031  62.649  1.00  0.00     4.130 OA 
BRANCH   9  11
HETATM   11  O   UNL     1      -8.877  10.752  62.422  1.00  0.00    -0.243 OA 
BRANCH  11  12
HETATM   12  C   UNL     1      -7.779   9.987  62.953  1.00  0.00    -0.137 C  
BRANCH  12  13
HETATM   13  C   UNL     1      -7.448  10.449  64.351  1.00  0.00    -0.010 A  
HETATM   14  C   UNL     1      -8.290  10.142  65.427  1.00  0.00    -0.159 A  
HETATM   15  C   UNL     1      -8.064  10.698  66.688  1.00  0.00    -0.136 A  
HETATM   16  C   UNL     1      -6.990  11.575  66.896  1.00  0.00    -0.134 A  
HETATM   17  C   UNL     1      -6.088  11.792  65.843  1.00  0.00     0.997 A  
HETATM   18  C   UNL     1      -6.853  12.299  68.233  1.00  0.00    -0.075 C  
HETATM   19  C   UNL     1      -6.325  11.252  64.579  1.00  0.00     1.367 A  
HETATM   20  C   UNL     1      -6.245  13.707  68.077  1.00  0.00    -0.139 C  
HETATM   21  C   UNL     1      -6.035  11.450  69.233  1.00  0.00    -0.059 C  
HETATM   22  O   UNL     1      -5.181  13.999  68.624  1.00  0.00    -0.081 OA 
HETATM   23  N   UNL     1      -5.964  12.041  70.578  1.00  0.00    -0.391 NA 
HETATM   24  N   UNL     1      -6.977  14.561  67.259  1.00  0.00    -0.204 N  
HETATM   25  H1  UNL     1      -5.425  11.481  71.238  1.00  0.00     0.000 HD 
HETATM   26  H2  UNL     1      -6.899  12.227  70.941  1.00  0.00     0.000 HD 
HETATM   27  H   UNL     1      -7.822  14.185  66.827  1.00  0.00     0.000 HD 
BRANCH  24  28
HETATM   28  C   UNL     1      -6.647  15.908  66.977  1.00  0.00     0.007 A  
HETATM   29  C   UNL     1      -5.661  16.263  66.054  1.00  0.00     2.172 A  
HETATM   30  C   UNL     1      -5.388  17.601  65.771  1.00  0.00    -0.142 A  
HETATM   31  C   UNL     1      -6.089  18.620  66.422  1.00  0.00    -0.188 A  
HETATM   32  C   UNL     1      -5.855  19.972  66.160  1.00  0.00    -0.164 A  
HETATM   33  N   UNL     1      -6.493  20.992  66.776  1.00  0.00    -0.296 NA 
HETATM   34  C   UNL     1      -7.414  20.651  67.699  1.00  0.00    -0.256 A  
HETATM   35  C   UNL     1      -7.735  19.341  68.030  1.00  0.00    -0.323 A  
HETATM   36  C   UNL     1      -7.065  18.292  67.384  1.00  0.00    -0.207 A  
HETATM   37  C   UNL     1      -7.332  16.930  67.655  1.00  0.00    -0.170 A  
ENDBRANCH  24  28
ENDBRANCH  12  13
ENDBRANCH  11  12
ENDBRANCH   9  11
ENDBRANCH   6   9
TORSDOF 5
ENDMDL
MODEL      240
REMARK 921   NORMALIZED FREE ENERGY PREDICTED BY IDOCK:   21.16 KCAL/MOL
REMARK 922        TOTAL FREE ENERGY PREDICTED BY IDOCK:   25.12 KCAL/MOL
REMARK 923 INTER-LIGAND FREE ENERGY PREDICTED BY IDOCK:   20.65 KCAL/MOL
REMARK 924 INTRA-LIGAND FREE ENERGY PREDICTED BY IDOCK:    4.47 KCAL/MOL
REMARK 927      BINDING AFFINITY PREDICTED BY RF-SCORE:    0.00 PKD
ROOT
HETATM    1  C   UNL     1      -8.117  14.834  64.422  1.00  0.00    11.682 C  
HETATM    2  C   UNL     1      -8.597  14.937  65.841  1.00  0.00     0.843 A  
HETATM    3  C   UNL     1      -8.454  13.856  66.718  1.00  0.00    -0.003 A  
HETATM    4  C   UNL     1      -8.945  13.910  68.035  1.00  0.00    -0.184 A  
HETATM    5  C   UNL     1      -8.765  12.700  68.913  1.00  0.00     0.323 C  
HETATM    6  C   UNL     1      -9.596  15.081  68.479  1.00  0.00    -0.210 A  
HETATM    7  C   UNL     1      -9.722  16.174  67.605  1.00  0.00    -0.233 A  
HETATM    8  C   UNL     1      -9.227  16.100  66.296  1.00  0.00    -0.366 A  
ENDROOT
BRANCH   6   9
HETATM    9  C   UNL     1     -10.199  15.138  69.848  1.00  0.00    -0.160 C  
HETATM   10  O   UNL     1     -10.634  16.160  70.354  1.00  0.00    -0.226 OA 
BRANCH   9  11
HETATM   11  O   UNL     1     -10.214  13.909  70.427  1.00  0.00     1.328 OA 
BRANCH  11  12
HETATM   12  C   UNL     1     -11.016  12.937  69.731  1.00  0.00     0.323 C  
BRANCH  12  13
HETATM   13  C   UNL     1     -10.646  11.542  70.172  1.00  0.00     0.909 A  
HETATM   14  C   UNL     1      -9.694  11.337  71.180  1.00  0.00     6.482 A  
HETATM   15  C   UNL     1      -9.241  10.050  71.478  1.00  0.00     2.424 A  
HETATM   16  C   UNL     1      -9.731   8.943  70.772  1.00  0.00    -0.281 A  
HETATM   17  C   UNL     1     -10.762   9.143  69.841  1.00  0.00    -0.246 A  
HETATM   18  C   UNL     1      -9.109   7.567  70.998  1.00  0.00    -0.148 C  
HETATM   19  C   UNL     1     -11.200  10.431  69.530  1.00  0.00    -0.325 A  
HETATM   20  C   UNL     1      -9.109   6.708  69.717  1.00  0.00    -0.143 C  
HETATM   21  C   UNL     1      -9.817   6.830  72.158  1.00  0.00    -0.148 C  
HETATM   22  O   UNL     1      -9.713   5.636  69.676  1.00  0.00    -0.152 OA 
HETATM   23  N   UNL     1      -9.189   5.545  72.502  1.00  0.00    -0.143 NA 
HETATM   24  N   UNL     1      -8.411   7.267  68.652  1.00  0.00    -0.129 N  
HETATM   25  H1  UNL     1      -9.655   5.059  73.268  1.00  0.00     0.000 HD 
HETATM   26  H2  UNL     1      -8.196   5.670  72.702  1.00  0.00     0.000 HD 
HETATM   27  H   UNL     1      -7.988   8.183  68.798  1.00  0.00     0.000 HD 
BRANCH  24  28
HETATM   28  C   UNL     1      -8.240   6.668  67.381  1.00  0.00    -0.121 A  
HETATM   29  C   UNL     1      -8.940   7.093  66.250  1.00  0.00    -0.181 A  
HETATM   30  C   UNL     1      -8.719   6.507  65.003  1.00  0.00     0.144 A  
HETATM   31  C   UNL     1      -7.798   5.465  64.864  1.00  0.00    -0.102 A  
HETATM   32  C   UNL     1      -7.538   4.858  63.633  1.00  0.00    -0.065 A  
HETATM   33  N   UNL     1      -6.672   3.837  63.452  1.00  0.00    -0.038 NA 
HETATM   34  C   UNL     1      -6.028   3.396  64.551  1.00  0.00    -0.022 A  
HETATM   35  C   UNL     1      -6.201   3.932  65.821  1.00  0.00    -0.032 A  
HETATM   36  C   UNL     1      -7.103   4.992  65.995  1.00  0.00    -0.072 A  
HETATM   37  C   UNL     1      -7.336   5.601  67.250  1.00  0.00    -0.077 A  
ENDBRANCH  24  28
ENDBRANCH  12  13
ENDBRANCH  11  12
ENDBRANCH   9  11
ENDBRANCH   6   9
TORSDOF 5
ENDMDL
MODEL      241
REMARK 921   NORMALIZED FREE ENERGY PREDICTED BY IDOCK:   21.17 KCAL/MOL
REMARK 922        TOTAL FREE ENERGY PREDICTED BY IDOCK:   25.13 KCAL/MOL
REMARK 923 INTER-LIGAND FREE ENERGY PREDICTED BY IDOCK:    2.04 KCAL/MOL
REMARK 924 INTRA-LIGAND FREE ENERGY PREDICTED BY IDOCK:   23.10 KCAL/MOL
REMARK 927      BINDING AFFINITY PREDICTED BY RF-SCORE:    0.00 PKD
ROOT
HETATM    1  C   UNL     1      -7.710   9.387  67.172  1.00  0.00    -0.091 C  
HETATM    2  C   UNL     1      -7.841   8.990  68.614  1.00  0.00    -0.101 A  
HETATM    3  C   UNL     1      -8.741   7.987  68.995  1.00  0.00    -0.137 A  
HETATM    4  C   UNL     1      -8.920   7.637  70.345  1.00  0.00    -0.152 A  
HETATM    5  C   UNL     1      -9.917   6.558  70.674  1.00  0.00    -0.206 C  
HETATM    6  C   UNL     1      -8.176   8.313  71.336  1.00  0.00    -0.158 A  
HETATM    7  C   UNL     1      -7.258   9.305  70.952  1.00  0.00    -0.113 A  
HETATM    8  C   UNL     1      -7.095   9.640  69.602  1.00  0.00    -0.075 A  
ENDROOT
BRANCH   6   9
HETATM    9  C   UNL     1      -8.404   8.017  72.785  1.00  0.00    -0.167 C  
HETATM   10  O   UNL     1      -7.524   8.053  73.630  1.00  0.00    -0.130 OA 
BRANCH   9  11
HETATM   11  O   UNL     1      -9.710   7.732  73.026  1.00  0.00    -0.216 OA 
BRANCH  11  12
HETATM   12  C   UNL     1     -10.579   8.880  73.015  1.00  0.00     1.269 C  
BRANCH  12  13
HETATM   13  C   UNL     1     -10.770   9.376  71.603  1.00  0.00    -0.298 A  
HETATM   14  C   UNL     1     -12.028   9.795  71.153  1.00  0.00    -0.463 A  
HETATM   15  C   UNL     1     -12.235  10.107  69.808  1.00  0.00     0.018 A  
HETATM   16  C   UNL     1     -11.185  10.005  68.885  1.00  0.00    -0.179 A  
HETATM   17  C   UNL     1      -9.902   9.691  69.361  1.00  0.00    -0.203 A  
HETATM   18  C   UNL     1     -11.465  10.192  67.396  1.00  0.00     0.427 C  
HETATM   19  C   UNL     1      -9.701   9.361  70.701  1.00  0.00    -0.336 A  
HETATM   20  C   UNL     1     -10.559   9.310  66.514  1.00  0.00    -0.047 C  
HETATM   21  C   UNL     1     -11.343  11.682  66.999  1.00  0.00    -0.305 C  
HETATM   22  O   UNL     1      -9.786   9.814  65.700  1.00  0.00    -0.251 OA 
HETATM   23  N   UNL     1     -11.714  11.944  65.600  1.00  0.00    -0.371 NA 
HETATM   24  N   UNL     1     -10.681   7.945  66.752  1.00  0.00    -0.435 N  
HETATM   25  H1  UNL     1     -11.634  12.927  65.339  1.00  0.00     0.000 HD 
HETATM   26  H2  UNL     1     -12.651  11.592  65.403  1.00  0.00     0.000 HD 
HETATM   27  H   UNL     1     -11.327   7.653  67.486  1.00  0.00     0.000 HD 
BRANCH  24  28
HETATM   28  C   UNL     1      -9.981   6.927  66.060  1.00  0.00     0.405 A  
HETATM   29  C   UNL     1     -10.076   6.757  64.678  1.00  0.00     4.018 A  
HETATM   30  C   UNL     1      -9.343   5.769  64.021  1.00  0.00     1.007 A  
HETATM   31  C   UNL     1      -8.505   4.913  64.742  1.00  0.00    -0.145 A  
HETATM   32  C   UNL     1      -7.744   3.918  64.124  1.00  0.00    -0.083 A  
HETATM   33  N   UNL     1      -6.935   3.056  64.778  1.00  0.00    -0.048 NA 
HETATM   34  C   UNL     1      -6.877   3.190  66.118  1.00  0.00    -0.052 A  
HETATM   35  C   UNL     1      -7.580   4.150  66.835  1.00  0.00    -0.084 A  
HETATM   36  C   UNL     1      -8.416   5.039  66.143  1.00  0.00    -0.114 A  
HETATM   37  C   UNL     1      -9.163   6.050  66.791  1.00  0.00    -0.143 A  
ENDBRANCH  24  28
ENDBRANCH  12  13
ENDBRANCH  11  12
ENDBRANCH   9  11
ENDBRANCH   6   9
TORSDOF 5
ENDMDL
MODEL      242
REMARK 921   NORMALIZED FREE ENERGY PREDICTED BY IDOCK:   21.68 KCAL/MOL
REMARK 922        TOTAL FREE ENERGY PREDICTED BY IDOCK:   25.79 KCAL/MOL
REMARK 923 INTER-LIGAND FREE ENERGY PREDICTED BY IDOCK:   25.36 KCAL/MOL
REMARK 924 INTRA-LIGAND FREE ENERGY PREDICTED BY IDOCK:    0.43 KCAL/MOL
REMARK 927      BINDING AFFINITY PREDICTED BY RF-SCORE:    0.00 PKD
ROOT
HETATM    1  C   UNL     1      -6.155  19.537  68.288  1.00  0.00    -0.250 C  
HETATM    2  C   UNL     1      -7.305  18.821  68.935  1.00  0.00    -0.325 A  
HETATM    3  C   UNL     1      -8.554  18.769  68.306  1.00  0.00    -0.357 A  
HETATM    4  C   UNL     1      -9.658  18.151  68.919  1.00  0.00    -0.247 A  
HETATM    5  C   UNL     1     -10.972  18.150  68.183  1.00  0.00     0.040 C  
HETATM    6  C   UNL     1      -9.502  17.571  70.196  1.00  0.00     1.927 A  
HETATM    7  C   UNL     1      -8.243  17.605  70.819  1.00  0.00     5.521 A  
HETATM    8  C   UNL     1      -7.155  18.227  70.193  1.00  0.00     1.033 A  
ENDROOT
BRANCH   6   9
HETATM    9  C   UNL     1     -10.678  16.978  70.906  1.00  0.00     1.122 C  
HETATM   10  O   UNL     1     -11.836  17.287  70.672  1.00  0.00     1.598 OA 
BRANCH   9  11
HETATM   11  O   UNL     1     -10.284  16.049  71.814  1.00  0.00     1.741 OA 
BRANCH  11  12
HETATM   12  C   UNL     1     -11.347  15.542  72.643  1.00  0.00    -0.131 C  
BRANCH  12  13
HETATM   13  C   UNL     1     -11.846  14.224  72.105  1.00  0.00     0.263 A  
HETATM   14  C   UNL     1     -11.776  13.060  72.880  1.00  0.00     4.784 A  
HETATM   15  C   UNL     1     -12.093  11.817  72.328  1.00  0.00     2.288 A  
HETATM   16  C   UNL     1     -12.488  11.715  70.987  1.00  0.00    -0.436 A  
HETATM   17  C   UNL     1     -12.662  12.896  70.248  1.00  0.00     0.051 A  
HETATM   18  C   UNL     1     -12.675  10.338  70.355  1.00  0.00    -0.243 C  
HETATM   19  C   UNL     1     -12.326  14.135  70.794  1.00  0.00    -0.439 A  
HETATM   20  C   UNL     1     -12.294  10.322  68.862  1.00  0.00     0.894 C  
HETATM   21  C   UNL     1     -14.121   9.832  70.564  1.00  0.00     0.916 C  
HETATM   22  O   UNL     1     -13.127  10.038  68.001  1.00  0.00     5.247 OA 
HETATM   23  N   UNL     1     -14.334   8.460  70.078  1.00  0.00     1.809 NA 
HETATM   24  N   UNL     1     -10.975  10.681  68.602  1.00  0.00    -0.227 N  
HETATM   25  H1  UNL     1     -15.288   8.126  70.216  1.00  0.00     0.000 HD 
HETATM   26  H2  UNL     1     -13.661   7.819  70.500  1.00  0.00     0.000 HD 
HETATM   27  H   UNL     1     -10.394  10.937  69.400  1.00  0.00     0.000 HD 
BRANCH  24  28
HETATM   28  C   UNL     1     -10.374  10.719  67.321  1.00  0.00    -0.220 A  
HETATM   29  C   UNL     1     -11.097  10.999  66.160  1.00  0.00    -0.082 A  
HETATM   30  C   UNL     1     -10.466  11.068  64.918  1.00  0.00    -0.371 A  
HETATM   31  C   UNL     1      -9.091  10.840  64.808  1.00  0.00    -0.222 A  
HETATM   32  C   UNL     1      -8.418  10.910  63.586  1.00  0.00     0.082 A  
HETATM   33  N   UNL     1      -7.096  10.680  63.427  1.00  0.00     0.076 NA 
HETATM   34  C   UNL     1      -6.405  10.366  64.541  1.00  0.00    -0.053 A  
HETATM   35  C   UNL     1      -6.969  10.280  65.807  1.00  0.00    -0.128 A  
HETATM   36  C   UNL     1      -8.343  10.521  65.958  1.00  0.00    -0.158 A  
HETATM   37  C   UNL     1      -8.998  10.460  67.210  1.00  0.00    -0.142 A  
ENDBRANCH  24  28
ENDBRANCH  12  13
ENDBRANCH  11  12
ENDBRANCH   9  11
ENDBRANCH   6   9
TORSDOF 5
ENDMDL
MODEL      243
REMARK 921   NORMALIZED FREE ENERGY PREDICTED BY IDOCK:   22.32 KCAL/MOL
REMARK 922        TOTAL FREE ENERGY PREDICTED BY IDOCK:   26.62 KCAL/MOL
REMARK 923 INTER-LIGAND FREE ENERGY PREDICTED BY IDOCK:   21.08 KCAL/MOL
REMARK 924 INTRA-LIGAND FREE ENERGY PREDICTED BY IDOCK:    5.54 KCAL/MOL
REMARK 927      BINDING AFFINITY PREDICTED BY RF-SCORE:    0.00 PKD
ROOT
HETATM    1  C   UNL     1      -8.473   7.619  69.591  1.00  0.00    -0.135 C  
HETATM    2  C   UNL     1      -9.009   8.752  68.765  1.00  0.00    -0.138 A  
HETATM    3  C   UNL     1      -9.265   8.575  67.400  1.00  0.00    -0.163 A  
HETATM    4  C   UNL     1      -9.716   9.637  66.595  1.00  0.00    -0.266 A  
HETATM    5  C   UNL     1      -9.956   9.370  65.133  1.00  0.00     0.197 C  
HETATM    6  C   UNL     1      -9.913  10.907  67.179  1.00  0.00    -0.221 A  
HETATM    7  C   UNL     1      -9.675  11.079  68.553  1.00  0.00    -0.189 A  
HETATM    8  C   UNL     1      -9.225  10.009  69.337  1.00  0.00    -0.229 A  
ENDROOT
BRANCH   6   9
HETATM    9  C   UNL     1     -10.315  12.074  66.331  1.00  0.00    -0.216 C  
HETATM   10  O   UNL     1      -9.672  12.464  65.369  1.00  0.00    -0.217 OA 
BRANCH   9  11
HETATM   11  O   UNL     1     -11.485  12.611  66.762  1.00  0.00    -0.310 OA 
BRANCH  11  12
HETATM   12  C   UNL     1     -11.345  13.885  67.419  1.00  0.00    -0.326 C  
BRANCH  12  13
HETATM   13  C   UNL     1     -10.285  14.712  66.734  1.00  0.00    -0.268 A  
HETATM   14  C   UNL     1      -9.243  14.100  66.025  1.00  0.00    -0.005 A  
HETATM   15  C   UNL     1      -8.182  14.857  65.525  1.00  0.00     3.346 A  
HETATM   16  C   UNL     1      -8.143  16.244  65.725  1.00  0.00     0.752 A  
HETATM   17  C   UNL     1      -9.241  16.865  66.340  1.00  0.00    -0.308 A  
HETATM   18  C   UNL     1      -6.901  17.032  65.315  1.00  0.00     2.310 C  
HETATM   19  C   UNL     1     -10.291  16.105  66.856  1.00  0.00    -0.297 A  
HETATM   20  C   UNL     1      -6.630  18.227  66.251  1.00  0.00    -0.228 C  
HETATM   21  C   UNL     1      -7.008  17.495  63.844  1.00  0.00     8.914 C  
HETATM   22  O   UNL     1      -6.627  19.380  65.819  1.00  0.00    -0.213 OA 
HETATM   23  N   UNL     1      -5.792  18.161  63.353  1.00  0.00     1.133 NA 
HETATM   24  N   UNL     1      -6.433  17.878  67.584  1.00  0.00    -0.177 N  
HETATM   25  H1  UNL     1      -5.863  18.466  62.382  1.00  0.00     0.000 HD 
HETATM   26  H2  UNL     1      -4.975  17.566  63.487  1.00  0.00     0.000 HD 
HETATM   27  H   UNL     1      -6.503  16.890  67.824  1.00  0.00     0.000 HD 
BRANCH  24  28
HETATM   28  C   UNL     1      -6.143  18.783  68.632  1.00  0.00    -0.219 A  
HETATM   29  C   UNL     1      -6.084  20.165  68.438  1.00  0.00    -0.314 A  
HETATM   30  C   UNL     1      -5.834  21.032  69.501  1.00  0.00    -0.031 A  
HETATM   31  C   UNL     1      -5.620  20.531  70.789  1.00  0.00    -0.261 A  
HETATM   32  C   UNL     1      -5.378  21.364  71.883  1.00  0.00     0.654 A  
HETATM   33  N   UNL     1      -5.147  20.926  73.141  1.00  0.00     2.067 NA 
HETATM   34  C   UNL     1      -5.159  19.590  73.321  1.00  0.00     6.048 A  
HETATM   35  C   UNL     1      -5.400  18.671  72.308  1.00  0.00     0.814 A  
HETATM   36  C   UNL     1      -5.638  19.139  71.008  1.00  0.00    -0.194 A  
HETATM   37  C   UNL     1      -5.898  18.275  69.919  1.00  0.00    -0.235 A  
ENDBRANCH  24  28
ENDBRANCH  12  13
ENDBRANCH  11  12
ENDBRANCH   9  11
ENDBRANCH   6   9
TORSDOF 5
ENDMDL
MODEL      244
REMARK 921   NORMALIZED FREE ENERGY PREDICTED BY IDOCK:   23.72 KCAL/MOL
REMARK 922        TOTAL FREE ENERGY PREDICTED BY IDOCK:   28.43 KCAL/MOL
REMARK 923 INTER-LIGAND FREE ENERGY PREDICTED BY IDOCK:   16.84 KCAL/MOL
REMARK 924 INTRA-LIGAND FREE ENERGY PREDICTED BY IDOCK:   11.59 KCAL/MOL
REMARK 927      BINDING AFFINITY PREDICTED BY RF-SCORE:    0.00 PKD
ROOT
HETATM    1  C   UNL     1      -8.700  20.435  69.449  1.00  0.00     0.968 C  
HETATM    2  C   UNL     1      -9.064  19.700  68.192  1.00  0.00    -0.392 A  
HETATM    3  C   UNL     1     -10.198  18.881  68.152  1.00  0.00    -0.454 A  
HETATM    4  C   UNL     1     -10.528  18.140  67.003  1.00  0.00    -0.385 A  
HETATM    5  C   UNL     1     -11.757  17.271  67.044  1.00  0.00     1.636 C  
HETATM    6  C   UNL     1      -9.696  18.226  65.867  1.00  0.00     0.039 A  
HETATM    7  C   UNL     1      -8.568  19.064  65.899  1.00  0.00     0.091 A  
HETATM    8  C   UNL     1      -8.256  19.793  67.054  1.00  0.00    -0.340 A  
ENDROOT
BRANCH   6   9
HETATM    9  C   UNL     1      -9.977  17.388  64.659  1.00  0.00     3.178 C  
HETATM   10  O   UNL     1      -9.211  17.284  63.713  1.00  0.00     8.894 OA 
BRANCH   9  11
HETATM   11  O   UNL     1     -11.173  16.753  64.771  1.00  0.00    -0.635 OA 
BRANCH  11  12
HETATM   12  C   UNL     1     -11.072  15.358  65.111  1.00  0.00    -0.394 C  
BRANCH  12  13
HETATM   13  C   UNL     1     -11.267  15.165  66.595  1.00  0.00    -0.274 A  
HETATM   14  C   UNL     1     -10.575  15.960  67.518  1.00  0.00    -0.315 A  
HETATM   15  C   UNL     1     -10.639  15.680  68.885  1.00  0.00    -0.228 A  
HETATM   16  C   UNL     1     -11.396  14.597  69.354  1.00  0.00    -0.314 A  
HETATM   17  C   UNL     1     -12.173  13.874  68.435  1.00  0.00    -0.194 A  
HETATM   18  C   UNL     1     -11.326  14.207  70.828  1.00  0.00     0.145 C  
HETATM   19  C   UNL     1     -12.093  14.142  67.068  1.00  0.00    -0.449 A  
HETATM   20  C   UNL     1     -11.472  12.687  71.039  1.00  0.00     1.659 C  
HETATM   21  C   UNL     1     -12.380  14.984  71.650  1.00  0.00    -0.342 C  
HETATM   22  O   UNL     1     -12.403  12.228  71.702  1.00  0.00    -0.022 OA 
HETATM   23  N   UNL     1     -12.286  14.739  73.098  1.00  0.00    -0.283 NA 
HETATM   24  N   UNL     1     -10.501  11.923  70.400  1.00  0.00     1.398 N  
HETATM   25  H1  UNL     1     -12.981  15.251  73.640  1.00  0.00     0.000 HD 
HETATM   26  H2  UNL     1     -11.344  14.934  73.437  1.00  0.00     0.000 HD 
HETATM   27  H   UNL     1      -9.805  12.421  69.844  1.00  0.00     0.000 HD 
BRANCH  24  28
HETATM   28  C   UNL     1     -10.398  10.513  70.459  1.00  0.00     0.478 A  
HETATM   29  C   UNL     1      -9.495   9.859  71.300  1.00  0.00     1.077 A  
HETATM   30  C   UNL     1      -9.447   8.467  71.362  1.00  0.00    -0.251 A  
HETATM   31  C   UNL     1     -10.297   7.693  70.567  1.00  0.00    -0.211 A  
HETATM   32  C   UNL     1     -10.290   6.296  70.606  1.00  0.00    -0.203 A  
HETATM   33  N   UNL     1     -11.078   5.505  69.845  1.00  0.00    -0.141 NA 
HETATM   34  C   UNL     1     -11.919   6.135  69.000  1.00  0.00     1.507 A  
HETATM   35  C   UNL     1     -12.018   7.515  68.886  1.00  0.00     1.726 A  
HETATM   36  C   UNL     1     -11.194   8.325  69.683  1.00  0.00     0.085 A  
HETATM   37  C   UNL     1     -11.232   9.737  69.636  1.00  0.00    -0.216 A  
ENDBRANCH  24  28
ENDBRANCH  12  13
ENDBRANCH  11  12
ENDBRANCH   9  11
ENDBRANCH   6   9
TORSDOF 5
ENDMDL
MODEL      245
REMARK 921   NORMALIZED FREE ENERGY PREDICTED BY IDOCK:   24.22 KCAL/MOL
REMARK 922        TOTAL FREE ENERGY PREDICTED BY IDOCK:   29.08 KCAL/MOL
REMARK 923 INTER-LIGAND FREE ENERGY PREDICTED BY IDOCK:   20.35 KCAL/MOL
REMARK 924 INTRA-LIGAND FREE ENERGY PREDICTED BY IDOCK:    8.72 KCAL/MOL
REMARK 927      BINDING AFFINITY PREDICTED BY RF-SCORE:    0.00 PKD
ROOT
HETATM    1  C   UNL     1      -8.150   7.440  65.028  1.00  0.00    -0.122 C  
HETATM    2  C   UNL     1      -7.519   6.509  66.023  1.00  0.00    -0.081 A  
HETATM    3  C   UNL     1      -8.028   5.218  66.208  1.00  0.00    -0.104 A  
HETATM    4  C   UNL     1      -7.487   4.348  67.172  1.00  0.00    -0.078 A  
HETATM    5  C   UNL     1      -8.099   2.981  67.320  1.00  0.00    -0.078 C  
HETATM    6  C   UNL     1      -6.409   4.789  67.969  1.00  0.00    -0.037 A  
HETATM    7  C   UNL     1      -5.885   6.077  67.769  1.00  0.00    -0.016 A  
HETATM    8  C   UNL     1      -6.438   6.929  66.805  1.00  0.00    -0.047 A  
ENDROOT
BRANCH   6   9
HETATM    9  C   UNL     1      -5.866   3.915  69.056  1.00  0.00    -0.022 C  
HETATM   10  O   UNL     1      -5.163   2.938  68.852  1.00  0.00    -0.011 OA 
BRANCH   9  11
HETATM   11  O   UNL     1      -6.241   4.367  70.280  1.00  0.00    -0.021 OA 
BRANCH  11  12
HETATM   12  C   UNL     1      -7.551   3.936  70.695  1.00  0.00    -0.044 C  
BRANCH  12  13
HETATM   13  C   UNL     1      -8.614   4.694  69.939  1.00  0.00    -0.096 A  
HETATM   14  C   UNL     1      -9.059   4.249  68.687  1.00  0.00    -0.178 A  
HETATM   15  C   UNL     1      -9.928   5.032  67.922  1.00  0.00    -0.193 A  
HETATM   16  C   UNL     1     -10.367   6.276  68.396  1.00  0.00    -0.237 A  
HETATM   17  C   UNL     1     -10.005   6.665  69.695  1.00  0.00    -0.191 A  
HETATM   18  C   UNL     1     -11.182   7.188  67.483  1.00  0.00    -0.029 C  
HETATM   19  C   UNL     1      -9.122   5.892  70.450  1.00  0.00    -0.157 A  
HETATM   20  C   UNL     1     -10.898   8.681  67.741  1.00  0.00    -0.005 C  
HETATM   21  C   UNL     1     -12.692   6.881  67.611  1.00  0.00     8.295 C  
HETATM   22  O   UNL     1     -11.796   9.440  68.107  1.00  0.00     0.893 OA 
HETATM   23  N   UNL     1     -13.524   7.648  66.670  1.00  0.00    14.720 NA 
HETATM   24  N   UNL     1      -9.571   9.052  67.557  1.00  0.00    -0.140 N  
HETATM   25  H1  UNL     1     -14.521   7.445  66.755  1.00  0.00     0.000 HD 
HETATM   26  H2  UNL     1     -13.206   7.510  65.711  1.00  0.00     0.000 HD 
HETATM   27  H   UNL     1      -8.912   8.319  67.293  1.00  0.00     0.000 HD 
BRANCH  24  28
HETATM   28  C   UNL     1      -9.059  10.364  67.704  1.00  0.00    -0.138 A  
HETATM   29  C   UNL     1      -7.692  10.646  67.663  1.00  0.00    -0.097 A  
HETATM   30  C   UNL     1      -7.223  11.955  67.772  1.00  0.00    -0.104 A  
HETATM   31  C   UNL     1      -8.118  13.016  67.943  1.00  0.00    -0.158 A  
HETATM   32  C   UNL     1      -7.692  14.342  68.046  1.00  0.00    -0.141 A  
HETATM   33  N   UNL     1      -8.516  15.398  68.230  1.00  0.00    -0.156 NA 
HETATM   34  C   UNL     1      -9.833  15.121  68.315  1.00  0.00    -0.223 A  
HETATM   35  C   UNL     1     -10.367  13.843  68.215  1.00  0.00    -0.249 A  
HETATM   36  C   UNL     1      -9.501  12.756  68.024  1.00  0.00    -0.213 A  
HETATM   37  C   UNL     1      -9.958  11.424  67.906  1.00  0.00    -0.190 A  
ENDBRANCH  24  28
ENDBRANCH  12  13
ENDBRANCH  11  12
ENDBRANCH   9  11
ENDBRANCH   6   9
TORSDOF 5
ENDMDL
MODEL      246
REMARK 921   NORMALIZED FREE ENERGY PREDICTED BY IDOCK:   26.08 KCAL/MOL
REMARK 922        TOTAL FREE ENERGY PREDICTED BY IDOCK:   31.48 KCAL/MOL
REMARK 923 INTER-LIGAND FREE ENERGY PREDICTED BY IDOCK:   23.14 KCAL/MOL
REMARK 924 INTRA-LIGAND FREE ENERGY PREDICTED BY IDOCK:    8.34 KCAL/MOL
REMARK 927      BINDING AFFINITY PREDICTED BY RF-SCORE:    0.00 PKD
ROOT
HETATM    1  C   UNL     1      -6.086   7.697  68.117  1.00  0.00    -0.040 C  
HETATM    2  C   UNL     1      -6.654   8.972  67.566  1.00  0.00    -0.065 A  
HETATM    3  C   UNL     1      -6.946   9.089  66.202  1.00  0.00    -0.085 A  
HETATM    4  C   UNL     1      -7.427  10.292  65.655  1.00  0.00    -0.149 A  
HETATM    5  C   UNL     1      -7.704  10.341  64.176  1.00  0.00    -0.097 C  
HETATM    6  C   UNL     1      -7.619  11.404  66.502  1.00  0.00    -0.080 A  
HETATM    7  C   UNL     1      -7.346  11.282  67.874  1.00  0.00    -0.092 A  
HETATM    8  C   UNL     1      -6.865  10.075  68.400  1.00  0.00    -0.062 A  
ENDROOT
BRANCH   6   9
HETATM    9  C   UNL     1      -8.054  12.719  65.934  1.00  0.00     1.664 C  
HETATM   10  O   UNL     1      -7.281  13.551  65.485  1.00  0.00     5.104 OA 
BRANCH   9  11
HETATM   11  O   UNL     1      -9.406  12.845  65.969  1.00  0.00    -0.161 OA 
BRANCH  11  12
HETATM   12  C   UNL     1     -10.099  12.061  64.979  1.00  0.00    -0.264 C  
BRANCH  12  13
HETATM   13  C   UNL     1     -10.443  10.702  65.537  1.00  0.00    -0.246 A  
HETATM   14  C   UNL     1     -11.775  10.278  65.623  1.00  0.00     2.826 A  
HETATM   15  C   UNL     1     -12.101   9.088  66.277  1.00  0.00     8.154 A  
HETATM   16  C   UNL     1     -11.099   8.299  66.860  1.00  0.00     0.603 A  
HETATM   17  C   UNL     1      -9.759   8.673  66.675  1.00  0.00    -0.315 A  
HETATM   18  C   UNL     1     -11.486   7.091  67.709  1.00  0.00     0.363 C  
HETATM   19  C   UNL     1      -9.435   9.872  66.038  1.00  0.00    -0.258 A  
HETATM   20  C   UNL     1     -10.498   6.849  68.868  1.00  0.00    -0.208 C  
HETATM   21  C   UNL     1     -11.627   5.827  66.829  1.00  0.00     1.187 C  
HETATM   22  O   UNL     1      -9.861   5.799  68.946  1.00  0.00    -0.132 OA 
HETATM   23  N   UNL     1     -12.110   4.652  67.570  1.00  0.00     7.139 NA 
HETATM   24  N   UNL     1     -10.385   7.914  69.756  1.00  0.00    -0.214 N  
HETATM   25  H1  UNL     1     -12.204   3.819  66.990  1.00  0.00     0.000 HD 
HETATM   26  H2  UNL     1     -12.987   4.862  68.048  1.00  0.00     0.000 HD 
HETATM   27  H   UNL     1     -10.936   8.749  69.558  1.00  0.00     0.000 HD 
BRANCH  24  28
HETATM   28  C   UNL     1      -9.569   7.932  70.913  1.00  0.00    -0.161 A  
HETATM   29  C   UNL     1     -10.091   8.090  72.198  1.00  0.00    -0.298 A  
HETATM   30  C   UNL     1      -9.263   8.064  73.320  1.00  0.00    -0.347 A  
HETATM   31  C   UNL     1      -7.882   7.895  73.177  1.00  0.00    -0.187 A  
HETATM   32  C   UNL     1      -7.019   7.852  74.274  1.00  0.00    -0.128 A  
HETATM   33  N   UNL     1      -5.678   7.708  74.186  1.00  0.00    -0.067 NA 
HETATM   34  C   UNL     1      -5.168   7.600  72.943  1.00  0.00    -0.037 A  
HETATM   35  C   UNL     1      -5.933   7.618  71.785  1.00  0.00    -0.035 A  
HETATM   36  C   UNL     1      -7.324   7.768  71.890  1.00  0.00    -0.071 A  
HETATM   37  C   UNL     1      -8.179   7.792  70.764  1.00  0.00    -0.107 A  
ENDBRANCH  24  28
ENDBRANCH  12  13
ENDBRANCH  11  12
ENDBRANCH   9  11
ENDBRANCH   6   9
TORSDOF 5
ENDMDL
MODEL      247
REMARK 921   NORMALIZED FREE ENERGY PREDICTED BY IDOCK:   26.38 KCAL/MOL
REMARK 922        TOTAL FREE ENERGY PREDICTED BY IDOCK:   31.87 KCAL/MOL
REMARK 923 INTER-LIGAND FREE ENERGY PREDICTED BY IDOCK:    6.66 KCAL/MOL
REMARK 924 INTRA-LIGAND FREE ENERGY PREDICTED BY IDOCK:   25.21 KCAL/MOL
REMARK 927      BINDING AFFINITY PREDICTED BY RF-SCORE:    0.00 PKD
ROOT
HETATM    1  C   UNL     1     -12.247  13.573  63.969  1.00  0.00    -0.458 C  
HETATM    2  C   UNL     1     -11.711  14.271  65.185  1.00  0.00    -0.368 A  
HETATM    3  C   UNL     1     -12.481  14.355  66.351  1.00  0.00    -0.196 A  
HETATM    4  C   UNL     1     -12.022  15.050  67.484  1.00  0.00    -0.078 A  
HETATM    5  C   UNL     1     -12.915  15.107  68.695  1.00  0.00     1.475 C  
HETATM    6  C   UNL     1     -10.758  15.676  67.442  1.00  0.00    -0.309 A  
HETATM    7  C   UNL     1      -9.976  15.574  66.279  1.00  0.00    -0.313 A  
HETATM    8  C   UNL     1     -10.452  14.878  65.160  1.00  0.00    -0.442 A  
ENDROOT
BRANCH   6   9
HETATM    9  C   UNL     1     -10.278  16.489  68.604  1.00  0.00    -0.264 C  
HETATM   10  O   UNL     1      -9.099  16.687  68.851  1.00  0.00    -0.245 OA 
BRANCH   9  11
HETATM   11  O   UNL     1     -11.322  16.987  69.317  1.00  0.00     0.100 OA 
BRANCH  11  12
HETATM   12  C   UNL     1     -11.903  16.052  70.245  1.00  0.00    -0.254 C  
BRANCH  12  13
HETATM   13  C   UNL     1     -11.893  14.661  69.661  1.00  0.00    -0.367 A  
HETATM   14  C   UNL     1     -13.044  13.864  69.686  1.00  0.00     0.969 A  
HETATM   15  C   UNL     1     -12.992  12.527  69.286  1.00  0.00     1.553 A  
HETATM   16  C   UNL     1     -11.784  11.961  68.855  1.00  0.00    -0.381 A  
HETATM   17  C   UNL     1     -10.661  12.792  68.730  1.00  0.00    -0.216 A  
HETATM   18  C   UNL     1     -11.708  10.461  68.578  1.00  0.00    -0.039 C  
HETATM   19  C   UNL     1     -10.709  14.123  69.147  1.00  0.00    -0.216 A  
HETATM   20  C   UNL     1     -10.326   9.871  68.922  1.00  0.00    -0.205 C  
HETATM   21  C   UNL     1     -12.091  10.156  67.111  1.00  0.00     3.519 C  
HETATM   22  O   UNL     1      -9.632   9.340  68.054  1.00  0.00    -0.140 OA 
HETATM   23  N   UNL     1     -12.149   8.717  66.811  1.00  0.00     4.824 NA 
HETATM   24  N   UNL     1      -9.950  10.028  70.252  1.00  0.00    -0.395 N  
HETATM   25  H1  UNL     1     -12.402   8.516  65.844  1.00  0.00     0.000 HD 
HETATM   26  H2  UNL     1     -12.777   8.239  67.457  1.00  0.00     0.000 HD 
HETATM   27  H   UNL     1     -10.596  10.526  70.865  1.00  0.00     0.000 HD 
BRANCH  24  28
HETATM   28  C   UNL     1      -8.746   9.554  70.824  1.00  0.00    -0.046 A  
HETATM   29  C   UNL     1      -7.501   9.749  70.223  1.00  0.00    -0.173 A  
HETATM   30  C   UNL     1      -6.328   9.303  70.833  1.00  0.00    -0.076 A  
HETATM   31  C   UNL     1      -6.379   8.633  72.059  1.00  0.00    -0.073 A  
HETATM   32  C   UNL     1      -5.229   8.180  72.710  1.00  0.00    -0.037 A  
HETATM   33  N   UNL     1      -5.228   7.513  73.885  1.00  0.00    -0.045 NA 
HETATM   34  C   UNL     1      -6.433   7.285  74.445  1.00  0.00    -0.082 A  
HETATM   35  C   UNL     1      -7.638   7.700  73.892  1.00  0.00    -0.162 A  
HETATM   36  C   UNL     1      -7.624   8.392  72.672  1.00  0.00    -0.130 A  
HETATM   37  C   UNL     1      -8.802   8.855  72.041  1.00  0.00    -0.069 A  
ENDBRANCH  24  28
ENDBRANCH  12  13
ENDBRANCH  11  12
ENDBRANCH   9  11
ENDBRANCH   6   9
TORSDOF 5
ENDMDL
MODEL      248
REMARK 921   NORMALIZED FREE ENERGY PREDICTED BY IDOCK:   30.11 KCAL/MOL
REMARK 922        TOTAL FREE ENERGY PREDICTED BY IDOCK:   36.69 KCAL/MOL
REMARK 923 INTER-LIGAND FREE ENERGY PREDICTED BY IDOCK:   15.96 KCAL/MOL
REMARK 924 INTRA-LIGAND FREE ENERGY PREDICTED BY IDOCK:   20.73 KCAL/MOL
REMARK 927      BINDING AFFINITY PREDICTED BY RF-SCORE:    0.00 PKD
ROOT
HETATM    1  C   UNL     1      -7.028   8.680  65.248  1.00  0.00    -0.075 C  
HETATM    2  C   UNL     1      -6.704   7.730  66.364  1.00  0.00    -0.054 A  
HETATM    3  C   UNL     1      -7.365   6.501  66.464  1.00  0.00    -0.078 A  
HETATM    4  C   UNL     1      -7.117   5.619  67.532  1.00  0.00    -0.074 A  
HETATM    5  C   UNL     1      -7.880   4.322  67.576  1.00  0.00    -0.088 C  
HETATM    6  C   UNL     1      -6.180   5.984  68.522  1.00  0.00    -0.032 A  
HETATM    7  C   UNL     1      -5.501   7.208  68.411  1.00  0.00    -0.021 A  
HETATM    8  C   UNL     1      -5.763   8.073  67.340  1.00  0.00    -0.038 A  
ENDROOT
BRANCH   6   9
HETATM    9  C   UNL     1      -5.955   5.102  69.710  1.00  0.00    -0.021 C  
HETATM   10  O   UNL     1      -5.176   4.161  69.717  1.00  0.00    -0.007 OA 
BRANCH   9  11
HETATM   11  O   UNL     1      -6.707   5.503  70.767  1.00  0.00    -0.041 OA 
BRANCH  11  12
HETATM   12  C   UNL     1      -7.942   4.780  70.923  1.00  0.00    -0.082 C  
BRANCH  12  13
HETATM   13  C   UNL     1      -8.791   4.921  69.683  1.00  0.00    -0.117 A  
HETATM   14  C   UNL     1      -8.457   4.243  68.504  1.00  0.00    -0.103 A  
HETATM   15  C   UNL     1      -9.152   4.493  67.319  1.00  0.00    -0.138 A  
HETATM   16  C   UNL     1     -10.194   5.430  67.291  1.00  0.00    -0.258 A  
HETATM   17  C   UNL     1     -10.595   6.025  68.498  1.00  0.00    -0.325 A  
HETATM   18  C   UNL     1     -10.833   5.810  65.957  1.00  0.00     0.283 C  
HETATM   19  C   UNL     1      -9.888   5.788  69.677  1.00  0.00    -0.230 A  
HETATM   20  C   UNL     1     -11.289   7.283  65.926  1.00  0.00     4.110 C  
HETATM   21  C   UNL     1     -12.007   4.860  65.623  1.00  0.00     2.724 C  
HETATM   22  O   UNL     1     -12.474   7.574  65.759  1.00  0.00     8.536 OA 
HETATM   23  N   UNL     1     -12.591   5.102  64.295  1.00  0.00     3.245 NA 
HETATM   24  N   UNL     1     -10.267   8.204  66.130  1.00  0.00    -0.382 N  
HETATM   25  H1  UNL     1     -13.365   4.475  64.074  1.00  0.00     0.000 HD 
HETATM   26  H2  UNL     1     -11.874   5.062  63.571  1.00  0.00     0.000 HD 
HETATM   27  H   UNL     1      -9.332   7.835  66.300  1.00  0.00     0.000 HD 
BRANCH  24  28
HETATM   28  C   UNL     1     -10.419   9.611  66.122  1.00  0.00    -0.041 A  
HETATM   29  C   UNL     1     -11.038  10.293  65.072  1.00  0.00     1.205 A  
HETATM   30  C   UNL     1     -11.207  11.677  65.113  1.00  0.00    -0.262 A  
HETATM   31  C   UNL     1     -10.742  12.415  66.206  1.00  0.00    -0.287 A  
HETATM   32  C   UNL     1     -10.901  13.801  66.293  1.00  0.00    -0.283 A  
HETATM   33  N   UNL     1     -10.454  14.559  67.318  1.00  0.00    -0.264 NA 
HETATM   34  C   UNL     1      -9.817  13.906  68.311  1.00  0.00    -0.231 A  
HETATM   35  C   UNL     1      -9.614  12.533  68.334  1.00  0.00    -0.176 A  
HETATM   36  C   UNL     1     -10.083  11.757  67.263  1.00  0.00    -0.211 A  
HETATM   37  C   UNL     1      -9.925  10.353  67.207  1.00  0.00    -0.229 A  
ENDBRANCH  24  28
ENDBRANCH  12  13
ENDBRANCH  11  12
ENDBRANCH   9  11
ENDBRANCH   6   9
TORSDOF 5
ENDMDL
MODEL      249
REMARK 921   NORMALIZED FREE ENERGY PREDICTED BY IDOCK:   30.41 KCAL/MOL
REMARK 922        TOTAL FREE ENERGY PREDICTED BY IDOCK:   37.08 KCAL/MOL
REMARK 923 INTER-LIGAND FREE ENERGY PREDICTED BY IDOCK:   37.93 KCAL/MOL
REMARK 924 INTRA-LIGAND FREE ENERGY PREDICTED BY IDOCK:   -0.86 KCAL/MOL
REMARK 927      BINDING AFFINITY PREDICTED BY RF-SCORE:    0.00 PKD
ROOT
HETATM    1  C   UNL     1     -13.930  11.678  69.964  1.00  0.00     4.476 C  
HETATM    2  C   UNL     1     -13.199  11.323  68.702  1.00  0.00     3.801 A  
HETATM    3  C   UNL     1     -12.537  12.310  67.964  1.00  0.00     1.399 A  
HETATM    4  C   UNL     1     -11.892  12.010  66.751  1.00  0.00    -0.244 A  
HETATM    5  C   UNL     1     -11.214  13.131  66.009  1.00  0.00    -0.316 C  
HETATM    6  C   UNL     1     -11.914  10.684  66.269  1.00  0.00     2.404 A  
HETATM    7  C   UNL     1     -12.561   9.688  67.020  1.00  0.00     9.214 A  
HETATM    8  C   UNL     1     -13.199  10.008  68.226  1.00  0.00     7.648 A  
ENDROOT
BRANCH   6   9
HETATM    9  C   UNL     1     -11.306  10.351  64.943  1.00  0.00     1.740 C  
HETATM   10  O   UNL     1     -10.855  11.188  64.176  1.00  0.00    -0.370 OA 
BRANCH   9  11
HETATM   11  O   UNL     1     -11.305   9.011  64.727  1.00  0.00     6.441 OA 
BRANCH  11  12
HETATM   12  C   UNL     1      -9.995   8.413  64.719  1.00  0.00     2.572 C  
BRANCH  12  13
HETATM   13  C   UNL     1      -9.240   8.793  65.969  1.00  0.00    -0.282 A  
HETATM   14  C   UNL     1      -9.527   8.180  67.195  1.00  0.00    -0.207 A  
HETATM   15  C   UNL     1      -8.937   8.640  68.375  1.00  0.00    -0.142 A  
HETATM   16  C   UNL     1      -8.049   9.724  68.350  1.00  0.00    -0.104 A  
HETATM   17  C   UNL     1      -7.682  10.262  67.106  1.00  0.00    -0.092 A  
HETATM   18  C   UNL     1      -7.541  10.316  69.662  1.00  0.00    -0.167 C  
HETATM   19  C   UNL     1      -8.287   9.815  65.931  1.00  0.00    -0.128 A  
HETATM   20  C   UNL     1      -7.312  11.837  69.568  1.00  0.00     0.238 C  
HETATM   21  C   UNL     1      -6.257   9.591  70.128  1.00  0.00    -0.059 C  
HETATM   22  O   UNL     1      -6.194  12.320  69.748  1.00  0.00    -0.129 OA 
HETATM   23  N   UNL     1      -5.782  10.038  71.447  1.00  0.00    -0.222 NA 
HETATM   24  N   UNL     1      -8.449  12.569  69.240  1.00  0.00     0.095 N  
HETATM   25  H1  UNL     1      -4.935   9.559  71.754  1.00  0.00     0.000 HD 
HETATM   26  H2  UNL     1      -6.520   9.953  72.145  1.00  0.00     0.000 HD 
HETATM   27  H   UNL     1      -9.309  12.047  69.073  1.00  0.00     0.000 HD 
BRANCH  24  28
HETATM   28  C   UNL     1      -8.509  13.978  69.118  1.00  0.00     0.260 A  
HETATM   29  C   UNL     1      -8.173  14.837  70.166  1.00  0.00     0.728 A  
HETATM   30  C   UNL     1      -8.206  16.222  70.001  1.00  0.00     1.111 A  
HETATM   31  C   UNL     1      -8.594  16.780  68.779  1.00  0.00    -0.255 A  
HETATM   32  C   UNL     1      -8.630  18.160  68.568  1.00  0.00    -0.294 A  
HETATM   33  N   UNL     1      -9.014  18.747  67.413  1.00  0.00    -0.271 NA 
HETATM   34  C   UNL     1      -9.382  17.919  66.414  1.00  0.00    -0.255 A  
HETATM   35  C   UNL     1      -9.374  16.533  66.511  1.00  0.00    -0.295 A  
HETATM   36  C   UNL     1      -8.972  15.937  67.715  1.00  0.00    -0.176 A  
HETATM   37  C   UNL     1      -8.928  14.536  67.899  1.00  0.00    -0.187 A  
ENDBRANCH  24  28
ENDBRANCH  12  13
ENDBRANCH  11  12
ENDBRANCH   9  11
ENDBRANCH   6   9
TORSDOF 5
ENDMDL
MODEL      250
REMARK 921   NORMALIZED FREE ENERGY PREDICTED BY IDOCK:   31.93 KCAL/MOL
REMARK 922        TOTAL FREE ENERGY PREDICTED BY IDOCK:   39.04 KCAL/MOL
REMARK 923 INTER-LIGAND FREE ENERGY PREDICTED BY IDOCK:   13.14 KCAL/MOL
REMARK 924 INTRA-LIGAND FREE ENERGY PREDICTED BY IDOCK:   25.90 KCAL/MOL
REMARK 927      BINDING AFFINITY PREDICTED BY RF-SCORE:    0.00 PKD
ROOT
HETATM    1  C   UNL     1      -9.413  15.725  72.771  1.00  0.00     8.575 C  
HETATM    2  C   UNL     1     -10.126  15.052  71.634  1.00  0.00     2.068 A  
HETATM    3  C   UNL     1      -9.422  14.652  70.493  1.00  0.00     1.572 A  
HETATM    4  C   UNL     1     -10.077  14.069  69.393  1.00  0.00     0.245 A  
HETATM    5  C   UNL     1      -9.250  13.678  68.197  1.00  0.00    -0.204 C  
HETATM    6  C   UNL     1     -11.475  13.886  69.444  1.00  0.00    -0.334 A  
HETATM    7  C   UNL     1     -12.180  14.270  70.597  1.00  0.00    -0.427 A  
HETATM    8  C   UNL     1     -11.509  14.849  71.682  1.00  0.00    -0.288 A  
ENDROOT
BRANCH   6   9
HETATM    9  C   UNL     1     -12.209  13.343  68.258  1.00  0.00    -0.085 C  
HETATM   10  O   UNL     1     -11.873  12.334  67.658  1.00  0.00    -0.434 OA 
BRANCH   9  11
HETATM   11  O   UNL     1     -13.295  14.104  67.964  1.00  0.00     2.436 OA 
BRANCH  11  12
HETATM   12  C   UNL     1     -13.000  15.495  67.740  1.00  0.00     2.772 C  
BRANCH  12  13
HETATM   13  C   UNL     1     -11.520  15.686  67.515  1.00  0.00    -0.121 A  
HETATM   14  C   UNL     1     -11.021  15.988  66.242  1.00  0.00    -0.071 A  
HETATM   15  C   UNL     1      -9.644  16.012  66.005  1.00  0.00    -0.385 A  
HETATM   16  C   UNL     1      -8.740  15.731  67.039  1.00  0.00    -0.251 A  
HETATM   17  C   UNL     1      -9.243  15.537  68.335  1.00  0.00    -0.191 A  
HETATM   18  C   UNL     1      -7.251  15.602  66.727  1.00  0.00     0.094 C  
HETATM   19  C   UNL     1     -10.618  15.494  68.567  1.00  0.00    -0.246 A  
HETATM   20  C   UNL     1      -6.553  14.565  67.629  1.00  0.00    -0.153 C  
HETATM   21  C   UNL     1      -6.552  16.978  66.820  1.00  0.00    -0.227 C  
HETATM   22  O   UNL     1      -5.635  14.898  68.380  1.00  0.00    -0.094 OA 
HETATM   23  N   UNL     1      -5.137  16.940  66.418  1.00  0.00    -0.363 NA 
HETATM   24  N   UNL     1      -7.071  13.278  67.532  1.00  0.00    -0.209 N  
HETATM   25  H1  UNL     1      -4.676  17.848  66.479  1.00  0.00     0.000 HD 
HETATM   26  H2  UNL     1      -5.037  16.544  65.484  1.00  0.00     0.000 HD 
HETATM   27  H   UNL     1      -7.863  13.139  66.904  1.00  0.00     0.000 HD 
BRANCH  24  28
HETATM   28  C   UNL     1      -6.591  12.147  68.233  1.00  0.00    -0.056 A  
HETATM   29  C   UNL     1      -5.951  12.245  69.471  1.00  0.00    -0.110 A  
HETATM   30  C   UNL     1      -5.524  11.107  70.154  1.00  0.00    -0.089 A  
HETATM   31  C   UNL     1      -5.715   9.836  69.602  1.00  0.00    -0.037 A  
HETATM   32  C   UNL     1      -5.314   8.670  70.256  1.00  0.00    -0.021 A  
HETATM   33  N   UNL     1      -5.460   7.423  69.756  1.00  0.00    -0.023 NA 
HETATM   34  C   UNL     1      -6.038   7.329  68.542  1.00  0.00    -0.027 A  
HETATM   35  C   UNL     1      -6.485   8.420  67.808  1.00  0.00    -0.061 A  
HETATM   36  C   UNL     1      -6.327   9.709  68.339  1.00  0.00    -0.051 A  
HETATM   37  C   UNL     1      -6.757  10.874  67.663  1.00  0.00    -0.069 A  
ENDBRANCH  24  28
ENDBRANCH  12  13
ENDBRANCH  11  12
ENDBRANCH   9  11
ENDBRANCH   6   9
TORSDOF 5
ENDMDL
MODEL      251
REMARK 921   NORMALIZED FREE ENERGY PREDICTED BY IDOCK:   34.62 KCAL/MOL
REMARK 922        TOTAL FREE ENERGY PREDICTED BY IDOCK:   42.51 KCAL/MOL
REMARK 923 INTER-LIGAND FREE ENERGY PREDICTED BY IDOCK:   42.25 KCAL/MOL
REMARK 924 INTRA-LIGAND FREE ENERGY PREDICTED BY IDOCK:    0.26 KCAL/MOL
REMARK 927      BINDING AFFINITY PREDICTED BY RF-SCORE:    0.00 PKD
ROOT
HETATM    1  C   UNL     1     -10.263   6.421  65.872  1.00  0.00     0.567 C  
HETATM    2  C   UNL     1     -10.307   7.838  65.376  1.00  0.00     2.886 A  
HETATM    3  C   UNL     1     -11.254   8.226  64.421  1.00  0.00    13.009 A  
HETATM    4  C   UNL     1     -11.278   9.533  63.902  1.00  0.00     7.259 A  
HETATM    5  C   UNL     1     -12.319   9.869  62.867  1.00  0.00     8.774 C  
HETATM    6  C   UNL     1     -10.326  10.471  64.355  1.00  0.00    -0.244 A  
HETATM    7  C   UNL     1      -9.388  10.087  65.328  1.00  0.00    -0.294 A  
HETATM    8  C   UNL     1      -9.380   8.780  65.832  1.00  0.00    -0.284 A  
ENDROOT
BRANCH   6   9
HETATM    9  C   UNL     1     -10.277  11.845  63.762  1.00  0.00    -0.413 C  
HETATM   10  O   UNL     1     -10.684  12.113  62.643  1.00  0.00     0.394 OA 
BRANCH   9  11
HETATM   11  O   UNL     1      -9.748  12.737  64.638  1.00  0.00    -0.059 OA 
BRANCH  11  12
HETATM   12  C   UNL     1     -10.688  13.253  65.599  1.00  0.00    -0.282 C  
BRANCH  12  13
HETATM   13  C   UNL     1     -10.731  14.760  65.531  1.00  0.00    -0.369 A  
HETATM   14  C   UNL     1     -10.540  15.429  64.315  1.00  0.00     0.730 A  
HETATM   15  C   UNL     1     -10.427  16.820  64.279  1.00  0.00     2.287 A  
HETATM   16  C   UNL     1     -10.502  17.570  65.462  1.00  0.00    -0.077 A  
HETATM   17  C   UNL     1     -10.802  16.904  66.660  1.00  0.00     0.023 A  
HETATM   18  C   UNL     1     -10.216  19.069  65.426  1.00  0.00     0.478 C  
HETATM   19  C   UNL     1     -10.895  15.512  66.698  1.00  0.00    -0.285 A  
HETATM   20  C   UNL     1      -9.545  19.568  66.722  1.00  0.00    -0.357 C  
HETATM   21  C   UNL     1     -11.507  19.866  65.129  1.00  0.00     1.444 C  
HETATM   22  O   UNL     1     -10.090  20.416  67.429  1.00  0.00    -0.417 OA 
HETATM   23  N   UNL     1     -11.277  21.310  64.967  1.00  0.00     2.601 NA 
HETATM   24  N   UNL     1      -8.329  18.958  67.009  1.00  0.00    -0.270 N  
HETATM   25  H1  UNL     1     -12.129  21.835  64.771  1.00  0.00     0.000 HD 
HETATM   26  H2  UNL     1     -10.570  21.485  64.254  1.00  0.00     0.000 HD 
HETATM   27  H   UNL     1      -8.003  18.237  66.365  1.00  0.00     0.000 HD 
BRANCH  24  28
HETATM   28  C   UNL     1      -7.505  19.257  68.121  1.00  0.00    -0.289 A  
HETATM   29  C   UNL     1      -6.111  19.267  68.043  1.00  0.00    -0.228 A  
HETATM   30  C   UNL     1      -5.330  19.604  69.148  1.00  0.00    -0.211 A  
HETATM   31  C   UNL     1      -5.931  19.924  70.369  1.00  0.00    -0.358 A  
HETATM   32  C   UNL     1      -5.188  20.278  71.497  1.00  0.00    -0.350 A  
HETATM   33  N   UNL     1      -5.721  20.577  72.702  1.00  0.00     0.399 NA 
HETATM   34  C   UNL     1      -7.065  20.524  72.791  1.00  0.00     3.498 A  
HETATM   35  C   UNL     1      -7.902  20.196  71.732  1.00  0.00     1.975 A  
HETATM   36  C   UNL     1      -7.335  19.887  70.487  1.00  0.00     0.669 A  
HETATM   37  C   UNL     1      -8.111  19.548  69.355  1.00  0.00     0.044 A  
ENDBRANCH  24  28
ENDBRANCH  12  13
ENDBRANCH  11  12
ENDBRANCH   9  11
ENDBRANCH   6   9
TORSDOF 5
ENDMDL
MODEL      252
REMARK 921   NORMALIZED FREE ENERGY PREDICTED BY IDOCK:   37.78 KCAL/MOL
REMARK 922        TOTAL FREE ENERGY PREDICTED BY IDOCK:   46.60 KCAL/MOL
REMARK 923 INTER-LIGAND FREE ENERGY PREDICTED BY IDOCK:   47.29 KCAL/MOL
REMARK 924 INTRA-LIGAND FREE ENERGY PREDICTED BY IDOCK:   -0.70 KCAL/MOL
REMARK 927      BINDING AFFINITY PREDICTED BY RF-SCORE:    0.00 PKD
ROOT
HETATM    1  C   UNL     1      -7.264  12.679  65.049  1.00  0.00     6.569 C  
HETATM    2  C   UNL     1      -7.246  12.942  66.527  1.00  0.00     1.228 A  
HETATM    3  C   UNL     1      -8.404  13.373  67.185  1.00  0.00    -0.149 A  
HETATM    4  C   UNL     1      -8.397  13.677  68.558  1.00  0.00    -0.110 A  
HETATM    5  C   UNL     1      -9.680  14.148  69.190  1.00  0.00     0.091 C  
HETATM    6  C   UNL     1      -7.195  13.545  69.286  1.00  0.00     0.095 A  
HETATM    7  C   UNL     1      -6.038  13.093  68.630  1.00  0.00    -0.080 A  
HETATM    8  C   UNL     1      -6.065  12.796  67.261  1.00  0.00    -0.042 A  
ENDROOT
BRANCH   6   9
HETATM    9  C   UNL     1      -7.139  13.938  70.729  1.00  0.00     1.415 C  
HETATM   10  O   UNL     1      -7.086  15.096  71.114  1.00  0.00     0.900 OA 
BRANCH   9  11
HETATM   11  O   UNL     1      -7.177  12.846  71.536  1.00  0.00     4.128 OA 
BRANCH  11  12
HETATM   12  C   UNL     1      -8.503  12.443  71.924  1.00  0.00    18.004 C  
BRANCH  12  13
HETATM   13  C   UNL     1      -8.656  10.948  71.785  1.00  0.00     9.105 A  
HETATM   14  C   UNL     1      -7.853  10.073  72.527  1.00  0.00     4.232 A  
HETATM   15  C   UNL     1      -7.888   8.698  72.286  1.00  0.00    -0.062 A  
HETATM   16  C   UNL     1      -8.729   8.172  71.295  1.00  0.00    -0.173 A  
HETATM   17  C   UNL     1      -9.609   9.040  70.632  1.00  0.00    -0.289 A  
HETATM   18  C   UNL     1      -8.637   6.691  70.934  1.00  0.00    -0.134 C  
HETATM   19  C   UNL     1      -9.559  10.416  70.860  1.00  0.00     1.747 A  
HETATM   20  C   UNL     1      -8.924   6.434  69.441  1.00  0.00    -0.131 C  
HETATM   21  C   UNL     1      -9.576   5.850  71.830  1.00  0.00    -0.151 C  
HETATM   22  O   UNL     1      -9.868   5.725  69.092  1.00  0.00    -0.145 OA 
HETATM   23  N   UNL     1      -9.448   4.402  71.609  1.00  0.00    -0.144 NA 
HETATM   24  N   UNL     1      -8.059   7.090  68.570  1.00  0.00    -0.123 N  
HETATM   25  H1  UNL     1     -10.067   3.847  72.201  1.00  0.00     0.000 HD 
HETATM   26  H2  UNL     1      -8.479   4.103  71.718  1.00  0.00     0.000 HD 
HETATM   27  H   UNL     1      -7.341   7.685  68.983  1.00  0.00     0.000 HD 
BRANCH  24  28
HETATM   28  C   UNL     1      -8.094   6.997  67.158  1.00  0.00    -0.118 A  
HETATM   29  C   UNL     1      -7.225   7.718  66.337  1.00  0.00    -0.075 A  
HETATM   30  C   UNL     1      -7.259   7.575  64.950  1.00  0.00    -0.070 A  
HETATM   31  C   UNL     1      -8.182   6.712  64.350  1.00  0.00     0.007 A  
HETATM   32  C   UNL     1      -8.243   6.530  62.966  1.00  0.00     0.022 A  
HETATM   33  N   UNL     1      -9.127   5.723  62.339  1.00  0.00     0.203 NA 
HETATM   34  C   UNL     1      -9.996   5.060  63.128  1.00  0.00     0.780 A  
HETATM   35  C   UNL     1     -10.018   5.157  64.514  1.00  0.00     0.693 A  
HETATM   36  C   UNL     1      -9.094   5.998  65.152  1.00  0.00     0.226 A  
HETATM   37  C   UNL     1      -9.041   6.153  66.556  1.00  0.00    -0.156 A  
ENDBRANCH  24  28
ENDBRANCH  12  13
ENDBRANCH  11  12
ENDBRANCH   9  11
ENDBRANCH   6   9
TORSDOF 5
ENDMDL
MODEL      253
REMARK 921   NORMALIZED FREE ENERGY PREDICTED BY IDOCK:   38.50 KCAL/MOL
REMARK 922        TOTAL FREE ENERGY PREDICTED BY IDOCK:   47.52 KCAL/MOL
REMARK 923 INTER-LIGAND FREE ENERGY PREDICTED BY IDOCK:   47.08 KCAL/MOL
REMARK 924 INTRA-LIGAND FREE ENERGY PREDICTED BY IDOCK:    0.45 KCAL/MOL
REMARK 927      BINDING AFFINITY PREDICTED BY RF-SCORE:    0.00 PKD
ROOT
HETATM    1  C   UNL     1     -10.166  18.198  71.956  1.00  0.00     5.134 C  
HETATM    2  C   UNL     1      -9.177  17.104  71.673  1.00  0.00     9.258 A  
HETATM    3  C   UNL     1      -9.206  15.914  72.408  1.00  0.00     8.713 A  
HETATM    4  C   UNL     1      -8.256  14.898  72.198  1.00  0.00     5.991 A  
HETATM    5  C   UNL     1      -8.346  13.653  73.039  1.00  0.00    12.262 C  
HETATM    6  C   UNL     1      -7.253  15.086  71.223  1.00  0.00     1.806 A  
HETATM    7  C   UNL     1      -7.236  16.271  70.470  1.00  0.00     1.750 A  
HETATM    8  C   UNL     1      -8.190  17.272  70.696  1.00  0.00     4.694 A  
ENDROOT
BRANCH   6   9
HETATM    9  C   UNL     1      -6.182  14.057  71.033  1.00  0.00    -0.004 C  
HETATM   10  O   UNL     1      -5.575  13.534  71.954  1.00  0.00    -0.363 OA 
BRANCH   9  11
HETATM   11  O   UNL     1      -6.001  13.776  69.717  1.00  0.00    -0.107 OA 
BRANCH  11  12
HETATM   12  C   UNL     1      -7.177  13.958  68.905  1.00  0.00    -0.103 C  
BRANCH  12  13
HETATM   13  C   UNL     1      -7.496  12.688  68.156  1.00  0.00    -0.122 A  
HETATM   14  C   UNL     1      -8.757  12.494  67.576  1.00  0.00    -0.182 A  
HETATM   15  C   UNL     1      -9.101  11.261  67.018  1.00  0.00    -0.167 A  
HETATM   16  C   UNL     1      -8.190  10.196  67.032  1.00  0.00    -0.118 A  
HETATM   17  C   UNL     1      -6.893  10.429  67.515  1.00  0.00    -0.075 A  
HETATM   18  C   UNL     1      -8.637   8.812  66.566  1.00  0.00    -0.126 C  
HETATM   19  C   UNL     1      -6.556  11.655  68.090  1.00  0.00    -0.061 A  
HETATM   20  C   UNL     1      -7.937   7.679  67.343  1.00  0.00    -0.119 C  
HETATM   21  C   UNL     1      -8.425   8.653  65.043  1.00  0.00    -0.173 C  
HETATM   22  O   UNL     1      -7.228   6.858  66.760  1.00  0.00    -0.073 OA 
HETATM   23  N   UNL     1      -8.943   7.382  64.513  1.00  0.00     0.102 NA 
HETATM   24  N   UNL     1      -8.156   7.704  68.716  1.00  0.00    -0.125 N  
HETATM   25  H1  UNL     1      -8.803   7.277  63.508  1.00  0.00     0.000 HD 
HETATM   26  H2  UNL     1      -9.926   7.263  64.757  1.00  0.00     0.000 HD 
HETATM   27  H   UNL     1      -8.729   8.463  69.084  1.00  0.00     0.000 HD 
BRANCH  24  28
HETATM   28  C   UNL     1      -7.649   6.763  69.644  1.00  0.00    -0.101 A  
HETATM   29  C   UNL     1      -6.362   6.230  69.546  1.00  0.00    -0.035 A  
HETATM   30  C   UNL     1      -5.879   5.334  70.499  1.00  0.00    -0.017 A  
HETATM   31  C   UNL     1      -6.685   4.937  71.570  1.00  0.00    -0.039 A  
HETATM   32  C   UNL     1      -6.237   4.051  72.553  1.00  0.00    -0.016 A  
HETATM   33  N   UNL     1      -6.984   3.624  73.595  1.00  0.00    -0.045 NA 
HETATM   34  C   UNL     1      -8.242   4.103  73.666  1.00  0.00    -0.089 A  
HETATM   35  C   UNL     1      -8.786   4.996  72.752  1.00  0.00    -0.122 A  
HETATM   36  C   UNL     1      -8.000   5.432  71.675  1.00  0.00    -0.116 A  
HETATM   37  C   UNL     1      -8.471   6.343  70.702  1.00  0.00    -0.135 A  
ENDBRANCH  24  28
ENDBRANCH  12  13
ENDBRANCH  11  12
ENDBRANCH   9  11
ENDBRANCH   6   9
TORSDOF 5
ENDMDL
MODEL      254
REMARK 921   NORMALIZED FREE ENERGY PREDICTED BY IDOCK:   38.70 KCAL/MOL
REMARK 922        TOTAL FREE ENERGY PREDICTED BY IDOCK:   47.78 KCAL/MOL
REMARK 923 INTER-LIGAND FREE ENERGY PREDICTED BY IDOCK:   47.30 KCAL/MOL
REMARK 924 INTRA-LIGAND FREE ENERGY PREDICTED BY IDOCK:    0.48 KCAL/MOL
REMARK 927      BINDING AFFINITY PREDICTED BY RF-SCORE:    0.00 PKD
ROOT
HETATM    1  C   UNL     1     -10.166  18.198  71.953  1.00  0.00     4.924 C  
HETATM    2  C   UNL     1      -9.173  17.110  71.658  1.00  0.00     9.258 A  
HETATM    3  C   UNL     1      -9.195  15.914  72.384  1.00  0.00     8.713 A  
HETATM    4  C   UNL     1      -8.241  14.904  72.163  1.00  0.00     5.991 A  
HETATM    5  C   UNL     1      -8.324  13.652  72.995  1.00  0.00    12.262 C  
HETATM    6  C   UNL     1      -7.242  15.104  71.187  1.00  0.00     1.668 A  
HETATM    7  C   UNL     1      -7.232  16.296  70.444  1.00  0.00     1.422 A  
HETATM    8  C   UNL     1      -8.190  17.291  70.680  1.00  0.00     4.694 A  
ENDROOT
BRANCH   6   9
HETATM    9  C   UNL     1      -6.167  14.082  70.986  1.00  0.00    -0.004 C  
HETATM   10  O   UNL     1      -5.558  13.551  71.901  1.00  0.00    -0.363 OA 
BRANCH   9  11
HETATM   11  O   UNL     1      -5.986  13.816  69.667  1.00  0.00    -0.099 OA 
BRANCH  11  12
HETATM   12  C   UNL     1      -7.162  14.000  68.858  1.00  0.00    -0.108 C  
BRANCH  12  13
HETATM   13  C   UNL     1      -7.473  12.738  68.091  1.00  0.00    -0.124 A  
HETATM   14  C   UNL     1      -8.206  12.785  66.898  1.00  0.00    -0.031 A  
HETATM   15  C   UNL     1      -8.624  11.608  66.274  1.00  0.00    -0.103 A  
HETATM   16  C   UNL     1      -8.316  10.360  66.832  1.00  0.00    -0.124 A  
HETATM   17  C   UNL     1      -7.490  10.317  67.966  1.00  0.00    -0.087 A  
HETATM   18  C   UNL     1      -8.916   9.093  66.228  1.00  0.00    -0.194 C  
HETATM   19  C   UNL     1      -7.090  11.494  68.601  1.00  0.00    -0.098 A  
HETATM   20  C   UNL     1      -9.199   8.013  67.292  1.00  0.00    -0.139 C  
HETATM   21  C   UNL     1      -8.008   8.539  65.106  1.00  0.00    -0.130 C  
HETATM   22  O   UNL     1      -8.644   6.915  67.241  1.00  0.00    -0.120 OA 
HETATM   23  N   UNL     1      -8.587   7.383  64.405  1.00  0.00    -0.344 NA 
HETATM   24  N   UNL     1     -10.082   8.410  68.291  1.00  0.00    -0.192 N  
HETATM   25  H1  UNL     1      -7.988   7.018  63.664  1.00  0.00     0.000 HD 
HETATM   26  H2  UNL     1      -9.515   7.607  64.044  1.00  0.00     0.000 HD 
HETATM   27  H   UNL     1     -10.442   9.363  68.246  1.00  0.00     0.000 HD 
BRANCH  24  28
HETATM   28  C   UNL     1     -10.523   7.599  69.364  1.00  0.00    -0.220 A  
HETATM   29  C   UNL     1      -9.675   6.714  70.034  1.00  0.00    -0.172 A  
HETATM   30  C   UNL     1     -10.132   5.958  71.113  1.00  0.00    -0.249 A  
HETATM   31  C   UNL     1     -11.460   6.059  71.538  1.00  0.00    -0.280 A  
HETATM   32  C   UNL     1     -11.956   5.328  72.620  1.00  0.00     0.056 A  
HETATM   33  N   UNL     1     -13.234   5.378  73.056  1.00  0.00     0.821 NA 
HETATM   34  C   UNL     1     -14.064   6.198  72.381  1.00  0.00     0.769 A  
HETATM   35  C   UNL     1     -13.677   6.978  71.299  1.00  0.00    -0.233 A  
HETATM   36  C   UNL     1     -12.347   6.917  70.857  1.00  0.00    -0.365 A  
HETATM   37  C   UNL     1     -11.865   7.680  69.768  1.00  0.00     0.502 A  
ENDBRANCH  24  28
ENDBRANCH  12  13
ENDBRANCH  11  12
ENDBRANCH   9  11
ENDBRANCH   6   9
TORSDOF 5
ENDMDL
MODEL      255
REMARK 921   NORMALIZED FREE ENERGY PREDICTED BY IDOCK:   45.13 KCAL/MOL
REMARK 922        TOTAL FREE ENERGY PREDICTED BY IDOCK:   56.09 KCAL/MOL
REMARK 923 INTER-LIGAND FREE ENERGY PREDICTED BY IDOCK:   32.50 KCAL/MOL
REMARK 924 INTRA-LIGAND FREE ENERGY PREDICTED BY IDOCK:   23.59 KCAL/MOL
REMARK 927      BINDING AFFINITY PREDICTED BY RF-SCORE:    0.00 PKD
ROOT
HETATM    1  C   UNL     1     -11.223   4.851  69.447  1.00  0.00     2.223 C  
HETATM    2  C   UNL     1     -10.604   4.672  68.092  1.00  0.00     0.438 A  
HETATM    3  C   UNL     1     -11.209   5.224  66.957  1.00  0.00     0.841 A  
HETATM    4  C   UNL     1     -10.676   5.023  65.671  1.00  0.00    -0.055 A  
HETATM    5  C   UNL     1     -11.394   5.637  64.499  1.00  0.00     4.227 C  
HETATM    6  C   UNL     1      -9.506   4.248  65.524  1.00  0.00    -0.176 A  
HETATM    7  C   UNL     1      -8.887   3.711  66.665  1.00  0.00    -0.134 A  
HETATM    8  C   UNL     1      -9.434   3.921  67.937  1.00  0.00    -0.227 A  
ENDROOT
BRANCH   6   9
HETATM    9  C   UNL     1      -8.962   3.951  64.161  1.00  0.00    -0.129 C  
HETATM   10  O   UNL     1      -9.200   2.923  63.547  1.00  0.00    -0.095 OA 
BRANCH   9  11
HETATM   11  O   UNL     1      -8.200   4.978  63.704  1.00  0.00    -0.105 OA 
BRANCH  11  12
HETATM   12  C   UNL     1      -8.940   6.001  63.011  1.00  0.00     0.610 C  
BRANCH  12  13
HETATM   13  C   UNL     1      -9.395   7.064  63.981  1.00  0.00     2.316 A  
HETATM   14  C   UNL     1      -8.630   8.218  64.191  1.00  0.00     0.120 A  
HETATM   15  C   UNL     1      -8.972   9.124  65.198  1.00  0.00    -0.238 A  
HETATM   16  C   UNL     1     -10.087   8.891  66.015  1.00  0.00    -0.098 A  
HETATM   17  C   UNL     1     -10.911   7.791  65.728  1.00  0.00     3.265 A  
HETATM   18  C   UNL     1     -10.352   9.803  67.210  1.00  0.00    -0.308 C  
HETATM   19  C   UNL     1     -10.557   6.877  64.735  1.00  0.00     6.211 A  
HETATM   20  C   UNL     1     -10.992   9.047  68.392  1.00  0.00     0.090 C  
HETATM   21  C   UNL     1     -11.218  11.014  66.793  1.00  0.00    -0.089 C  
HETATM   22  O   UNL     1     -12.104   9.363  68.816  1.00  0.00     1.120 OA 
HETATM   23  N   UNL     1     -11.413  11.991  67.875  1.00  0.00    -0.307 NA 
HETATM   24  N   UNL     1     -10.226   7.995  68.883  1.00  0.00    -0.206 N  
HETATM   25  H1  UNL     1     -11.984  12.790  67.600  1.00  0.00     0.000 HD 
HETATM   26  H2  UNL     1     -10.516  12.298  68.251  1.00  0.00     0.000 HD 
HETATM   27  H   UNL     1      -9.339   7.805  68.417  1.00  0.00     0.000 HD 
BRANCH  24  28
HETATM   28  C   UNL     1     -10.577   7.166  69.975  1.00  0.00    -0.232 A  
HETATM   29  C   UNL     1     -10.036   5.892  70.155  1.00  0.00    -0.261 A  
HETATM   30  C   UNL     1     -10.373   5.116  71.264  1.00  0.00    -0.276 A  
HETATM   31  C   UNL     1     -11.279   5.597  72.215  1.00  0.00    -0.317 A  
HETATM   32  C   UNL     1     -11.636   4.858  73.346  1.00  0.00    -0.111 A  
HETATM   33  N   UNL     1     -12.518   5.271  74.282  1.00  0.00     4.489 NA 
HETATM   34  C   UNL     1     -13.075   6.483  74.086  1.00  0.00     9.298 A  
HETATM   35  C   UNL     1     -12.785   7.306  73.005  1.00  0.00     1.257 A  
HETATM   36  C   UNL     1     -11.867   6.865  72.041  1.00  0.00    -0.345 A  
HETATM   37  C   UNL     1     -11.510   7.639  70.913  1.00  0.00    -0.299 A  
ENDBRANCH  24  28
ENDBRANCH  12  13
ENDBRANCH  11  12
ENDBRANCH   9  11
ENDBRANCH   6   9
TORSDOF 5
ENDMDL
MODEL      256
REMARK 921   NORMALIZED FREE ENERGY PREDICTED BY IDOCK:   46.83 KCAL/MOL
REMARK 922        TOTAL FREE ENERGY PREDICTED BY IDOCK:   58.30 KCAL/MOL
REMARK 923 INTER-LIGAND FREE ENERGY PREDICTED BY IDOCK:   50.24 KCAL/MOL
REMARK 924 INTRA-LIGAND FREE ENERGY PREDICTED BY IDOCK:    8.06 KCAL/MOL
REMARK 927      BINDING AFFINITY PREDICTED BY RF-SCORE:    0.00 PKD
ROOT
HETATM    1  C   UNL     1      -6.190   9.334  65.309  1.00  0.00    -0.064 C  
HETATM    2  C   UNL     1      -6.116   8.311  66.406  1.00  0.00    -0.049 A  
HETATM    3  C   UNL     1      -6.893   7.149  66.346  1.00  0.00    -0.061 A  
HETATM    4  C   UNL     1      -6.881   6.204  67.388  1.00  0.00    -0.063 A  
HETATM    5  C   UNL     1      -7.755   4.986  67.255  1.00  0.00    -0.092 C  
HETATM    6  C   UNL     1      -6.066   6.436  68.517  1.00  0.00    -0.025 A  
HETATM    7  C   UNL     1      -5.271   7.593  68.568  1.00  0.00    -0.026 A  
HETATM    8  C   UNL     1      -5.298   8.523  67.521  1.00  0.00    -0.034 A  
ENDROOT
BRANCH   6   9
HETATM    9  C   UNL     1      -6.094   5.489  69.676  1.00  0.00    -0.021 C  
HETATM   10  O   UNL     1      -5.350   4.527  69.781  1.00  0.00    -0.007 OA 
BRANCH   9  11
HETATM   11  O   UNL     1      -7.031   5.857  70.587  1.00  0.00    -0.058 OA 
BRANCH  11  12
HETATM   12  C   UNL     1      -8.255   5.101  70.517  1.00  0.00    -0.102 C  
BRANCH  12  13
HETATM   13  C   UNL     1      -9.242   5.789  69.606  1.00  0.00    -0.159 A  
HETATM   14  C   UNL     1      -8.972   5.942  68.240  1.00  0.00    -0.112 A  
HETATM   15  C   UNL     1      -9.812   6.711  67.431  1.00  0.00    -0.165 A  
HETATM   16  C   UNL     1     -10.940   7.342  67.975  1.00  0.00    -0.081 A  
HETATM   17  C   UNL     1     -11.264   7.095  69.319  1.00  0.00    -0.040 A  
HETATM   18  C   UNL     1     -11.754   8.307  67.117  1.00  0.00     3.097 C  
HETATM   19  C   UNL     1     -10.414   6.343  70.130  1.00  0.00    -0.269 A  
HETATM   20  C   UNL     1     -12.354   9.462  67.943  1.00  0.00     5.381 C  
HETATM   21  C   UNL     1     -12.856   7.551  66.340  1.00  0.00    12.745 C  
HETATM   22  O   UNL     1     -13.573   9.623  68.011  1.00  0.00     9.432 OA 
HETATM   23  N   UNL     1     -13.602   8.408  65.406  1.00  0.00    19.000 NA 
HETATM   24  N   UNL     1     -11.413  10.245  68.602  1.00  0.00    -0.498 N  
HETATM   25  H1  UNL     1     -14.329   7.909  64.893  1.00  0.00     0.000 HD 
HETATM   26  H2  UNL     1     -12.967   8.882  64.764  1.00  0.00     0.000 HD 
HETATM   27  H   UNL     1     -10.432   9.983  68.501  1.00  0.00     0.000 HD 
BRANCH  24  28
HETATM   28  C   UNL     1     -11.704  11.377  69.401  1.00  0.00    -0.338 A  
HETATM   29  C   UNL     1     -12.933  11.549  70.041  1.00  0.00     0.359 A  
HETATM   30  C   UNL     1     -13.174  12.657  70.853  1.00  0.00     0.214 A  
HETATM   31  C   UNL     1     -12.188  13.633  71.030  1.00  0.00    -0.374 A  
HETATM   32  C   UNL     1     -12.383  14.752  71.843  1.00  0.00    -0.345 A  
HETATM   33  N   UNL     1     -11.469  15.730  72.030  1.00  0.00    -0.401 NA 
HETATM   34  C   UNL     1     -10.299  15.587  71.377  1.00  0.00     0.972 A  
HETATM   35  C   UNL     1      -9.993  14.511  70.554  1.00  0.00     1.263 A  
HETATM   36  C   UNL     1     -10.951  13.503  70.368  1.00  0.00     0.937 A  
HETATM   37  C   UNL     1     -10.723  12.371  69.553  1.00  0.00     0.226 A  
ENDBRANCH  24  28
ENDBRANCH  12  13
ENDBRANCH  11  12
ENDBRANCH   9  11
ENDBRANCH   6   9
TORSDOF 5
ENDMDL
MODEL      257
REMARK 921   NORMALIZED FREE ENERGY PREDICTED BY IDOCK:   47.21 KCAL/MOL
REMARK 922        TOTAL FREE ENERGY PREDICTED BY IDOCK:   58.79 KCAL/MOL
REMARK 923 INTER-LIGAND FREE ENERGY PREDICTED BY IDOCK:   51.26 KCAL/MOL
REMARK 924 INTRA-LIGAND FREE ENERGY PREDICTED BY IDOCK:    7.53 KCAL/MOL
REMARK 927      BINDING AFFINITY PREDICTED BY RF-SCORE:    0.00 PKD
ROOT
HETATM    1  C   UNL     1     -10.544   7.611  71.775  1.00  0.00    -0.250 C  
HETATM    2  C   UNL     1      -9.507   6.538  71.610  1.00  0.00    -0.160 A  
HETATM    3  C   UNL     1      -9.877   5.248  71.214  1.00  0.00    -0.232 A  
HETATM    4  C   UNL     1      -8.930   4.214  71.105  1.00  0.00    -0.168 A  
HETATM    5  C   UNL     1      -9.410   2.850  70.687  1.00  0.00    -0.220 C  
HETATM    6  C   UNL     1      -7.577   4.486  71.403  1.00  0.00    -0.073 A  
HETATM    7  C   UNL     1      -7.202   5.786  71.780  1.00  0.00    -0.091 A  
HETATM    8  C   UNL     1      -8.161   6.802  71.884  1.00  0.00    -0.101 A  
ENDROOT
BRANCH   6   9
HETATM    9  C   UNL     1      -6.561   3.387  71.373  1.00  0.00    -0.026 C  
HETATM   10  O   UNL     1      -6.810   2.228  71.666  1.00  0.00    -0.025 OA 
BRANCH   9  11
HETATM   11  O   UNL     1      -5.353   3.849  70.961  1.00  0.00    -0.003 OA 
BRANCH  11  12
HETATM   12  C   UNL     1      -5.136   3.755  69.540  1.00  0.00    -0.004 C  
BRANCH  12  13
HETATM   13  C   UNL     1      -6.427   3.413  68.837  1.00  0.00    -0.030 A  
HETATM   14  C   UNL     1      -6.476   2.384  67.888  1.00  0.00    -0.029 A  
HETATM   15  C   UNL     1      -7.628   2.171  67.129  1.00  0.00    -0.061 A  
HETATM   16  C   UNL     1      -8.755   2.987  67.304  1.00  0.00    -0.141 A  
HETATM   17  C   UNL     1      -8.737   3.944  68.331  1.00  0.00    -0.129 A  
HETATM   18  C   UNL     1      -9.945   2.846  66.357  1.00  0.00     0.760 C  
HETATM   19  C   UNL     1      -7.579   4.168  69.075  1.00  0.00    -0.054 A  
HETATM   20  C   UNL     1     -10.657   4.191  66.109  1.00  0.00     0.462 C  
HETATM   21  C   UNL     1     -10.937   1.783  66.881  1.00  0.00     6.222 C  
HETATM   22  O   UNL     1     -11.838   4.347  66.419  1.00  0.00     3.594 OA 
HETATM   23  N   UNL     1     -12.049   1.518  65.954  1.00  0.00    10.160 NA 
HETATM   24  N   UNL     1      -9.846   5.175  65.553  1.00  0.00    -0.362 N  
HETATM   25  H1  UNL     1     -12.704   0.816  66.299  1.00  0.00     0.000 HD 
HETATM   26  H2  UNL     1     -11.697   1.263  65.031  1.00  0.00     0.000 HD 
HETATM   27  H   UNL     1      -8.870   4.935  65.381  1.00  0.00     0.000 HD 
BRANCH  24  28
HETATM   28  C   UNL     1     -10.265   6.482  65.206  1.00  0.00     2.263 A  
HETATM   29  C   UNL     1     -11.303   7.139  65.869  1.00  0.00     3.816 A  
HETATM   30  C   UNL     1     -11.665   8.442  65.529  1.00  0.00     9.247 A  
HETATM   31  C   UNL     1     -11.002   9.114  64.497  1.00  0.00     6.479 A  
HETATM   32  C   UNL     1     -11.325  10.423  64.131  1.00  0.00     2.419 A  
HETATM   33  N   UNL     1     -10.726  11.107  63.131  1.00  0.00    -0.153 NA 
HETATM   34  C   UNL     1      -9.754  10.458  62.460  1.00  0.00    -0.093 A  
HETATM   35  C   UNL     1      -9.344   9.162  62.746  1.00  0.00     0.526 A  
HETATM   36  C   UNL     1      -9.974   8.463  63.787  1.00  0.00     4.500 A  
HETATM   37  C   UNL     1      -9.617   7.144  64.150  1.00  0.00     3.216 A  
ENDBRANCH  24  28
ENDBRANCH  12  13
ENDBRANCH  11  12
ENDBRANCH   9  11
ENDBRANCH   6   9
TORSDOF 5
ENDMDL
MODEL      258
REMARK 921   NORMALIZED FREE ENERGY PREDICTED BY IDOCK:   48.84 KCAL/MOL
REMARK 922        TOTAL FREE ENERGY PREDICTED BY IDOCK:   60.88 KCAL/MOL
REMARK 923 INTER-LIGAND FREE ENERGY PREDICTED BY IDOCK:   50.91 KCAL/MOL
REMARK 924 INTRA-LIGAND FREE ENERGY PREDICTED BY IDOCK:    9.97 KCAL/MOL
REMARK 927      BINDING AFFINITY PREDICTED BY RF-SCORE:    0.00 PKD
ROOT
HETATM    1  C   UNL     1     -12.308  19.896  74.488  1.00  0.00    10.131 C  
HETATM    2  C   UNL     1     -11.662  18.990  73.480  1.00  0.00     5.399 A  
HETATM    3  C   UNL     1     -12.443  18.273  72.567  1.00  0.00     8.458 A  
HETATM    4  C   UNL     1     -11.864  17.378  71.650  1.00  0.00     2.603 A  
HETATM    5  C   UNL     1     -12.774  16.633  70.710  1.00  0.00     2.757 C  
HETATM    6  C   UNL     1     -10.464  17.199  71.653  1.00  0.00     3.186 A  
HETATM    7  C   UNL     1      -9.677  17.934  72.556  1.00  0.00     9.635 A  
HETATM    8  C   UNL     1     -10.273  18.821  73.462  1.00  0.00     4.228 A  
ENDROOT
BRANCH   6   9
HETATM    9  C   UNL     1      -9.828  16.194  70.745  1.00  0.00     1.632 C  
HETATM   10  O   UNL     1     -10.287  15.878  69.658  1.00  0.00    -0.261 OA 
BRANCH   9  11
HETATM   11  O   UNL     1      -8.677  15.710  71.279  1.00  0.00     2.920 OA 
BRANCH  11  12
HETATM   12  C   UNL     1      -7.694  15.311  70.306  1.00  0.00     0.567 C  
BRANCH  12  13
HETATM   13  C   UNL     1      -8.353  15.052  68.973  1.00  0.00    -0.194 A  
HETATM   14  C   UNL     1      -9.742  15.167  68.825  1.00  0.00    -0.221 A  
HETATM   15  C   UNL     1     -10.364  14.779  67.637  1.00  0.00    -0.237 A  
HETATM   16  C   UNL     1      -9.608  14.269  66.572  1.00  0.00    -0.313 A  
HETATM   17  C   UNL     1      -8.209  14.260  66.687  1.00  0.00     0.288 A  
HETATM   18  C   UNL     1     -10.317  13.701  65.345  1.00  0.00    -0.345 C  
HETATM   19  C   UNL     1      -7.590  14.628  67.882  1.00  0.00    -0.151 A  
HETATM   20  C   UNL     1      -9.544  12.525  64.715  1.00  0.00     0.178 C  
HETATM   21  C   UNL     1     -10.581  14.812  64.303  1.00  0.00     0.532 C  
HETATM   22  O   UNL     1      -9.130  12.589  63.558  1.00  0.00     0.440 OA 
HETATM   23  N   UNL     1     -11.364  14.351  63.146  1.00  0.00     0.994 NA 
HETATM   24  N   UNL     1      -9.345  11.445  65.570  1.00  0.00    -0.247 N  
HETATM   25  H1  UNL     1     -11.539  15.084  62.459  1.00  0.00     0.000 HD 
HETATM   26  H2  UNL     1     -12.239  13.923  63.449  1.00  0.00     0.000 HD 
HETATM   27  H   UNL     1      -9.701  11.531  66.522  1.00  0.00     0.000 HD 
BRANCH  24  28
HETATM   28  C   UNL     1      -8.691  10.238  65.226  1.00  0.00    -0.172 A  
HETATM   29  C   UNL     1      -8.011  10.070  64.018  1.00  0.00    -0.151 A  
HETATM   30  C   UNL     1      -7.343   8.881  63.727  1.00  0.00    -0.101 A  
HETATM   31  C   UNL     1      -7.355   7.820  64.639  1.00  0.00    -0.080 A  
HETATM   32  C   UNL     1      -6.690   6.617  64.392  1.00  0.00    -0.042 A  
HETATM   33  N   UNL     1      -6.688   5.558  65.233  1.00  0.00    -0.044 NA 
HETATM   34  C   UNL     1      -7.382   5.704  66.380  1.00  0.00    -0.078 A  
HETATM   35  C   UNL     1      -8.069   6.858  66.732  1.00  0.00    -0.109 A  
HETATM   36  C   UNL     1      -8.063   7.950  65.850  1.00  0.00    -0.119 A  
HETATM   37  C   UNL     1      -8.730   9.164  66.130  1.00  0.00    -0.169 A  
ENDBRANCH  24  28
ENDBRANCH  12  13
ENDBRANCH  11  12
ENDBRANCH   9  11
ENDBRANCH   6   9
TORSDOF 5
ENDMDL
MODEL      259
REMARK 921   NORMALIZED FREE ENERGY PREDICTED BY IDOCK:   55.23 KCAL/MOL
REMARK 922        TOTAL FREE ENERGY PREDICTED BY IDOCK:   69.15 KCAL/MOL
REMARK 923 INTER-LIGAND FREE ENERGY PREDICTED BY IDOCK:   68.23 KCAL/MOL
REMARK 924 INTRA-LIGAND FREE ENERGY PREDICTED BY IDOCK:    0.92 KCAL/MOL
REMARK 927      BINDING AFFINITY PREDICTED BY RF-SCORE:    0.00 PKD
ROOT
HETATM    1  C   UNL     1     -12.517  14.194  71.150  1.00  0.00    -0.445 C  
HETATM    2  C   UNL     1     -11.848  12.989  71.746  1.00  0.00     1.603 A  
HETATM    3  C   UNL     1     -10.629  13.116  72.422  1.00  0.00    10.151 A  
HETATM    4  C   UNL     1      -9.958  11.994  72.941  1.00  0.00    21.504 A  
HETATM    5  C   UNL     1      -8.644  12.211  73.643  1.00  0.00    21.436 C  
HETATM    6  C   UNL     1     -10.529  10.713  72.775  1.00  0.00     9.843 A  
HETATM    7  C   UNL     1     -11.762  10.588  72.114  1.00  0.00     1.602 A  
HETATM    8  C   UNL     1     -12.414  11.718  71.603  1.00  0.00    -0.122 A  
ENDROOT
BRANCH   6   9
HETATM    9  C   UNL     1      -9.799   9.494  73.245  1.00  0.00     4.859 C  
HETATM   10  O   UNL     1      -9.155   9.449  74.282  1.00  0.00     2.722 OA 
BRANCH   9  11
HETATM   11  O   UNL     1      -9.969   8.459  72.384  1.00  0.00    -0.279 OA 
BRANCH  11  12
HETATM   12  C   UNL     1      -8.836   8.203  71.533  1.00  0.00    -0.154 C  
BRANCH  12  13
HETATM   13  C   UNL     1      -9.022   8.882  70.198  1.00  0.00    -0.183 A  
HETATM   14  C   UNL     1      -8.403   8.380  69.046  1.00  0.00    -0.119 A  
HETATM   15  C   UNL     1      -8.449   9.093  67.846  1.00  0.00    -0.117 A  
HETATM   16  C   UNL     1      -9.116  10.324  67.777  1.00  0.00    -0.138 A  
HETATM   17  C   UNL     1      -9.826  10.768  68.904  1.00  0.00    -0.209 A  
HETATM   18  C   UNL     1      -9.020  11.166  66.507  1.00  0.00    -0.185 C  
HETATM   19  C   UNL     1      -9.762  10.064  70.107  1.00  0.00    -0.177 A  
HETATM   20  C   UNL     1      -9.040  12.678  66.803  1.00  0.00    -0.214 C  
HETATM   21  C   UNL     1     -10.139  10.782  65.511  1.00  0.00    -0.274 C  
HETATM   22  O   UNL     1      -9.933  13.398  66.355  1.00  0.00    -0.279 OA 
HETATM   23  N   UNL     1     -10.032  11.477  64.218  1.00  0.00    -0.256 NA 
HETATM   24  N   UNL     1      -8.006  13.116  67.624  1.00  0.00    -0.160 N  
HETATM   25  H1  UNL     1     -10.769  11.223  63.561  1.00  0.00     0.000 HD 
HETATM   26  H2  UNL     1      -9.111  11.330  63.804  1.00  0.00     0.000 HD 
HETATM   27  H   UNL     1      -7.352  12.413  67.968  1.00  0.00     0.000 HD 
BRANCH  24  28
HETATM   28  C   UNL     1      -7.788  14.457  68.022  1.00  0.00    -0.140 A  
HETATM   29  C   UNL     1      -6.680  14.844  68.779  1.00  0.00    -0.092 A  
HETATM   30  C   UNL     1      -6.474  16.181  69.121  1.00  0.00    -0.166 A  
HETATM   31  C   UNL     1      -7.386  17.163  68.724  1.00  0.00    -0.241 A  
HETATM   32  C   UNL     1      -7.213  18.513  69.035  1.00  0.00    -0.240 A  
HETATM   33  N   UNL     1      -8.075  19.495  68.689  1.00  0.00    -0.357 NA 
HETATM   34  C   UNL     1      -9.167  19.115  67.997  1.00  0.00    -0.313 A  
HETATM   35  C   UNL     1      -9.435  17.804  67.624  1.00  0.00    -0.255 A  
HETATM   36  C   UNL     1      -8.531  16.795  67.989  1.00  0.00    -0.205 A  
HETATM   37  C   UNL     1      -8.722  15.436  67.647  1.00  0.00    -0.174 A  
ENDBRANCH  24  28
ENDBRANCH  12  13
ENDBRANCH  11  12
ENDBRANCH   9  11
ENDBRANCH   6   9
TORSDOF 5
ENDMDL
MODEL      260
REMARK 921   NORMALIZED FREE ENERGY PREDICTED BY IDOCK:   55.83 KCAL/MOL
REMARK 922        TOTAL FREE ENERGY PREDICTED BY IDOCK:   69.92 KCAL/MOL
REMARK 923 INTER-LIGAND FREE ENERGY PREDICTED BY IDOCK:   27.35 KCAL/MOL
REMARK 924 INTRA-LIGAND FREE ENERGY PREDICTED BY IDOCK:   42.57 KCAL/MOL
REMARK 927      BINDING AFFINITY PREDICTED BY RF-SCORE:    0.00 PKD
ROOT
HETATM    1  C   UNL     1     -11.024  15.854  64.642  1.00  0.00    -0.323 C  
HETATM    2  C   UNL     1     -10.392  16.608  65.776  1.00  0.00    -0.338 A  
HETATM    3  C   UNL     1     -11.087  16.800  66.976  1.00  0.00     0.175 A  
HETATM    4  C   UNL     1     -10.536  17.548  68.031  1.00  0.00    -0.384 A  
HETATM    5  C   UNL     1     -11.352  17.721  69.284  1.00  0.00     1.715 C  
HETATM    6  C   UNL     1      -9.254  18.118  67.874  1.00  0.00    -0.273 A  
HETATM    7  C   UNL     1      -8.548  17.909  66.678  1.00  0.00    -0.283 A  
HETATM    8  C   UNL     1      -9.115  17.161  65.638  1.00  0.00     0.372 A  
ENDROOT
BRANCH   6   9
HETATM    9  C   UNL     1      -8.677  18.986  68.948  1.00  0.00    -0.253 C  
HETATM   10  O   UNL     1      -7.480  19.092  69.162  1.00  0.00    -0.331 OA 
BRANCH   9  11
HETATM   11  O   UNL     1      -9.654  19.645  69.624  1.00  0.00    -0.133 OA 
BRANCH  11  12
HETATM   12  C   UNL     1     -10.421  18.814  70.515  1.00  0.00     2.016 C  
BRANCH  12  13
HETATM   13  C   UNL     1     -10.677  17.467  69.884  1.00  0.00     0.688 A  
HETATM   14  C   UNL     1     -11.963  16.912  69.875  1.00  0.00     1.714 A  
HETATM   15  C   UNL     1     -12.170  15.605  69.430  1.00  0.00    -0.201 A  
HETATM   16  C   UNL     1     -11.092  14.826  68.986  1.00  0.00    -0.268 A  
HETATM   17  C   UNL     1      -9.825  15.424  68.896  1.00  0.00    -0.216 A  
HETATM   18  C   UNL     1     -11.309  13.351  68.658  1.00  0.00    -0.322 C  
HETATM   19  C   UNL     1      -9.616  16.724  69.358  1.00  0.00    -0.010 A  
HETATM   20  C   UNL     1     -10.074  12.490  68.989  1.00  0.00     0.175 C  
HETATM   21  C   UNL     1     -11.726  13.176  67.179  1.00  0.00    -0.377 C  
HETATM   22  O   UNL     1      -9.488  11.861  68.107  1.00  0.00    -0.184 OA 
HETATM   23  N   UNL     1     -12.062  11.787  66.830  1.00  0.00    -0.373 NA 
HETATM   24  N   UNL     1      -9.691  12.526  70.326  1.00  0.00     3.067 N  
HETATM   25  H1  UNL     1     -12.338  11.671  65.854  1.00  0.00     0.000 HD 
HETATM   26  H2  UNL     1     -12.780  11.421  67.455  1.00  0.00     0.000 HD 
HETATM   27  H   UNL     1     -10.234  13.121  70.952  1.00  0.00     0.000 HD 
BRANCH  24  28
HETATM   28  C   UNL     1      -8.610  11.806  70.888  1.00  0.00     8.004 A  
HETATM   29  C   UNL     1      -7.349  12.372  71.080  1.00  0.00     5.200 A  
HETATM   30  C   UNL     1      -6.316  11.646  71.673  1.00  0.00     2.483 A  
HETATM   31  C   UNL     1      -6.520  10.323  72.075  1.00  0.00     1.374 A  
HETATM   32  C   UNL     1      -5.518   9.564  72.682  1.00  0.00     0.025 A  
HETATM   33  N   UNL     1      -5.661   8.277  73.071  1.00  0.00    -0.056 NA 
HETATM   34  C   UNL     1      -6.866   7.715  72.845  1.00  0.00    -0.070 A  
HETATM   35  C   UNL     1      -7.936   8.379  72.260  1.00  0.00    -0.172 A  
HETATM   36  C   UNL     1      -7.773   9.714  71.861  1.00  0.00     1.361 A  
HETATM   37  C   UNL     1      -8.810  10.467  71.263  1.00  0.00     3.547 A  
ENDBRANCH  24  28
ENDBRANCH  12  13
ENDBRANCH  11  12
ENDBRANCH   9  11
ENDBRANCH   6   9
TORSDOF 5
ENDMDL
MODEL      261
REMARK 921   NORMALIZED FREE ENERGY PREDICTED BY IDOCK:   60.92 KCAL/MOL
REMARK 922        TOTAL FREE ENERGY PREDICTED BY IDOCK:   76.50 KCAL/MOL
REMARK 923 INTER-LIGAND FREE ENERGY PREDICTED BY IDOCK:   -2.43 KCAL/MOL
REMARK 924 INTRA-LIGAND FREE ENERGY PREDICTED BY IDOCK:   78.93 KCAL/MOL
REMARK 927      BINDING AFFINITY PREDICTED BY RF-SCORE:    0.00 PKD
ROOT
HETATM    1  C   UNL     1      -7.665   9.605  70.415  1.00  0.00    -0.178 C  
HETATM    2  C   UNL     1      -8.254   8.852  69.257  1.00  0.00    -0.114 A  
HETATM    3  C   UNL     1      -8.759   7.559  69.435  1.00  0.00    -0.137 A  
HETATM    4  C   UNL     1      -9.266   6.814  68.355  1.00  0.00    -0.123 A  
HETATM    5  C   UNL     1      -9.778   5.425  68.626  1.00  0.00    -0.187 C  
HETATM    6  C   UNL     1      -9.263   7.386  67.064  1.00  0.00    -0.169 A  
HETATM    7  C   UNL     1      -8.775   8.691  66.889  1.00  0.00    -0.133 A  
HETATM    8  C   UNL     1      -8.274   9.416  67.978  1.00  0.00    -0.114 A  
ENDROOT
BRANCH   6   9
HETATM    9  C   UNL     1      -9.721   6.587  65.884  1.00  0.00     0.292 C  
HETATM   10  O   UNL     1     -10.896   6.383  65.620  1.00  0.00     1.395 OA 
BRANCH   9  11
HETATM   11  O   UNL     1      -8.666   6.150  65.150  1.00  0.00    -0.099 OA 
BRANCH  11  12
HETATM   12  C   UNL     1      -7.615   7.121  64.987  1.00  0.00    -0.104 C  
BRANCH  12  13
HETATM   13  C   UNL     1      -7.212   7.684  66.328  1.00  0.00    -0.071 A  
HETATM   14  C   UNL     1      -7.729   7.150  67.515  1.00  0.00    -0.111 A  
HETATM   15  C   UNL     1      -7.477   7.769  68.742  1.00  0.00    -0.096 A  
HETATM   16  C   UNL     1      -6.703   8.936  68.803  1.00  0.00    -0.054 A  
HETATM   17  C   UNL     1      -6.098   9.402  67.625  1.00  0.00    -0.053 A  
HETATM   18  C   UNL     1      -6.572   9.688  70.125  1.00  0.00    -0.081 C  
HETATM   19  C   UNL     1      -6.367   8.795  66.398  1.00  0.00    -0.061 A  
HETATM   20  C   UNL     1      -6.456  11.212  69.923  1.00  0.00    -0.142 C  
HETATM   21  C   UNL     1      -5.379   9.146  70.946  1.00  0.00    -0.031 C  
HETATM   22  O   UNL     1      -5.457  11.825  70.300  1.00  0.00    -0.098 OA 
HETATM   23  N   UNL     1      -5.269   9.752  72.283  1.00  0.00    -0.160 NA 
HETATM   24  N   UNL     1      -7.540  11.787  69.268  1.00  0.00    -0.340 N  
HETATM   25  H1  UNL     1      -4.482   9.394  72.825  1.00  0.00     0.000 HD 
HETATM   26  H2  UNL     1      -6.142   9.648  72.799  1.00  0.00     0.000 HD 
HETATM   27  H   UNL     1      -8.289  11.164  68.966  1.00  0.00     0.000 HD 
BRANCH  24  28
HETATM   28  C   UNL     1      -7.688  13.166  68.985  1.00  0.00     0.178 A  
HETATM   29  C   UNL     1      -6.629  14.071  69.082  1.00  0.00    -0.113 A  
HETATM   30  C   UNL     1      -6.800  15.417  68.759  1.00  0.00    -0.113 A  
HETATM   31  C   UNL     1      -8.047  15.892  68.343  1.00  0.00    -0.149 A  
HETATM   32  C   UNL     1      -8.259  17.229  67.998  1.00  0.00    -0.223 A  
HETATM   33  N   UNL     1      -9.448  17.740  67.609  1.00  0.00    -0.253 NA 
HETATM   34  C   UNL     1     -10.482  16.876  67.557  1.00  0.00    -0.328 A  
HETATM   35  C   UNL     1     -10.382  15.525  67.866  1.00  0.00    -0.250 A  
HETATM   36  C   UNL     1      -9.142  15.009  68.269  1.00  0.00    -0.182 A  
HETATM   37  C   UNL     1      -8.949  13.647  68.596  1.00  0.00    -0.025 A  
ENDBRANCH  24  28
ENDBRANCH  12  13
ENDBRANCH  11  12
ENDBRANCH   9  11
ENDBRANCH   6   9
TORSDOF 5
ENDMDL
MODEL      262
REMARK 921   NORMALIZED FREE ENERGY PREDICTED BY IDOCK:   62.24 KCAL/MOL
REMARK 922        TOTAL FREE ENERGY PREDICTED BY IDOCK:   78.21 KCAL/MOL
REMARK 923 INTER-LIGAND FREE ENERGY PREDICTED BY IDOCK:   42.79 KCAL/MOL
REMARK 924 INTRA-LIGAND FREE ENERGY PREDICTED BY IDOCK:   35.42 KCAL/MOL
REMARK 927      BINDING AFFINITY PREDICTED BY RF-SCORE:    0.00 PKD
ROOT
HETATM    1  C   UNL     1     -11.038   4.896  66.570  1.00  0.00     0.618 C  
HETATM    2  C   UNL     1     -10.391   4.848  67.923  1.00  0.00    -0.050 A  
HETATM    3  C   UNL     1      -9.704   3.703  68.342  1.00  0.00    -0.075 A  
HETATM    4  C   UNL     1      -9.137   3.616  69.626  1.00  0.00    -0.197 A  
HETATM    5  C   UNL     1      -8.427   2.344  70.006  1.00  0.00    -0.088 C  
HETATM    6  C   UNL     1      -9.264   4.709  70.510  1.00  0.00    -0.193 A  
HETATM    7  C   UNL     1      -9.935   5.867  70.083  1.00  0.00    -0.247 A  
HETATM    8  C   UNL     1     -10.495   5.933  68.800  1.00  0.00    -0.314 A  
ENDROOT
BRANCH   6   9
HETATM    9  C   UNL     1      -8.740   4.615  71.909  1.00  0.00    -0.122 C  
HETATM   10  O   UNL     1      -9.154   3.815  72.734  1.00  0.00    -0.099 OA 
BRANCH   9  11
HETATM   11  O   UNL     1      -7.743   5.512  72.120  1.00  0.00    -0.098 OA 
BRANCH  11  12
HETATM   12  C   UNL     1      -8.174   6.747  72.721  1.00  0.00    -0.110 C  
BRANCH  12  13
HETATM   13  C   UNL     1      -9.192   7.429  71.840  1.00  0.00    -0.151 A  
HETATM   14  C   UNL     1     -10.511   7.611  72.275  1.00  0.00    -0.289 A  
HETATM   15  C   UNL     1     -11.486   8.101  71.404  1.00  0.00    -0.301 A  
HETATM   16  C   UNL     1     -11.159   8.419  70.078  1.00  0.00    -0.148 A  
HETATM   17  C   UNL     1      -9.815   8.339  69.681  1.00  0.00    -0.184 A  
HETATM   18  C   UNL     1     -12.265   8.799  69.096  1.00  0.00     2.392 C  
HETATM   19  C   UNL     1      -8.845   7.831  70.546  1.00  0.00    -0.145 A  
HETATM   20  C   UNL     1     -11.958   8.330  67.660  1.00  0.00     3.995 C  
HETATM   21  C   UNL     1     -12.533  10.321  69.137  1.00  0.00     0.782 C  
HETATM   22  O   UNL     1     -11.849   9.142  66.741  1.00  0.00     2.600 OA 
HETATM   23  N   UNL     1     -13.668  10.735  68.297  1.00  0.00     6.855 NA 
HETATM   24  N   UNL     1     -11.792   6.956  67.528  1.00  0.00     0.157 N  
HETATM   25  H1  UNL     1     -13.845  11.739  68.324  1.00  0.00     0.000 HD 
HETATM   26  H2  UNL     1     -14.508  10.212  68.541  1.00  0.00     0.000 HD 
HETATM   27  H   UNL     1     -11.865   6.392  68.375  1.00  0.00     0.000 HD 
BRANCH  24  28
HETATM   28  C   UNL     1     -11.531   6.275  66.315  1.00  0.00     1.327 A  
HETATM   29  C   UNL     1     -10.769   6.835  65.288  1.00  0.00     4.118 A  
HETATM   30  C   UNL     1     -10.497   6.122  64.121  1.00  0.00     5.142 A  
HETATM   31  C   UNL     1     -11.001   4.829  63.948  1.00  0.00     1.102 A  
HETATM   32  C   UNL     1     -10.744   4.075  62.800  1.00  0.00    -0.085 A  
HETATM   33  N   UNL     1     -11.222   2.831  62.579  1.00  0.00    -0.107 NA 
HETATM   34  C   UNL     1     -11.996   2.306  63.551  1.00  0.00     2.283 A  
HETATM   35  C   UNL     1     -12.306   2.960  64.736  1.00  0.00     8.274 A  
HETATM   36  C   UNL     1     -11.802   4.252  64.953  1.00  0.00     2.110 A  
HETATM   37  C   UNL     1     -12.063   4.988  66.131  1.00  0.00     4.035 A  
ENDBRANCH  24  28
ENDBRANCH  12  13
ENDBRANCH  11  12
ENDBRANCH   9  11
ENDBRANCH   6   9
TORSDOF 5
ENDMDL
MODEL      263
REMARK 921   NORMALIZED FREE ENERGY PREDICTED BY IDOCK:   72.80 KCAL/MOL
REMARK 922        TOTAL FREE ENERGY PREDICTED BY IDOCK:   91.85 KCAL/MOL
REMARK 923 INTER-LIGAND FREE ENERGY PREDICTED BY IDOCK:   89.60 KCAL/MOL
REMARK 924 INTRA-LIGAND FREE ENERGY PREDICTED BY IDOCK:    2.25 KCAL/MOL
REMARK 927      BINDING AFFINITY PREDICTED BY RF-SCORE:    0.00 PKD
ROOT
HETATM    1  C   UNL     1     -11.814  11.802  64.600  1.00  0.00    -0.203 C  
HETATM    2  C   UNL     1     -10.605  10.922  64.739  1.00  0.00    -0.316 A  
HETATM    3  C   UNL     1      -9.366  11.335  64.238  1.00  0.00    -0.133 A  
HETATM    4  C   UNL     1      -8.232  10.505  64.307  1.00  0.00    -0.062 A  
HETATM    5  C   UNL     1      -6.938  11.017  63.733  1.00  0.00     0.818 C  
HETATM    6  C   UNL     1      -8.351   9.228  64.895  1.00  0.00    -0.164 A  
HETATM    7  C   UNL     1      -9.590   8.820  65.416  1.00  0.00     0.109 A  
HETATM    8  C   UNL     1     -10.707   9.662  65.336  1.00  0.00     1.172 A  
ENDROOT
BRANCH   6   9
HETATM    9  C   UNL     1      -7.182   8.292  64.911  1.00  0.00    -0.081 C  
HETATM   10  O   UNL     1      -6.560   8.003  65.921  1.00  0.00    -0.045 OA 
BRANCH   9  11
HETATM   11  O   UNL     1      -6.931   7.802  63.669  1.00  0.00    -0.064 OA 
BRANCH  11  12
HETATM   12  C   UNL     1      -7.555   6.534  63.396  1.00  0.00    -0.085 C  
BRANCH  12  13
HETATM   13  C   UNL     1      -8.371   6.086  64.584  1.00  0.00    -0.065 A  
HETATM   14  C   UNL     1      -9.762   5.952  64.489  1.00  0.00     1.548 A  
HETATM   15  C   UNL     1     -10.530   5.688  65.625  1.00  0.00     0.473 A  
HETATM   16  C   UNL     1      -9.919   5.554  66.880  1.00  0.00    -0.204 A  
HETATM   17  C   UNL     1      -8.518   5.581  66.950  1.00  0.00    -0.110 A  
HETATM   18  C   UNL     1     -10.784   5.428  68.132  1.00  0.00    -0.076 C  
HETATM   19  C   UNL     1      -7.753   5.864  65.818  1.00  0.00    -0.096 A  
HETATM   20  C   UNL     1     -10.131   6.088  69.363  1.00  0.00    -0.192 C  
HETATM   21  C   UNL     1     -11.125   3.947  68.414  1.00  0.00     4.818 C  
HETATM   22  O   UNL     1      -9.849   5.423  70.361  1.00  0.00    -0.177 OA 
HETATM   23  N   UNL     1     -12.052   3.767  69.542  1.00  0.00    13.466 NA 
HETATM   24  N   UNL     1      -9.875   7.447  69.217  1.00  0.00    -0.166 N  
HETATM   25  H1  UNL     1     -12.277   2.790  69.728  1.00  0.00     0.000 HD 
HETATM   26  H2  UNL     1     -12.901   4.315  69.403  1.00  0.00     0.000 HD 
HETATM   27  H   UNL     1     -10.116   7.875  68.323  1.00  0.00     0.000 HD 
BRANCH  24  28
HETATM   28  C   UNL     1      -9.308   8.285  70.207  1.00  0.00    -0.159 A  
HETATM   29  C   UNL     1      -7.935   8.326  70.460  1.00  0.00    -0.099 A  
HETATM   30  C   UNL     1      -7.404   9.192  71.416  1.00  0.00    -0.015 A  
HETATM   31  C   UNL     1      -8.244  10.029  72.157  1.00  0.00     4.026 A  
HETATM   32  C   UNL     1      -7.754  10.919  73.116  1.00  0.00    11.542 A  
HETATM   33  N   UNL     1      -8.525  11.734  73.868  1.00  0.00    16.878 NA 
HETATM   34  C   UNL     1      -9.855  11.662  73.657  1.00  0.00    23.588 A  
HETATM   35  C   UNL     1     -10.449  10.824  72.723  1.00  0.00    10.725 A  
HETATM   36  C   UNL     1      -9.636   9.983  71.947  1.00  0.00     3.323 A  
HETATM   37  C   UNL     1     -10.156   9.103  70.971  1.00  0.00    -0.373 A  
ENDBRANCH  24  28
ENDBRANCH  12  13
ENDBRANCH  11  12
ENDBRANCH   9  11
ENDBRANCH   6   9
TORSDOF 5
ENDMDL
MODEL      264
REMARK 921   NORMALIZED FREE ENERGY PREDICTED BY IDOCK:   76.19 KCAL/MOL
REMARK 922        TOTAL FREE ENERGY PREDICTED BY IDOCK:   96.23 KCAL/MOL
REMARK 923 INTER-LIGAND FREE ENERGY PREDICTED BY IDOCK:   44.38 KCAL/MOL
REMARK 924 INTRA-LIGAND FREE ENERGY PREDICTED BY IDOCK:   51.85 KCAL/MOL
REMARK 927      BINDING AFFINITY PREDICTED BY RF-SCORE:    0.00 PKD
ROOT
HETATM    1  C   UNL     1      -9.232  20.360  70.044  1.00  0.00     1.258 C  
HETATM    2  C   UNL     1      -8.941  19.856  68.661  1.00  0.00    -0.162 A  
HETATM    3  C   UNL     1      -9.573  18.704  68.178  1.00  0.00    -0.364 A  
HETATM    4  C   UNL     1      -9.276  18.182  66.906  1.00  0.00    -0.278 A  
HETATM    5  C   UNL     1      -9.988  16.931  66.465  1.00  0.00    -0.309 C  
HETATM    6  C   UNL     1      -8.319  18.836  66.101  1.00  0.00    -0.195 A  
HETATM    7  C   UNL     1      -7.699  20.003  66.577  1.00  0.00    -0.325 A  
HETATM    8  C   UNL     1      -8.008  20.507  67.847  1.00  0.00    -0.116 A  
ENDROOT
BRANCH   6   9
HETATM    9  C   UNL     1      -7.924  18.258  64.778  1.00  0.00     3.957 C  
HETATM   10  O   UNL     1      -6.833  18.438  64.260  1.00  0.00     1.183 OA 
BRANCH   9  11
HETATM   11  O   UNL     1      -8.924  17.503  64.256  1.00  0.00     6.085 OA 
BRANCH  11  12
HETATM   12  C   UNL     1      -8.982  16.160  64.771  1.00  0.00     3.742 C  
BRANCH  12  13
HETATM   13  C   UNL     1      -9.562  16.159  66.164  1.00  0.00    -0.359 A  
HETATM   14  C   UNL     1      -9.826  17.362  66.832  1.00  0.00    -0.289 A  
HETATM   15  C   UNL     1     -10.217  17.360  68.173  1.00  0.00    -0.350 A  
HETATM   16  C   UNL     1     -10.350  16.153  68.872  1.00  0.00    -0.250 A  
HETATM   17  C   UNL     1     -10.190  14.949  68.168  1.00  0.00    -0.226 A  
HETATM   18  C   UNL     1     -10.618  16.175  70.375  1.00  0.00    -0.058 C  
HETATM   19  C   UNL     1      -9.781  14.952  66.834  1.00  0.00    -0.248 A  
HETATM   20  C   UNL     1      -9.957  14.989  71.105  1.00  0.00     1.540 C  
HETATM   21  C   UNL     1     -12.138  16.222  70.658  1.00  0.00     0.133 C  
HETATM   22  O   UNL     1     -10.638  14.168  71.721  1.00  0.00     2.521 OA 
HETATM   23  N   UNL     1     -12.459  16.362  72.087  1.00  0.00    -0.477 NA 
HETATM   24  N   UNL     1      -8.574  14.931  70.970  1.00  0.00     1.813 N  
HETATM   25  H1  UNL     1     -13.462  16.394  72.274  1.00  0.00     0.000 HD 
HETATM   26  H2  UNL     1     -11.990  17.175  72.485  1.00  0.00     0.000 HD 
HETATM   27  H   UNL     1      -8.130  15.648  70.397  1.00  0.00     0.000 HD 
BRANCH  24  28
HETATM   28  C   UNL     1      -7.734  13.958  71.563  1.00  0.00     5.545 A  
HETATM   29  C   UNL     1      -7.000  14.208  72.724  1.00  0.00     3.477 A  
HETATM   30  C   UNL     1      -6.211  13.215  73.305  1.00  0.00     2.327 A  
HETATM   31  C   UNL     1      -6.126  11.947  72.723  1.00  0.00     3.275 A  
HETATM   32  C   UNL     1      -5.358  10.921  73.277  1.00  0.00     0.723 A  
HETATM   33  N   UNL     1      -5.230   9.686  72.742  1.00  0.00    -0.190 NA 
HETATM   34  C   UNL     1      -5.903   9.458  71.597  1.00  0.00    -0.054 A  
HETATM   35  C   UNL     1      -6.705  10.400  70.965  1.00  0.00     0.503 A  
HETATM   36  C   UNL     1      -6.829  11.678  71.531  1.00  0.00     4.276 A  
HETATM   37  C   UNL     1      -7.627  12.695  70.959  1.00  0.00     6.274 A  
ENDBRANCH  24  28
ENDBRANCH  12  13
ENDBRANCH  11  12
ENDBRANCH   9  11
ENDBRANCH   6   9
TORSDOF 5
ENDMDL
MODEL      265
REMARK 921   NORMALIZED FREE ENERGY PREDICTED BY IDOCK:   76.73 KCAL/MOL
REMARK 922        TOTAL FREE ENERGY PREDICTED BY IDOCK:   96.93 KCAL/MOL
REMARK 923 INTER-LIGAND FREE ENERGY PREDICTED BY IDOCK:   94.21 KCAL/MOL
REMARK 924 INTRA-LIGAND FREE ENERGY PREDICTED BY IDOCK:    2.72 KCAL/MOL
REMARK 927      BINDING AFFINITY PREDICTED BY RF-SCORE:    0.00 PKD
ROOT
HETATM    1  C   UNL     1     -12.927  12.033  63.332  1.00  0.00    -0.282 C  
HETATM    2  C   UNL     1     -12.006  11.048  63.991  1.00  0.00     1.134 A  
HETATM    3  C   UNL     1     -11.624  11.219  65.327  1.00  0.00     0.252 A  
HETATM    4  C   UNL     1     -10.720  10.339  65.949  1.00  0.00     0.019 A  
HETATM    5  C   UNL     1     -10.347  10.599  67.384  1.00  0.00    -0.262 C  
HETATM    6  C   UNL     1     -10.187   9.263  65.208  1.00  0.00     0.726 A  
HETATM    7  C   UNL     1     -10.585   9.080  63.873  1.00  0.00     6.144 A  
HETATM    8  C   UNL     1     -11.487   9.967  63.271  1.00  0.00     5.190 A  
ENDROOT
BRANCH   6   9
HETATM    9  C   UNL     1      -9.161   8.359  65.819  1.00  0.00    -0.111 C  
HETATM   10  O   UNL     1      -9.067   7.170  65.559  1.00  0.00     0.037 OA 
BRANCH   9  11
HETATM   11  O   UNL     1      -8.352   9.042  66.670  1.00  0.00    -0.116 OA 
BRANCH  11  12
HETATM   12  C   UNL     1      -8.450   8.623  68.044  1.00  0.00    -0.127 C  
BRANCH  12  13
HETATM   13  C   UNL     1      -8.410   9.821  68.960  1.00  0.00    -0.127 A  
HETATM   14  C   UNL     1      -9.002   9.774  70.228  1.00  0.00    -0.198 A  
HETATM   15  C   UNL     1      -9.100  10.927  71.011  1.00  0.00     4.880 A  
HETATM   16  C   UNL     1      -8.606  12.151  70.537  1.00  0.00     6.123 A  
HETATM   17  C   UNL     1      -7.918  12.168  69.314  1.00  0.00     0.489 A  
HETATM   18  C   UNL     1      -8.864  13.429  71.331  1.00  0.00    11.561 C  
HETATM   19  C   UNL     1      -7.838  11.020  68.525  1.00  0.00    -0.129 A  
HETATM   20  C   UNL     1      -9.034  14.660  70.420  1.00  0.00     1.607 C  
HETATM   21  C   UNL     1      -7.745  13.661  72.373  1.00  0.00     8.825 C  
HETATM   22  O   UNL     1      -8.265  15.618  70.502  1.00  0.00     0.969 OA 
HETATM   23  N   UNL     1      -7.996  14.815  73.250  1.00  0.00     5.757 NA 
HETATM   24  N   UNL     1     -10.084  14.562  69.512  1.00  0.00    -0.423 N  
HETATM   25  H1  UNL     1      -7.258  14.968  73.937  1.00  0.00     0.000 HD 
HETATM   26  H2  UNL     1      -8.904  14.732  73.706  1.00  0.00     0.000 HD 
HETATM   27  H   UNL     1     -10.624  13.697  69.514  1.00  0.00     0.000 HD 
BRANCH  24  28
HETATM   28  C   UNL     1     -10.464  15.564  68.587  1.00  0.00    -0.237 A  
HETATM   29  C   UNL     1      -9.538  16.414  67.979  1.00  0.00    -0.226 A  
HETATM   30  C   UNL     1      -9.941  17.366  67.042  1.00  0.00    -0.295 A  
HETATM   31  C   UNL     1     -11.291  17.498  66.703  1.00  0.00     0.981 A  
HETATM   32  C   UNL     1     -11.737  18.429  65.762  1.00  0.00     3.019 A  
HETATM   33  N   UNL     1     -13.031  18.606  65.415  1.00  0.00    11.392 NA 
HETATM   34  C   UNL     1     -13.930  17.816  66.034  1.00  0.00    16.497 A  
HETATM   35  C   UNL     1     -13.598  16.850  66.976  1.00  0.00     9.134 A  
HETATM   36  C   UNL     1     -12.251  16.676  67.327  1.00  0.00     2.159 A  
HETATM   37  C   UNL     1     -11.824  15.714  68.271  1.00  0.00    -0.153 A  
ENDBRANCH  24  28
ENDBRANCH  12  13
ENDBRANCH  11  12
ENDBRANCH   9  11
ENDBRANCH   6   9
TORSDOF 5
ENDMDL
MODEL      266
REMARK 921   NORMALIZED FREE ENERGY PREDICTED BY IDOCK:   79.97 KCAL/MOL
REMARK 922        TOTAL FREE ENERGY PREDICTED BY IDOCK:  101.12 KCAL/MOL
REMARK 923 INTER-LIGAND FREE ENERGY PREDICTED BY IDOCK:   25.32 KCAL/MOL
REMARK 924 INTRA-LIGAND FREE ENERGY PREDICTED BY IDOCK:   75.81 KCAL/MOL
REMARK 927      BINDING AFFINITY PREDICTED BY RF-SCORE:    0.00 PKD
ROOT
HETATM    1  C   UNL     1      -9.931   9.476  63.155  1.00  0.00     1.624 C  
HETATM    2  C   UNL     1     -10.025   8.768  64.476  1.00  0.00     2.267 A  
HETATM    3  C   UNL     1      -9.156   9.099  65.521  1.00  0.00    -0.275 A  
HETATM    4  C   UNL     1      -9.189   8.412  66.748  1.00  0.00    -0.214 A  
HETATM    5  C   UNL     1      -8.212   8.818  67.819  1.00  0.00    -0.111 C  
HETATM    6  C   UNL     1     -10.120   7.366  66.926  1.00  0.00    -0.327 A  
HETATM    7  C   UNL     1     -11.007   7.047  65.884  1.00  0.00     2.511 A  
HETATM    8  C   UNL     1     -10.956   7.743  64.668  1.00  0.00    10.498 A  
ENDROOT
BRANCH   6   9
HETATM    9  C   UNL     1     -10.125   6.566  68.191  1.00  0.00    -0.155 C  
HETATM   10  O   UNL     1     -11.045   5.837  68.527  1.00  0.00    -0.210 OA 
BRANCH   9  11
HETATM   11  O   UNL     1      -8.972   6.743  68.886  1.00  0.00    -0.131 OA 
BRANCH  11  12
HETATM   12  C   UNL     1      -7.816   6.986  68.063  1.00  0.00    -0.114 C  
BRANCH  12  13
HETATM   13  C   UNL     1      -8.015   8.232  67.237  1.00  0.00    -0.105 A  
HETATM   14  C   UNL     1      -6.933   8.849  66.596  1.00  0.00    -0.080 A  
HETATM   15  C   UNL     1      -7.091  10.083  65.961  1.00  0.00    -0.111 A  
HETATM   16  C   UNL     1      -8.338  10.725  65.957  1.00  0.00    -0.163 A  
HETATM   17  C   UNL     1      -9.441  10.052  66.506  1.00  0.00    -0.222 A  
HETATM   18  C   UNL     1      -8.456  12.142  65.403  1.00  0.00     1.039 C  
HETATM   19  C   UNL     1      -9.277   8.828  67.156  1.00  0.00    -0.167 A  
HETATM   20  C   UNL     1      -9.518  12.975  66.148  1.00  0.00    -0.150 C  
HETATM   21  C   UNL     1      -8.742  12.113  63.884  1.00  0.00     1.477 C  
HETATM   22  O   UNL     1     -10.496  13.430  65.554  1.00  0.00    -0.279 OA 
HETATM   23  N   UNL     1      -8.753  13.449  63.267  1.00  0.00     5.316 NA 
HETATM   24  N   UNL     1      -9.280  13.122  67.511  1.00  0.00    -0.197 N  
HETATM   25  H1  UNL     1      -8.941  13.430  62.265  1.00  0.00     0.000 HD 
HETATM   26  H2  UNL     1      -7.883  13.945  63.464  1.00  0.00     0.000 HD 
HETATM   27  H   UNL     1      -8.455  12.660  67.894  1.00  0.00     0.000 HD 
BRANCH  24  28
HETATM   28  C   UNL     1     -10.087  13.860  68.409  1.00  0.00    -0.237 A  
HETATM   29  C   UNL     1     -11.329  13.401  68.853  1.00  0.00    -0.331 A  
HETATM   30  C   UNL     1     -12.083  14.134  69.769  1.00  0.00    -0.409 A  
HETATM   31  C   UNL     1     -11.613  15.360  70.251  1.00  0.00    -0.346 A  
HETATM   32  C   UNL     1     -12.330  16.121  71.177  1.00  0.00    -0.084 A  
HETATM   33  N   UNL     1     -11.928  17.318  71.659  1.00  0.00     1.828 NA 
HETATM   34  C   UNL     1     -10.750  17.783  71.197  1.00  0.00     2.370 A  
HETATM   35  C   UNL     1      -9.950  17.106  70.285  1.00  0.00     1.315 A  
HETATM   36  C   UNL     1     -10.380  15.864  69.794  1.00  0.00    -0.290 A  
HETATM   37  C   UNL     1      -9.627  15.105  68.869  1.00  0.00    -0.223 A  
ENDBRANCH  24  28
ENDBRANCH  12  13
ENDBRANCH  11  12
ENDBRANCH   9  11
ENDBRANCH   6   9
TORSDOF 5
ENDMDL
MODEL      267
REMARK 921   NORMALIZED FREE ENERGY PREDICTED BY IDOCK:   85.71 KCAL/MOL
REMARK 922        TOTAL FREE ENERGY PREDICTED BY IDOCK:  108.54 KCAL/MOL
REMARK 923 INTER-LIGAND FREE ENERGY PREDICTED BY IDOCK:   22.91 KCAL/MOL
REMARK 924 INTRA-LIGAND FREE ENERGY PREDICTED BY IDOCK:   85.63 KCAL/MOL
REMARK 927      BINDING AFFINITY PREDICTED BY RF-SCORE:    0.00 PKD
ROOT
HETATM    1  C   UNL     1      -8.514  10.254  67.353  1.00  0.00    -0.125 C  
HETATM    2  C   UNL     1      -8.791  11.665  67.784  1.00  0.00    -0.159 A  
HETATM    3  C   UNL     1      -9.323  12.591  66.880  1.00  0.00    -0.219 A  
HETATM    4  C   UNL     1      -9.540  13.932  67.246  1.00  0.00    -0.243 A  
HETATM    5  C   UNL     1     -10.102  14.871  66.212  1.00  0.00    -0.298 C  
HETATM    6  C   UNL     1      -9.214  14.349  68.554  1.00  0.00    -0.198 A  
HETATM    7  C   UNL     1      -8.699  13.415  69.468  1.00  0.00     1.342 A  
HETATM    8  C   UNL     1      -8.489  12.084  69.084  1.00  0.00     0.465 A  
ENDROOT
BRANCH   6   9
HETATM    9  C   UNL     1      -9.359  15.786  68.947  1.00  0.00    -0.228 C  
HETATM   10  O   UNL     1      -9.915  16.155  69.970  1.00  0.00    -0.111 OA 
BRANCH   9  11
HETATM   11  O   UNL     1      -8.775  16.604  68.034  1.00  0.00    -0.188 OA 
BRANCH  11  12
HETATM   12  C   UNL     1      -9.254  16.426  66.688  1.00  0.00    -0.253 C  
BRANCH  12  13
HETATM   13  C   UNL     1     -10.041  15.143  66.579  1.00  0.00    -0.279 A  
HETATM   14  C   UNL     1     -11.433  15.140  66.736  1.00  0.00    -0.195 A  
HETATM   15  C   UNL     1     -12.140  13.937  66.788  1.00  0.00    -0.476 A  
HETATM   16  C   UNL     1     -11.466  12.712  66.685  1.00  0.00    -0.409 A  
HETATM   17  C   UNL     1     -10.088  12.725  66.418  1.00  0.00    -0.266 A  
HETATM   18  C   UNL     1     -12.229  11.408  66.906  1.00  0.00     1.345 C  
HETATM   19  C   UNL     1      -9.380  13.927  66.386  1.00  0.00    -0.226 A  
HETATM   20  C   UNL     1     -11.352  10.320  67.558  1.00  0.00     0.050 C  
HETATM   21  C   UNL     1     -12.842  10.902  65.580  1.00  0.00     6.161 C  
HETATM   22  O   UNL     1     -11.130   9.257  66.979  1.00  0.00     0.017 OA 
HETATM   23  N   UNL     1     -13.688   9.710  65.746  1.00  0.00    18.588 NA 
HETATM   24  N   UNL     1     -10.835  10.670  68.801  1.00  0.00    -0.212 N  
HETATM   25  H1  UNL     1     -14.093   9.376  64.872  1.00  0.00     0.000 HD 
HETATM   26  H2  UNL     1     -14.414   9.876  66.442  1.00  0.00     0.000 HD 
HETATM   27  H   UNL     1     -11.058  11.600  69.156  1.00  0.00     0.000 HD 
BRANCH  24  28
HETATM   28  C   UNL     1     -10.026   9.841  69.614  1.00  0.00    -0.223 A  
HETATM   29  C   UNL     1     -10.100   9.853  71.009  1.00  0.00     0.154 A  
HETATM   30  C   UNL     1      -9.317   8.995  71.780  1.00  0.00    -0.208 A  
HETATM   31  C   UNL     1      -8.424   8.110  71.168  1.00  0.00    -0.146 A  
HETATM   32  C   UNL     1      -7.629   7.226  71.901  1.00  0.00    -0.085 A  
HETATM   33  N   UNL     1      -6.739   6.366  71.357  1.00  0.00    -0.054 NA 
HETATM   34  C   UNL     1      -6.634   6.385  70.013  1.00  0.00    -0.048 A  
HETATM   35  C   UNL     1      -7.383   7.213  69.186  1.00  0.00    -0.092 A  
HETATM   36  C   UNL     1      -8.303   8.100  69.764  1.00  0.00    -0.124 A  
HETATM   37  C   UNL     1      -9.108   8.974  68.998  1.00  0.00    -0.143 A  
ENDBRANCH  24  28
ENDBRANCH  12  13
ENDBRANCH  11  12
ENDBRANCH   9  11
ENDBRANCH   6   9
TORSDOF 5
ENDMDL
MODEL      268
REMARK 921   NORMALIZED FREE ENERGY PREDICTED BY IDOCK:   86.84 KCAL/MOL
REMARK 922        TOTAL FREE ENERGY PREDICTED BY IDOCK:  110.00 KCAL/MOL
REMARK 923 INTER-LIGAND FREE ENERGY PREDICTED BY IDOCK:  104.69 KCAL/MOL
REMARK 924 INTRA-LIGAND FREE ENERGY PREDICTED BY IDOCK:    5.31 KCAL/MOL
REMARK 927      BINDING AFFINITY PREDICTED BY RF-SCORE:    0.00 PKD
ROOT
HETATM    1  C   UNL     1     -12.753  20.275  74.424  1.00  0.00    13.185 C  
HETATM    2  C   UNL     1     -12.234  19.823  73.090  1.00  0.00    14.369 A  
HETATM    3  C   UNL     1     -13.115  19.357  72.107  1.00  0.00    23.908 A  
HETATM    4  C   UNL     1     -12.647  18.878  70.871  1.00  0.00    19.018 A  
HETATM    5  C   UNL     1     -13.656  18.380  69.871  1.00  0.00    23.342 C  
HETATM    6  C   UNL     1     -11.258  18.869  70.618  1.00  0.00     4.491 A  
HETATM    7  C   UNL     1     -10.375  19.355  71.596  1.00  0.00     3.138 A  
HETATM    8  C   UNL     1     -10.861  19.827  72.822  1.00  0.00     5.520 A  
ENDROOT
BRANCH   6   9
HETATM    9  C   UNL     1     -10.727  18.291  69.343  1.00  0.00     0.893 C  
HETATM   10  O   UNL     1     -11.430  17.990  68.391  1.00  0.00     0.675 OA 
BRANCH   9  11
HETATM   11  O   UNL     1      -9.374  18.172  69.386  1.00  0.00     0.098 OA 
BRANCH  11  12
HETATM   12  C   UNL     1      -8.759  17.949  68.104  1.00  0.00    -0.268 C  
BRANCH  12  13
HETATM   13  C   UNL     1      -9.516  16.893  67.337  1.00  0.00    -0.238 A  
HETATM   14  C   UNL     1     -10.744  16.408  67.806  1.00  0.00    -0.328 A  
HETATM   15  C   UNL     1     -11.366  15.326  67.180  1.00  0.00    -0.247 A  
HETATM   16  C   UNL     1     -10.771  14.708  66.071  1.00  0.00    -0.313 A  
HETATM   17  C   UNL     1      -9.598  15.267  65.541  1.00  0.00    -0.243 A  
HETATM   18  C   UNL     1     -11.381  13.430  65.501  1.00  0.00    -0.310 C  
HETATM   19  C   UNL     1      -8.967  16.336  66.178  1.00  0.00    -0.374 A  
HETATM   20  C   UNL     1     -10.312  12.474  64.934  1.00  0.00    -0.300 C  
HETATM   21  C   UNL     1     -12.448  13.763  64.433  1.00  0.00    -0.270 C  
HETATM   22  O   UNL     1     -10.317  12.155  63.744  1.00  0.00    -0.369 OA 
HETATM   23  N   UNL     1     -13.156  12.576  63.926  1.00  0.00    -0.645 NA 
HETATM   24  N   UNL     1      -9.364  12.058  65.863  1.00  0.00    -0.361 N  
HETATM   25  H1  UNL     1     -13.860  12.796  63.222  1.00  0.00     0.000 HD 
HETATM   26  H2  UNL     1     -13.564  12.044  64.694  1.00  0.00     0.000 HD 
HETATM   27  H   UNL     1      -9.444  12.427  66.810  1.00  0.00     0.000 HD 
BRANCH  24  28
HETATM   28  C   UNL     1      -8.299  11.163  65.601  1.00  0.00     0.002 A  
HETATM   29  C   UNL     1      -6.966  11.575  65.552  1.00  0.00     0.995 A  
HETATM   30  C   UNL     1      -5.937  10.661  65.331  1.00  0.00    -0.105 A  
HETATM   31  C   UNL     1      -6.223   9.306  65.136  1.00  0.00    -0.068 A  
HETATM   32  C   UNL     1      -5.222   8.355  64.923  1.00  0.00    -0.035 A  
HETATM   33  N   UNL     1      -5.449   7.040  64.712  1.00  0.00    -0.031 NA 
HETATM   34  C   UNL     1      -6.739   6.648  64.715  1.00  0.00    -0.046 A  
HETATM   35  C   UNL     1      -7.812   7.504  64.928  1.00  0.00    -0.128 A  
HETATM   36  C   UNL     1      -7.562   8.867  65.146  1.00  0.00    -0.099 A  
HETATM   37  C   UNL     1      -8.592   9.808  65.376  1.00  0.00    -0.163 A  
ENDBRANCH  24  28
ENDBRANCH  12  13
ENDBRANCH  11  12
ENDBRANCH   9  11
ENDBRANCH   6   9
TORSDOF 5
ENDMDL
