MODEL        1
REMARK 921   NORMALIZED FREE ENERGY PREDICTED BY IDOCK:   -7.83 KCAL/MOL
REMARK 922        TOTAL FREE ENERGY PREDICTED BY IDOCK:  -12.23 KCAL/MOL
REMARK 923 INTER-LIGAND FREE ENERGY PREDICTED BY IDOCK:  -11.49 KCAL/MOL
REMARK 924 INTRA-LIGAND FREE ENERGY PREDICTED BY IDOCK:   -0.74 KCAL/MOL
REMARK 927      BINDING AFFINITY PREDICTED BY RF-SCORE:    0.00 PKD
ROOT
HETATM    1  C   UNL     1     -10.533  11.093  64.155  1.00  0.00    -0.442 C  
HETATM    2  C   UNL     1     -11.935  11.665  64.305  1.00  0.00    -0.092 C  
ENDROOT
BRANCH   2   3
HETATM    3  N   UNL     1     -12.157  12.106  65.686  1.00  0.00    -0.534 NA 
HETATM    4  H   UNL     1     -11.812  11.401  66.337  1.00  0.00     0.000 HD 
BRANCH   3   5
HETATM    5  C   UNL     1     -11.591  13.439  66.031  1.00  0.00    -0.344 C  
HETATM    6  C   UNL     1     -11.603  14.385  64.820  1.00  0.00    -0.410 C  
HETATM    7  C   UNL     1     -11.066  15.774  65.178  1.00  0.00    -0.324 C  
HETATM    8  C   UNL     1      -9.582  15.684  65.628  1.00  0.00    -0.284 C  
HETATM    9  N   UNL     1     -11.229  16.651  64.000  1.00  0.00    -1.432 NA 
HETATM   10  C   UNL     1     -10.206  13.343  66.731  1.00  0.00    -0.259 C  
HETATM   11  H2  UNL     1     -12.190  16.677  63.659  1.00  0.00     0.000 HD 
HETATM   12  H1  UNL     1     -10.871  17.575  64.238  1.00  0.00     0.000 HD 
HETATM   13  C   UNL     1      -9.393  14.652  66.772  1.00  0.00    -0.257 C  
HETATM   14  H   UNL     1      -7.893  13.595  67.562  1.00  0.00     0.000 HD 
HETATM   15  O   UNL     1      -8.009  14.227  66.862  1.00  0.00    -0.069 OA 
BRANCH   8  16
HETATM   16  O   UNL     1      -9.149  17.013  66.065  1.00  0.00    -0.464 OA 
BRANCH  16  17
HETATM   17  C   UNL     1      -9.742  17.455  67.308  1.00  0.00    -0.267 C  
HETATM   18  H1  UNL     1     -11.332  20.096  65.708  1.00  0.00     0.000 HD 
HETATM   19  O   UNL     1      -8.753  17.433  68.345  1.00  0.00    -0.256 OA 
HETATM   20  C   UNL     1      -8.118  18.625  68.617  1.00  0.00    -0.322 C  
HETATM   21  H2  UNL     1     -11.128  18.519  65.187  1.00  0.00     0.000 HD 
HETATM   22  N   UNL     1     -10.764  19.254  65.795  1.00  0.00    -0.424 NA 
HETATM   23  C   UNL     1      -8.784  19.786  68.558  1.00  0.00    -0.275 C  
HETATM   24  C   UNL     1     -10.614  18.749  67.174  1.00  0.00    -0.428 C  
HETATM   25  C   UNL     1     -10.227  19.829  68.190  1.00  0.00    -0.577 C  
BRANCH  20  26
HETATM   26  C   UNL     1      -6.678  18.453  69.040  1.00  0.00    -0.267 C  
HETATM   27  N   UNL     1      -5.830  19.626  68.839  1.00  0.00    -0.223 NA 
HETATM   28  H2  UNL     1      -6.238  20.439  69.301  1.00  0.00     0.000 HD 
HETATM   29  H1  UNL     1      -4.857  19.510  69.124  1.00  0.00     0.000 HD 
ENDBRANCH  20  26
ENDBRANCH  16  17
ENDBRANCH   8  16
BRANCH  10  30
HETATM   30  O   UNL     1     -10.246  12.654  68.031  1.00  0.00    -0.217 OA 
BRANCH  30  31
HETATM   31  C   UNL     1     -11.227  11.612  68.185  1.00  0.00    -0.263 C  
HETATM   32  O   UNL     1     -11.773  12.504  70.409  1.00  0.00    -0.534 OA 
HETATM   33  C   UNL     1     -10.155   9.179  69.426  1.00  0.00    -0.197 C  
HETATM   34  C   UNL     1     -11.660  11.282  69.660  1.00  0.00    -0.330 C  
HETATM   35  O   UNL     1     -10.786  10.447  67.504  1.00  0.00    -0.270 OA 
HETATM   36  O   UNL     1     -11.128   8.191  69.032  1.00  0.00    -0.429 OA 
HETATM   37  C   UNL     1     -10.792  10.223  70.413  1.00  0.00    -0.253 C  
HETATM   38  H   UNL     1     -11.440   7.747  69.812  1.00  0.00     0.000 HD 
HETATM   39  C   UNL     1      -8.995   8.411  70.064  1.00  0.00    -0.138 C  
HETATM   40  H   UNL     1     -12.035  12.305  71.300  1.00  0.00     0.000 HD 
HETATM   41  C   UNL     1      -9.655   9.890  68.175  1.00  0.00    -0.139 C  
BRANCH  37  42
HETATM   42  N   UNL     1     -11.538   9.468  71.460  1.00  0.00    -0.381 NA 
HETATM   43  H   UNL     1     -11.033   8.887  72.130  1.00  0.00     0.000 HD 
HETATM   44  C   UNL     1     -12.976   9.562  71.523  1.00  0.00    -0.386 C  
ENDBRANCH  37  42
ENDBRANCH  30  31
ENDBRANCH  10  30
ENDBRANCH   3   5
ENDBRANCH   2   3
TORSDOF 8
ENDMDL
MODEL        2
REMARK 921   NORMALIZED FREE ENERGY PREDICTED BY IDOCK:   -7.80 KCAL/MOL
REMARK 922        TOTAL FREE ENERGY PREDICTED BY IDOCK:  -12.18 KCAL/MOL
REMARK 923 INTER-LIGAND FREE ENERGY PREDICTED BY IDOCK:  -10.64 KCAL/MOL
REMARK 924 INTRA-LIGAND FREE ENERGY PREDICTED BY IDOCK:   -1.55 KCAL/MOL
REMARK 927      BINDING AFFINITY PREDICTED BY RF-SCORE:    0.00 PKD
ROOT
HETATM    1  C   UNL     1     -14.074  14.331  71.994  1.00  0.00    -0.618 C  
HETATM    2  C   UNL     1     -13.400  12.966  72.038  1.00  0.00    -0.482 C  
ENDROOT
BRANCH   2   3
HETATM    3  N   UNL     1     -12.788  12.661  70.742  1.00  0.00    -0.099 NA 
HETATM    4  H   UNL     1     -11.883  13.125  70.665  1.00  0.00     0.000 HD 
BRANCH   3   5
HETATM    5  C   UNL     1     -12.649  11.213  70.424  1.00  0.00    -0.246 C  
HETATM    6  C   UNL     1     -12.449  10.376  71.696  1.00  0.00    -0.471 C  
HETATM    7  C   UNL     1     -12.351   8.880  71.383  1.00  0.00    -0.313 C  
HETATM    8  C   UNL     1     -11.114   8.590  70.489  1.00  0.00    -0.244 C  
HETATM    9  N   UNL     1     -12.287   8.142  72.662  1.00  0.00    -0.606 NA 
HETATM   10  C   UNL     1     -11.584  10.938  69.324  1.00  0.00    -0.318 C  
HETATM   11  H2  UNL     1     -13.066   8.364  73.283  1.00  0.00     0.000 HD 
HETATM   12  H1  UNL     1     -12.222   7.147  72.454  1.00  0.00     0.000 HD 
HETATM   13  C   UNL     1     -11.112   9.474  69.214  1.00  0.00    -0.082 C  
HETATM   14  H   UNL     1      -9.778  10.098  67.863  1.00  0.00     0.000 HD 
HETATM   15  O   UNL     1      -9.780   9.557  68.643  1.00  0.00    -0.151 OA 
BRANCH   8  16
HETATM   16  O   UNL     1     -11.127   7.172  70.126  1.00  0.00    -0.263 OA 
BRANCH  16  17
HETATM   17  C   UNL     1      -9.877   6.485  70.364  1.00  0.00    -0.175 C  
HETATM   18  H1  UNL     1     -10.232   4.646  67.439  1.00  0.00     0.000 HD 
HETATM   19  O   UNL     1      -9.808   6.077  71.736  1.00  0.00    -0.165 OA 
HETATM   20  C   UNL     1     -10.183   4.781  72.014  1.00  0.00    -0.195 C  
HETATM   21  H2  UNL     1     -10.569   6.262  67.714  1.00  0.00     0.000 HD 
HETATM   22  N   UNL     1     -10.464   5.344  68.146  1.00  0.00    -0.156 NA 
HETATM   23  C   UNL     1      -9.899   3.787  71.162  1.00  0.00    -0.213 C  
HETATM   24  C   UNL     1      -9.520   5.414  69.278  1.00  0.00    -0.133 C  
HETATM   25  C   UNL     1      -9.178   4.050  69.885  1.00  0.00    -0.213 C  
BRANCH  20  26
HETATM   26  C   UNL     1     -10.849   4.626  73.362  1.00  0.00    -0.276 C  
HETATM   27  N   UNL     1     -11.127   5.878  74.062  1.00  0.00    -0.314 NA 
HETATM   28  H2  UNL     1     -11.676   6.499  73.468  1.00  0.00     0.000 HD 
HETATM   29  H1  UNL     1     -11.576   5.774  74.972  1.00  0.00     0.000 HD 
ENDBRANCH  20  26
ENDBRANCH  16  17
ENDBRANCH   8  16
BRANCH  10  30
HETATM   30  O   UNL     1     -11.913  11.532  68.019  1.00  0.00    -0.595 OA 
BRANCH  30  31
HETATM   31  C   UNL     1     -10.915  12.379  67.419  1.00  0.00    -0.254 C  
HETATM   32  O   UNL     1     -12.402  14.307  67.749  1.00  0.00    -0.596 OA 
HETATM   33  C   UNL     1     -11.213  12.648  64.513  1.00  0.00    -0.333 C  
HETATM   34  C   UNL     1     -11.423  13.754  66.854  1.00  0.00    -0.347 C  
HETATM   35  O   UNL     1     -10.208  11.644  66.431  1.00  0.00    -0.211 OA 
HETATM   36  O   UNL     1      -9.898  13.093  64.120  1.00  0.00    -0.690 OA 
HETATM   37  C   UNL     1     -11.935  13.745  65.377  1.00  0.00    -0.379 C  
HETATM   38  H   UNL     1      -9.990  13.893  63.614  1.00  0.00     0.000 HD 
HETATM   39  C   UNL     1     -11.968  12.339  63.219  1.00  0.00    -0.499 C  
HETATM   40  H   UNL     1     -12.709  15.138  67.407  1.00  0.00     0.000 HD 
HETATM   41  C   UNL     1     -11.066  11.367  65.324  1.00  0.00    -0.129 C  
BRANCH  37  42
HETATM   42  N   UNL     1     -11.780  15.054  64.678  1.00  0.00    -0.508 NA 
HETATM   43  H   UNL     1     -12.291  15.236  63.814  1.00  0.00     0.000 HD 
HETATM   44  C   UNL     1     -10.906  16.060  65.229  1.00  0.00    -0.362 C  
ENDBRANCH  37  42
ENDBRANCH  30  31
ENDBRANCH  10  30
ENDBRANCH   3   5
ENDBRANCH   2   3
TORSDOF 8
ENDMDL
MODEL        3
REMARK 921   NORMALIZED FREE ENERGY PREDICTED BY IDOCK:   -7.64 KCAL/MOL
REMARK 922        TOTAL FREE ENERGY PREDICTED BY IDOCK:  -11.95 KCAL/MOL
REMARK 923 INTER-LIGAND FREE ENERGY PREDICTED BY IDOCK:  -10.74 KCAL/MOL
REMARK 924 INTRA-LIGAND FREE ENERGY PREDICTED BY IDOCK:   -1.21 KCAL/MOL
REMARK 927      BINDING AFFINITY PREDICTED BY RF-SCORE:    0.00 PKD
ROOT
HETATM    1  C   UNL     1     -11.263  11.985  63.533  1.00  0.00    -0.526 C  
HETATM    2  C   UNL     1     -10.948  11.622  64.977  1.00  0.00    -0.273 C  
ENDROOT
BRANCH   2   3
HETATM    3  N   UNL     1      -9.868  12.471  65.489  1.00  0.00    -0.379 NA 
HETATM    4  H   UNL     1      -9.247  12.743  64.728  1.00  0.00     0.000 HD 
BRANCH   3   5
HETATM    5  C   UNL     1     -10.306  13.677  66.246  1.00  0.00    -0.293 C  
HETATM    6  C   UNL     1     -10.070  14.963  65.439  1.00  0.00    -0.400 C  
HETATM    7  C   UNL     1     -10.561  16.204  66.190  1.00  0.00    -0.283 C  
HETATM    8  C   UNL     1      -9.771  16.386  67.516  1.00  0.00    -0.231 C  
HETATM    9  N   UNL     1     -10.413  17.373  65.300  1.00  0.00    -0.615 NA 
HETATM   10  C   UNL     1      -9.722  13.729  67.686  1.00  0.00    -0.227 C  
HETATM   11  H2  UNL     1     -10.882  17.245  64.402  1.00  0.00     0.000 HD 
HETATM   12  H1  UNL     1     -10.740  18.199  65.799  1.00  0.00     0.000 HD 
HETATM   13  C   UNL     1      -9.809  15.101  68.385  1.00  0.00    -0.223 C  
HETATM   14  H   UNL     1      -8.748  14.309  69.881  1.00  0.00     0.000 HD 
HETATM   15  O   UNL     1      -8.725  15.095  69.349  1.00  0.00    -0.219 OA 
BRANCH   8  16
HETATM   16  O   UNL     1     -10.349  17.514  68.249  1.00  0.00    -0.338 OA 
BRANCH  16  17
HETATM   17  C   UNL     1      -9.417  18.585  68.524  1.00  0.00    -0.347 C  
HETATM   18  H1  UNL     1     -11.182  20.763  66.473  1.00  0.00     0.000 HD 
HETATM   19  O   UNL     1      -8.077  18.085  68.444  1.00  0.00    -0.281 OA 
HETATM   20  C   UNL     1      -7.418  18.276  67.249  1.00  0.00    -0.213 C  
HETATM   21  H2  UNL     1     -11.767  19.626  67.553  1.00  0.00     0.000 HD 
HETATM   22  N   UNL     1     -10.976  19.895  66.968  1.00  0.00    -0.270 NA 
HETATM   23  C   UNL     1      -7.599  19.396  66.537  1.00  0.00    -0.273 C  
HETATM   24  C   UNL     1      -9.734  19.917  67.765  1.00  0.00    -0.392 C  
HETATM   25  C   UNL     1      -8.521  20.467  67.007  1.00  0.00    -0.355 C  
BRANCH  20  26
HETATM   26  C   UNL     1      -6.464  17.156  66.906  1.00  0.00    -0.204 C  
HETATM   27  N   UNL     1      -6.057  16.322  68.035  1.00  0.00    -0.113 NA 
HETATM   28  H2  UNL     1      -6.879  15.950  68.512  1.00  0.00     0.000 HD 
HETATM   29  H1  UNL     1      -5.413  15.565  67.804  1.00  0.00     0.000 HD 
ENDBRANCH  20  26
ENDBRANCH  16  17
ENDBRANCH   8  16
BRANCH  10  30
HETATM   30  O   UNL     1     -10.164  12.621  68.546  1.00  0.00    -0.229 OA 
BRANCH  30  31
HETATM   31  C   UNL     1     -11.585  12.415  68.663  1.00  0.00    -0.319 C  
HETATM   32  O   UNL     1     -11.653  14.135  70.417  1.00  0.00    -0.420 OA 
HETATM   33  C   UNL     1     -12.304  10.371  70.642  1.00  0.00    -0.346 C  
HETATM   34  C   UNL     1     -12.244  12.889  70.009  1.00  0.00    -0.222 C  
HETATM   35  O   UNL     1     -11.886  11.054  68.393  1.00  0.00    -0.503 OA 
HETATM   36  O   UNL     1     -13.642  10.021  70.233  1.00  0.00    -0.478 OA 
HETATM   37  C   UNL     1     -12.255  11.849  71.175  1.00  0.00    -0.065 C  
HETATM   38  H   UNL     1     -14.219  10.111  70.983  1.00  0.00     0.000 HD 
HETATM   39  C   UNL     1     -11.900   9.355  71.712  1.00  0.00    -0.452 C  
HETATM   40  H   UNL     1     -12.052  14.421  71.231  1.00  0.00     0.000 HD 
HETATM   41  C   UNL     1     -11.380  10.226  69.440  1.00  0.00    -0.221 C  
BRANCH  37  42
HETATM   42  N   UNL     1     -13.386  12.028  72.131  1.00  0.00    -0.526 NA 
HETATM   43  H   UNL     1     -13.783  11.221  72.612  1.00  0.00     0.000 HD 
HETATM   44  C   UNL     1     -13.917  13.347  72.372  1.00  0.00    -0.504 C  
ENDBRANCH  37  42
ENDBRANCH  30  31
ENDBRANCH  10  30
ENDBRANCH   3   5
ENDBRANCH   2   3
TORSDOF 8
ENDMDL
MODEL        4
REMARK 921   NORMALIZED FREE ENERGY PREDICTED BY IDOCK:   -7.63 KCAL/MOL
REMARK 922        TOTAL FREE ENERGY PREDICTED BY IDOCK:  -11.94 KCAL/MOL
REMARK 923 INTER-LIGAND FREE ENERGY PREDICTED BY IDOCK:  -10.08 KCAL/MOL
REMARK 924 INTRA-LIGAND FREE ENERGY PREDICTED BY IDOCK:   -1.85 KCAL/MOL
REMARK 927      BINDING AFFINITY PREDICTED BY RF-SCORE:    0.00 PKD
ROOT
HETATM    1  C   UNL     1     -14.310  14.957  71.775  1.00  0.00    -0.668 C  
HETATM    2  C   UNL     1     -13.580  13.652  72.062  1.00  0.00    -0.495 C  
ENDROOT
BRANCH   2   3
HETATM    3  N   UNL     1     -12.472  13.473  71.119  1.00  0.00    -0.358 NA 
HETATM    4  H   UNL     1     -11.598  13.783  71.543  1.00  0.00     0.000 HD 
BRANCH   3   5
HETATM    5  C   UNL     1     -12.314  12.097  70.572  1.00  0.00    -0.272 C  
HETATM    6  C   UNL     1     -12.544  11.032  71.655  1.00  0.00    -0.402 C  
HETATM    7  C   UNL     1     -12.429   9.612  71.091  1.00  0.00    -0.332 C  
HETATM    8  C   UNL     1     -10.997   9.358  70.547  1.00  0.00    -0.274 C  
HETATM    9  N   UNL     1     -12.787   8.658  72.161  1.00  0.00    -0.370 NA 
HETATM   10  C   UNL     1     -10.983  11.910  69.788  1.00  0.00     0.161 C  
HETATM   11  H2  UNL     1     -13.704   8.847  72.566  1.00  0.00     0.000 HD 
HETATM   12  H1  UNL     1     -12.710   7.714  71.786  1.00  0.00     0.000 HD 
HETATM   13  C   UNL     1     -10.570  10.447  69.528  1.00  0.00    -0.246 C  
HETATM   14  H   UNL     1      -8.865  11.157  68.765  1.00  0.00     0.000 HD 
HETATM   15  O   UNL     1      -9.127  10.489  69.388  1.00  0.00    -0.181 OA 
BRANCH   8  16
HETATM   16  O   UNL     1     -10.968   8.034  69.920  1.00  0.00    -0.242 OA 
BRANCH  16  17
HETATM   17  C   UNL     1      -9.794   7.251  70.237  1.00  0.00    -0.179 C  
HETATM   18  H1  UNL     1     -10.327   5.188  67.493  1.00  0.00     0.000 HD 
HETATM   19  O   UNL     1      -9.772   6.970  71.642  1.00  0.00    -0.162 OA 
HETATM   20  C   UNL     1     -10.277   5.750  72.036  1.00  0.00    -0.201 C  
HETATM   21  H2  UNL     1     -10.498   6.848  67.611  1.00  0.00     0.000 HD 
HETATM   22  N   UNL     1     -10.489   5.969  68.129  1.00  0.00    -0.209 NA 
HETATM   23  C   UNL     1     -10.094   4.657  71.285  1.00  0.00    -0.245 C  
HETATM   24  C   UNL     1      -9.546   6.051  69.261  1.00  0.00    -0.136 C  
HETATM   25  C   UNL     1      -9.346   4.723  69.998  1.00  0.00    -0.213 C  
BRANCH  20  26
HETATM   26  C   UNL     1     -10.959   5.792  73.384  1.00  0.00    -0.222 C  
HETATM   27  N   UNL     1     -10.893   7.080  74.071  1.00  0.00    -0.478 NA 
HETATM   28  H2  UNL     1     -11.257   7.819  73.470  1.00  0.00     0.000 HD 
HETATM   29  H1  UNL     1     -11.353   7.108  74.981  1.00  0.00     0.000 HD 
ENDBRANCH  20  26
ENDBRANCH  16  17
ENDBRANCH   8  16
BRANCH  10  30
HETATM   30  O   UNL     1     -10.878  12.756  68.590  1.00  0.00    -0.242 OA 
BRANCH  30  31
HETATM   31  C   UNL     1     -11.565  12.301  67.409  1.00  0.00    -0.355 C  
HETATM   32  O   UNL     1      -9.429  11.455  66.536  1.00  0.00    -0.190 OA 
HETATM   33  C   UNL     1     -11.645  14.303  65.266  1.00  0.00    -0.348 C  
HETATM   34  C   UNL     1     -10.671  12.059  66.139  1.00  0.00    -0.275 C  
HETATM   35  O   UNL     1     -12.641  13.181  67.123  1.00  0.00    -0.125 OA 
HETATM   36  O   UNL     1     -12.740  13.827  64.456  1.00  0.00    -0.643 OA 
HETATM   37  C   UNL     1     -10.438  13.298  65.215  1.00  0.00    -0.313 C  
HETATM   38  H   UNL     1     -12.434  13.737  63.561  1.00  0.00     0.000 HD 
HETATM   39  C   UNL     1     -11.274  15.684  64.721  1.00  0.00    -0.391 C  
HETATM   40  H   UNL     1      -8.889  11.309  65.768  1.00  0.00     0.000 HD 
HETATM   41  C   UNL     1     -12.135  14.447  66.701  1.00  0.00    -0.367 C  
BRANCH  37  42
HETATM   42  N   UNL     1     -10.196  12.946  63.786  1.00  0.00    -0.684 NA 
HETATM   43  H   UNL     1      -9.866  13.656  63.132  1.00  0.00     0.000 HD 
HETATM   44  C   UNL     1     -10.429  11.597  63.331  1.00  0.00    -0.426 C  
ENDBRANCH  37  42
ENDBRANCH  30  31
ENDBRANCH  10  30
ENDBRANCH   3   5
ENDBRANCH   2   3
TORSDOF 8
ENDMDL
MODEL        5
REMARK 921   NORMALIZED FREE ENERGY PREDICTED BY IDOCK:   -7.60 KCAL/MOL
REMARK 922        TOTAL FREE ENERGY PREDICTED BY IDOCK:  -11.90 KCAL/MOL
REMARK 923 INTER-LIGAND FREE ENERGY PREDICTED BY IDOCK:  -10.35 KCAL/MOL
REMARK 924 INTRA-LIGAND FREE ENERGY PREDICTED BY IDOCK:   -1.55 KCAL/MOL
REMARK 927      BINDING AFFINITY PREDICTED BY RF-SCORE:    0.00 PKD
ROOT
HETATM    1  C   UNL     1     -12.443  12.441  63.520  1.00  0.00    -0.605 C  
HETATM    2  C   UNL     1     -10.978  12.097  63.285  1.00  0.00    -0.330 C  
ENDROOT
BRANCH   2   3
HETATM    3  N   UNL     1     -10.153  12.622  64.377  1.00  0.00    -0.541 NA 
HETATM    4  H   UNL     1     -10.624  13.409  64.823  1.00  0.00     0.000 HD 
BRANCH   3   5
HETATM    5  C   UNL     1      -9.739  11.626  65.403  1.00  0.00    -0.229 C  
HETATM    6  C   UNL     1      -9.781  10.195  64.847  1.00  0.00    -0.392 C  
HETATM    7  C   UNL     1      -9.312   9.168  65.881  1.00  0.00    -0.243 C  
HETATM    8  C   UNL     1     -10.256   9.168  67.115  1.00  0.00    -0.261 C  
HETATM    9  N   UNL     1      -9.263   7.843  65.229  1.00  0.00    -0.303 NA 
HETATM   10  C   UNL     1     -10.504  11.793  66.748  1.00  0.00    -0.225 C  
HETATM   11  H2  UNL     1      -8.689   7.841  64.386  1.00  0.00     0.000 HD 
HETATM   12  H1  UNL     1      -8.951   7.159  65.918  1.00  0.00     0.000 HD 
HETATM   13  C   UNL     1     -10.419  10.592  67.710  1.00  0.00    -0.224 C  
HETATM   14  H   UNL     1     -11.719  11.552  68.885  1.00  0.00     0.000 HD 
HETATM   15  O   UNL     1     -11.619  10.681  68.520  1.00  0.00    -0.289 OA 
BRANCH   8  16
HETATM   16  O   UNL     1      -9.707   8.255  68.120  1.00  0.00    -0.151 OA 
BRANCH  16  17
HETATM   17  C   UNL     1     -10.671   7.334  68.679  1.00  0.00    -0.138 C  
HETATM   18  H1  UNL     1      -8.909   7.172  71.668  1.00  0.00     0.000 HD 
HETATM   19  O   UNL     1     -10.987   6.326  67.710  1.00  0.00    -0.308 OA 
HETATM   20  C   UNL     1     -10.299   5.137  67.810  1.00  0.00    -0.094 C  
HETATM   21  H2  UNL     1      -9.221   8.501  70.700  1.00  0.00     0.000 HD 
HETATM   22  N   UNL     1      -9.133   7.485  70.723  1.00  0.00    -0.153 NA 
HETATM   23  C   UNL     1      -9.982   4.626  69.007  1.00  0.00    -0.186 C  
HETATM   24  C   UNL     1     -10.328   6.854  70.129  1.00  0.00    -0.199 C  
HETATM   25  C   UNL     1     -10.355   5.328  70.267  1.00  0.00    -0.350 C  
BRANCH  20  26
HETATM   26  C   UNL     1     -10.032   4.485  66.473  1.00  0.00    -0.240 C  
HETATM   27  N   UNL     1     -11.083   4.670  65.474  1.00  0.00    -0.942 NA 
HETATM   28  H2  UNL     1     -11.279   5.663  65.349  1.00  0.00     0.000 HD 
HETATM   29  H1  UNL     1     -10.903   4.230  64.572  1.00  0.00     0.000 HD 
ENDBRANCH  20  26
ENDBRANCH  16  17
ENDBRANCH   8  16
BRANCH  10  30
HETATM   30  O   UNL     1     -10.254  13.080  67.415  1.00  0.00    -0.228 OA 
BRANCH  30  31
HETATM   31  C   UNL     1     -11.297  14.070  67.332  1.00  0.00    -0.329 C  
HETATM   32  O   UNL     1      -9.622  15.721  66.618  1.00  0.00    -0.224 OA 
HETATM   33  C   UNL     1     -11.692  15.554  69.832  1.00  0.00    -0.352 C  
HETATM   34  C   UNL     1     -10.831  15.570  67.381  1.00  0.00    -0.312 C  
HETATM   35  O   UNL     1     -12.279  13.802  68.321  1.00  0.00    -0.335 OA 
HETATM   36  O   UNL     1     -13.022  16.083  69.655  1.00  0.00    -0.484 OA 
HETATM   37  C   UNL     1     -10.696  16.203  68.804  1.00  0.00    -0.294 C  
HETATM   38  H   UNL     1     -12.992  17.024  69.787  1.00  0.00     0.000 HD 
HETATM   39  C   UNL     1     -11.301  15.847  71.282  1.00  0.00    -0.425 C  
HETATM   40  H   UNL     1      -9.341  16.628  66.648  1.00  0.00     0.000 HD 
HETATM   41  C   UNL     1     -11.741  14.047  69.621  1.00  0.00    -0.311 C  
BRANCH  37  42
HETATM   42  N   UNL     1     -10.909  17.679  68.828  1.00  0.00    -0.267 NA 
HETATM   43  H   UNL     1     -11.841  18.060  68.990  1.00  0.00     0.000 HD 
HETATM   44  C   UNL     1      -9.791  18.568  68.621  1.00  0.00    -0.385 C  
ENDBRANCH  37  42
ENDBRANCH  30  31
ENDBRANCH  10  30
ENDBRANCH   3   5
ENDBRANCH   2   3
TORSDOF 8
ENDMDL
MODEL        6
REMARK 921   NORMALIZED FREE ENERGY PREDICTED BY IDOCK:   -7.58 KCAL/MOL
REMARK 922        TOTAL FREE ENERGY PREDICTED BY IDOCK:  -11.87 KCAL/MOL
REMARK 923 INTER-LIGAND FREE ENERGY PREDICTED BY IDOCK:  -10.39 KCAL/MOL
REMARK 924 INTRA-LIGAND FREE ENERGY PREDICTED BY IDOCK:   -1.48 KCAL/MOL
REMARK 927      BINDING AFFINITY PREDICTED BY RF-SCORE:    0.00 PKD
ROOT
HETATM    1  C   UNL     1     -13.339  15.677  72.495  1.00  0.00    -0.604 C  
HETATM    2  C   UNL     1     -12.577  14.439  72.041  1.00  0.00    -0.314 C  
ENDROOT
BRANCH   2   3
HETATM    3  N   UNL     1     -11.488  14.819  71.136  1.00  0.00    -0.508 NA 
HETATM    4  H   UNL     1     -10.594  14.766  71.625  1.00  0.00     0.000 HD 
BRANCH   3   5
HETATM    5  C   UNL     1     -11.418  14.053  69.862  1.00  0.00    -0.206 C  
HETATM    6  C   UNL     1     -11.923  12.613  70.042  1.00  0.00    -0.377 C  
HETATM    7  C   UNL     1     -11.898  11.832  68.725  1.00  0.00    -0.320 C  
HETATM    8  C   UNL     1     -10.444  11.705  68.195  1.00  0.00    -0.195 C  
HETATM    9  N   UNL     1     -12.513  10.509  68.961  1.00  0.00    -0.672 NA 
HETATM   10  C   UNL     1     -10.021  14.141  69.181  1.00  0.00     0.028 C  
HETATM   11  H2  UNL     1     -13.449  10.576  69.361  1.00  0.00     0.000 HD 
HETATM   12  H1  UNL     1     -12.497   9.989  68.084  1.00  0.00     0.000 HD 
HETATM   13  C   UNL     1      -9.751  13.089  68.087  1.00  0.00    -0.228 C  
HETATM   14  H   UNL     1      -7.884  13.794  67.993  1.00  0.00     0.000 HD 
HETATM   15  O   UNL     1      -8.308  12.946  68.059  1.00  0.00    -0.150 OA 
BRANCH   8  16
HETATM   16  O   UNL     1     -10.483  11.051  66.885  1.00  0.00    -0.225 OA 
BRANCH  16  17
HETATM   17  C   UNL     1      -9.963  11.856  65.802  1.00  0.00    -0.236 C  
HETATM   18  H1  UNL     1     -13.173  12.658  64.745  1.00  0.00     0.000 HD 
HETATM   19  O   UNL     1      -8.900  11.151  65.150  1.00  0.00    -0.155 OA 
HETATM   20  C   UNL     1      -9.233  10.445  64.014  1.00  0.00    -0.263 C  
HETATM   21  H2  UNL     1     -12.574  12.549  66.303  1.00  0.00     0.000 HD 
HETATM   22  N   UNL     1     -12.453  12.245  65.337  1.00  0.00    -0.533 NA 
HETATM   23  C   UNL     1     -10.147  10.917  63.157  1.00  0.00    -0.317 C  
HETATM   24  C   UNL     1     -11.068  12.491  64.892  1.00  0.00    -0.299 C  
HETATM   25  C   UNL     1     -10.837  12.214  63.403  1.00  0.00    -0.474 C  
BRANCH  20  26
HETATM   26  C   UNL     1      -8.425   9.181  63.837  1.00  0.00    -0.180 C  
HETATM   27  N   UNL     1      -8.538   8.215  64.928  1.00  0.00    -0.372 NA 
HETATM   28  H2  UNL     1      -9.518   7.986  65.095  1.00  0.00     0.000 HD 
HETATM   29  H1  UNL     1      -7.993   7.361  64.809  1.00  0.00     0.000 HD 
ENDBRANCH  20  26
ENDBRANCH  16  17
ENDBRANCH   8  16
BRANCH  10  30
HETATM   30  O   UNL     1      -9.648  15.503  68.770  1.00  0.00    -0.190 OA 
BRANCH  30  31
HETATM   31  C   UNL     1      -9.875  15.852  67.391  1.00  0.00    -0.234 C  
HETATM   32  O   UNL     1      -7.456  15.693  66.989  1.00  0.00    -0.216 OA 
HETATM   33  C   UNL     1      -9.768  18.740  66.888  1.00  0.00    -0.316 C  
HETATM   34  C   UNL     1      -8.637  16.419  66.608  1.00  0.00    -0.260 C  
HETATM   35  O   UNL     1     -10.987  16.730  67.305  1.00  0.00    -0.195 OA 
HETATM   36  O   UNL     1     -10.476  18.850  65.636  1.00  0.00    -0.569 OA 
HETATM   37  C   UNL     1      -8.415  17.964  66.695  1.00  0.00    -0.258 C  
HETATM   38  H   UNL     1      -9.924  19.315  65.018  1.00  0.00     0.000 HD 
HETATM   39  C   UNL     1      -9.550  20.170  67.387  1.00  0.00    -0.551 C  
HETATM   40  H   UNL     1      -6.707  16.037  66.516  1.00  0.00     0.000 HD 
HETATM   41  C   UNL     1     -10.653  17.994  67.879  1.00  0.00    -0.372 C  
BRANCH  37  42
HETATM   42  N   UNL     1      -7.722  18.541  65.507  1.00  0.00    -0.375 NA 
HETATM   43  H   UNL     1      -8.213  18.620  64.616  1.00  0.00     0.000 HD 
HETATM   44  C   UNL     1      -6.354  18.984  65.622  1.00  0.00    -0.251 C  
ENDBRANCH  37  42
ENDBRANCH  30  31
ENDBRANCH  10  30
ENDBRANCH   3   5
ENDBRANCH   2   3
TORSDOF 8
ENDMDL
MODEL        7
REMARK 921   NORMALIZED FREE ENERGY PREDICTED BY IDOCK:   -7.57 KCAL/MOL
REMARK 922        TOTAL FREE ENERGY PREDICTED BY IDOCK:  -11.85 KCAL/MOL
REMARK 923 INTER-LIGAND FREE ENERGY PREDICTED BY IDOCK:  -10.51 KCAL/MOL
REMARK 924 INTRA-LIGAND FREE ENERGY PREDICTED BY IDOCK:   -1.34 KCAL/MOL
REMARK 927      BINDING AFFINITY PREDICTED BY RF-SCORE:    0.00 PKD
ROOT
HETATM    1  C   UNL     1     -12.103  13.325  63.566  1.00  0.00    -0.550 C  
HETATM    2  C   UNL     1     -10.813  12.584  63.889  1.00  0.00    -0.431 C  
ENDROOT
BRANCH   2   3
HETATM    3  N   UNL     1     -10.055  13.308  64.914  1.00  0.00    -0.542 NA 
HETATM    4  H   UNL     1     -10.400  14.265  64.991  1.00  0.00     0.000 HD 
BRANCH   3   5
HETATM    5  C   UNL     1     -10.022  12.668  66.258  1.00  0.00    -0.258 C  
HETATM    6  C   UNL     1     -10.549  11.226  66.206  1.00  0.00    -0.315 C  
HETATM    7  C   UNL     1     -10.474  10.543  67.575  1.00  0.00    -0.239 C  
HETATM    8  C   UNL     1     -11.373  11.285  68.603  1.00  0.00    -0.273 C  
HETATM    9  N   UNL     1     -10.878   9.132  67.412  1.00  0.00    -0.424 NA 
HETATM   10  C   UNL     1     -10.696  13.538  67.357  1.00  0.00    -0.263 C  
HETATM   11  H2  UNL     1     -10.332   8.646  66.700  1.00  0.00     0.000 HD 
HETATM   12  H1  UNL     1     -10.829   8.677  68.323  1.00  0.00     0.000 HD 
HETATM   13  C   UNL     1     -11.041  12.799  68.665  1.00  0.00    -0.266 C  
HETATM   14  H   UNL     1     -11.941  14.476  69.272  1.00  0.00     0.000 HD 
HETATM   15  O   UNL     1     -12.145  13.549  69.234  1.00  0.00    -0.322 OA 
BRANCH   8  16
HETATM   16  O   UNL     1     -11.182  10.667  69.917  1.00  0.00    -0.267 OA 
BRANCH  16  17
HETATM   17  C   UNL     1     -12.119   9.606  70.217  1.00  0.00     0.023 C  
HETATM   18  H1  UNL     1     -13.706  11.570  72.602  1.00  0.00     0.000 HD 
HETATM   19  O   UNL     1     -11.414   8.364  70.331  1.00  0.00    -0.234 OA 
HETATM   20  C   UNL     1     -11.072   7.962  71.603  1.00  0.00    -0.244 C  
HETATM   21  H2  UNL     1     -13.122  12.008  71.097  1.00  0.00     0.000 HD 
HETATM   22  N   UNL     1     -13.042  11.340  71.863  1.00  0.00    -0.477 NA 
HETATM   23  C   UNL     1     -11.890   8.192  72.638  1.00  0.00    -0.389 C  
HETATM   24  C   UNL     1     -13.139   9.959  71.352  1.00  0.00    -0.407 C  
HETATM   25  C   UNL     1     -13.191   8.893  72.451  1.00  0.00    -0.482 C  
BRANCH  20  26
HETATM   26  C   UNL     1      -9.764   7.206  71.662  1.00  0.00    -0.159 C  
HETATM   27  N   UNL     1      -8.694   7.757  70.832  1.00  0.00    -0.135 NA 
HETATM   28  H2  UNL     1      -8.543   8.739  71.060  1.00  0.00     0.000 HD 
HETATM   29  H1  UNL     1      -7.811   7.247  70.871  1.00  0.00     0.000 HD 
ENDBRANCH  20  26
ENDBRANCH  16  17
ENDBRANCH   8  16
BRANCH  10  30
HETATM   30  O   UNL     1     -10.024  14.826  67.587  1.00  0.00    -0.225 OA 
BRANCH  30  31
HETATM   31  C   UNL     1     -10.845  16.008  67.531  1.00  0.00    -0.292 C  
HETATM   32  O   UNL     1     -10.170  16.321  65.188  1.00  0.00    -0.566 OA 
HETATM   33  C   UNL     1      -9.409  18.457  68.270  1.00  0.00    -0.326 C  
HETATM   34  C   UNL     1     -10.502  17.035  66.391  1.00  0.00    -0.252 C  
HETATM   35  O   UNL     1     -10.855  16.634  68.805  1.00  0.00    -0.314 OA 
HETATM   36  O   UNL     1     -10.494  19.349  68.601  1.00  0.00    -0.493 OA 
HETATM   37  C   UNL     1      -9.423  18.112  66.737  1.00  0.00    -0.294 C  
HETATM   38  H   UNL     1     -10.396  20.145  68.090  1.00  0.00     0.000 HD 
HETATM   39  C   UNL     1      -8.123  19.169  68.692  1.00  0.00    -0.405 C  
HETATM   40  H   UNL     1      -9.963  16.942  64.500  1.00  0.00     0.000 HD 
HETATM   41  C   UNL     1      -9.567  17.182  69.087  1.00  0.00    -0.116 C  
BRANCH  37  42
HETATM   42  N   UNL     1      -9.583  19.387  65.981  1.00  0.00    -0.425 NA 
HETATM   43  H   UNL     1      -8.776  19.992  65.820  1.00  0.00     0.000 HD 
HETATM   44  C   UNL     1     -10.881  19.764  65.478  1.00  0.00    -0.151 C  
ENDBRANCH  37  42
ENDBRANCH  30  31
ENDBRANCH  10  30
ENDBRANCH   3   5
ENDBRANCH   2   3
TORSDOF 8
ENDMDL
MODEL        8
REMARK 921   NORMALIZED FREE ENERGY PREDICTED BY IDOCK:   -7.52 KCAL/MOL
REMARK 922        TOTAL FREE ENERGY PREDICTED BY IDOCK:  -11.77 KCAL/MOL
REMARK 923 INTER-LIGAND FREE ENERGY PREDICTED BY IDOCK:  -10.11 KCAL/MOL
REMARK 924 INTRA-LIGAND FREE ENERGY PREDICTED BY IDOCK:   -1.67 KCAL/MOL
REMARK 927      BINDING AFFINITY PREDICTED BY RF-SCORE:    0.00 PKD
ROOT
HETATM    1  C   UNL     1     -13.400   9.903  71.460  1.00  0.00    -0.462 C  
HETATM    2  C   UNL     1     -12.308  10.936  71.219  1.00  0.00    -0.343 C  
ENDROOT
BRANCH   2   3
HETATM    3  N   UNL     1     -12.895  12.192  70.743  1.00  0.00    -0.104 NA 
HETATM    4  H   UNL     1     -13.368  12.669  71.511  1.00  0.00     0.000 HD 
BRANCH   3   5
HETATM    5  C   UNL     1     -11.950  13.124  70.068  1.00  0.00    -0.321 C  
HETATM    6  C   UNL     1     -12.034  14.538  70.664  1.00  0.00    -0.387 C  
HETATM    7  C   UNL     1     -11.032  15.493  70.007  1.00  0.00    -0.319 C  
HETATM    8  C   UNL     1     -11.345  15.653  68.494  1.00  0.00    -0.360 C  
HETATM    9  N   UNL     1     -11.091  16.786  70.719  1.00  0.00    -0.263 NA 
HETATM   10  C   UNL     1     -12.077  13.093  68.518  1.00  0.00    -0.182 C  
HETATM   11  H2  UNL     1     -10.941  16.689  71.723  1.00  0.00     0.000 HD 
HETATM   12  H1  UNL     1     -10.424  17.422  70.282  1.00  0.00     0.000 HD 
HETATM   13  C   UNL     1     -11.426  14.279  67.778  1.00  0.00    -0.329 C  
HETATM   14  H   UNL     1     -12.211  13.545  66.094  1.00  0.00     0.000 HD 
HETATM   15  O   UNL     1     -12.161  14.386  66.532  1.00  0.00    -0.424 OA 
BRANCH   8  16
HETATM   16  O   UNL     1     -10.300  16.482  67.890  1.00  0.00    -0.274 OA 
BRANCH  16  17
HETATM   17  C   UNL     1     -10.659  17.874  67.734  1.00  0.00    -0.389 C  
HETATM   18  H1  UNL     1     -10.629  17.580  64.273  1.00  0.00     0.000 HD 
HETATM   19  O   UNL     1      -9.870  18.674  68.623  1.00  0.00    -0.354 OA 
HETATM   20  C   UNL     1      -8.740  19.256  68.091  1.00  0.00    -0.331 C  
HETATM   21  H2  UNL     1     -11.212  16.506  65.416  1.00  0.00     0.000 HD 
HETATM   22  N   UNL     1     -10.564  17.274  65.244  1.00  0.00    -0.657 NA 
HETATM   23  C   UNL     1      -8.733  19.716  66.833  1.00  0.00    -0.374 C  
HETATM   24  C   UNL     1     -10.759  18.343  66.243  1.00  0.00    -0.179 C  
HETATM   25  C   UNL     1      -9.940  19.608  65.966  1.00  0.00    -0.508 C  
BRANCH  20  26
HETATM   26  C   UNL     1      -7.603  19.370  69.079  1.00  0.00    -0.334 C  
HETATM   27  N   UNL     1      -6.756  18.184  69.186  1.00  0.00    -0.259 NA 
HETATM   28  H2  UNL     1      -6.398  17.923  68.267  1.00  0.00     0.000 HD 
HETATM   29  H1  UNL     1      -5.988  18.260  69.854  1.00  0.00     0.000 HD 
ENDBRANCH  20  26
ENDBRANCH  16  17
ENDBRANCH   8  16
BRANCH  10  30
HETATM   30  O   UNL     1     -11.740  11.792  67.922  1.00  0.00    -0.432 OA 
BRANCH  30  31
HETATM   31  C   UNL     1     -10.343  11.521  67.697  1.00  0.00    -0.186 C  
HETATM   32  O   UNL     1     -10.695  11.894  65.293  1.00  0.00    -0.267 OA 
HETATM   33  C   UNL     1      -9.777   8.691  67.173  1.00  0.00    -0.190 C  
HETATM   34  C   UNL     1      -9.946  11.106  66.234  1.00  0.00    -0.219 C  
HETATM   35  O   UNL     1      -9.891  10.567  68.645  1.00  0.00    -0.163 OA 
HETATM   36  O   UNL     1      -8.366   8.612  67.465  1.00  0.00    -0.118 OA 
HETATM   37  C   UNL     1     -10.032   9.581  65.903  1.00  0.00    -0.272 C  
HETATM   38  H   UNL     1      -7.924   8.234  66.713  1.00  0.00     0.000 HD 
HETATM   39  C   UNL     1     -10.258   7.252  66.979  1.00  0.00    -0.348 C  
HETATM   40  H   UNL     1     -10.455  11.643  64.409  1.00  0.00     0.000 HD 
HETATM   41  C   UNL     1     -10.485   9.297  68.378  1.00  0.00    -0.206 C  
BRANCH  37  42
HETATM   42  N   UNL     1      -9.084   9.142  64.838  1.00  0.00    -0.402 NA 
HETATM   43  H   UNL     1      -9.166   8.209  64.433  1.00  0.00     0.000 HD 
HETATM   44  C   UNL     1      -8.052  10.041  64.383  1.00  0.00    -0.156 C  
ENDBRANCH  37  42
ENDBRANCH  30  31
ENDBRANCH  10  30
ENDBRANCH   3   5
ENDBRANCH   2   3
TORSDOF 8
ENDMDL
MODEL        9
REMARK 921   NORMALIZED FREE ENERGY PREDICTED BY IDOCK:   -7.40 KCAL/MOL
REMARK 922        TOTAL FREE ENERGY PREDICTED BY IDOCK:  -11.60 KCAL/MOL
REMARK 923 INTER-LIGAND FREE ENERGY PREDICTED BY IDOCK:  -10.60 KCAL/MOL
REMARK 924 INTRA-LIGAND FREE ENERGY PREDICTED BY IDOCK:   -1.00 KCAL/MOL
REMARK 927      BINDING AFFINITY PREDICTED BY RF-SCORE:    0.00 PKD
ROOT
HETATM    1  C   UNL     1     -11.933  16.056  72.417  1.00  0.00    -0.644 C  
HETATM    2  C   UNL     1     -12.907  15.637  71.324  1.00  0.00    -0.487 C  
ENDROOT
BRANCH   2   3
HETATM    3  N   UNL     1     -12.193  15.433  70.060  1.00  0.00    -0.412 NA 
HETATM    4  H   UNL     1     -11.232  15.766  70.144  1.00  0.00     0.000 HD 
BRANCH   3   5
HETATM    5  C   UNL     1     -12.205  14.039  69.536  1.00  0.00    -0.308 C  
HETATM    6  C   UNL     1     -12.467  13.020  70.655  1.00  0.00    -0.347 C  
HETATM    7  C   UNL     1     -12.527  11.587  70.118  1.00  0.00    -0.164 C  
HETATM    8  C   UNL     1     -11.164  11.183  69.491  1.00  0.00    -0.277 C  
HETATM    9  N   UNL     1     -12.905  10.691  71.230  1.00  0.00    -0.402 NA 
HETATM   10  C   UNL     1     -10.952  13.709  68.675  1.00  0.00    -0.267 C  
HETATM   11  H2  UNL     1     -13.771  10.976  71.688  1.00  0.00     0.000 HD 
HETATM   12  H1  UNL     1     -12.946   9.737  70.872  1.00  0.00     0.000 HD 
HETATM   13  C   UNL     1     -10.701  12.208  68.422  1.00  0.00    -0.228 C  
HETATM   14  H   UNL     1      -8.988  12.734  67.537  1.00  0.00     0.000 HD 
HETATM   15  O   UNL     1      -9.272  12.106  68.191  1.00  0.00    -0.187 OA 
BRANCH   8  16
HETATM   16  O   UNL     1     -11.305   9.853  68.893  1.00  0.00    -0.136 OA 
BRANCH  16  17
HETATM   17  C   UNL     1     -10.386   8.866  69.415  1.00  0.00    -0.213 C  
HETATM   18  H1  UNL     1     -10.191   7.293  66.324  1.00  0.00     0.000 HD 
HETATM   19  O   UNL     1     -10.854   8.400  70.686  1.00  0.00    -0.222 OA 
HETATM   20  C   UNL     1     -11.580   7.229  70.685  1.00  0.00    -0.290 C  
HETATM   21  H2  UNL     1     -10.224   8.929  66.672  1.00  0.00     0.000 HD 
HETATM   22  N   UNL     1     -10.473   7.998  67.005  1.00  0.00    -0.340 NA 
HETATM   23  C   UNL     1     -11.270   6.231  69.848  1.00  0.00    -0.498 C  
HETATM   24  C   UNL     1      -9.952   7.784  68.369  1.00  0.00    -0.178 C  
HETATM   25  C   UNL     1     -10.139   6.355  68.887  1.00  0.00    -0.187 C  
BRANCH  20  26
HETATM   26  C   UNL     1     -12.659   7.193  71.743  1.00  0.00    -0.346 C  
HETATM   27  N   UNL     1     -12.526   8.197  72.797  1.00  0.00    -0.610 NA 
HETATM   28  H2  UNL     1     -12.465   9.130  72.388  1.00  0.00     0.000 HD 
HETATM   29  H1  UNL     1     -13.255   8.172  73.511  1.00  0.00     0.000 HD 
ENDBRANCH  20  26
ENDBRANCH  16  17
ENDBRANCH   8  16
BRANCH  10  30
HETATM   30  O   UNL     1     -10.843  14.520  67.453  1.00  0.00    -0.281 OA 
BRANCH  30  31
HETATM   31  C   UNL     1      -9.571  15.147  67.199  1.00  0.00    -0.218 C  
HETATM   32  O   UNL     1      -9.437  15.757  69.576  1.00  0.00    -0.259 OA 
HETATM   33  C   UNL     1      -9.794  17.984  66.486  1.00  0.00    -0.353 C  
HETATM   34  C   UNL     1      -9.102  16.213  68.255  1.00  0.00    -0.190 C  
HETATM   35  O   UNL     1      -9.566  15.685  65.886  1.00  0.00    -0.318 OA 
HETATM   36  O   UNL     1      -8.529  18.227  65.836  1.00  0.00    -0.499 OA 
HETATM   37  C   UNL     1      -9.584  17.680  68.013  1.00  0.00    -0.289 C  
HETATM   38  H   UNL     1      -8.112  18.969  66.258  1.00  0.00     0.000 HD 
HETATM   39  C   UNL     1     -10.644  19.235  66.255  1.00  0.00    -0.545 C  
HETATM   40  H   UNL     1      -9.154  16.401  70.214  1.00  0.00     0.000 HD 
HETATM   41  C   UNL     1     -10.462  16.793  65.810  1.00  0.00    -0.292 C  
BRANCH  37  42
HETATM   42  N   UNL     1      -8.662  18.715  68.564  1.00  0.00    -0.330 NA 
HETATM   43  H   UNL     1      -9.012  19.646  68.787  1.00  0.00     0.000 HD 
HETATM   44  C   UNL     1      -7.272  18.393  68.779  1.00  0.00    -0.284 C  
ENDBRANCH  37  42
ENDBRANCH  30  31
ENDBRANCH  10  30
ENDBRANCH   3   5
ENDBRANCH   2   3
TORSDOF 8
ENDMDL
MODEL       10
REMARK 921   NORMALIZED FREE ENERGY PREDICTED BY IDOCK:   -7.35 KCAL/MOL
REMARK 922        TOTAL FREE ENERGY PREDICTED BY IDOCK:  -11.52 KCAL/MOL
REMARK 923 INTER-LIGAND FREE ENERGY PREDICTED BY IDOCK:   -9.80 KCAL/MOL
REMARK 924 INTRA-LIGAND FREE ENERGY PREDICTED BY IDOCK:   -1.72 KCAL/MOL
REMARK 927      BINDING AFFINITY PREDICTED BY RF-SCORE:    0.00 PKD
ROOT
HETATM    1  C   UNL     1     -12.281  13.373  63.364  1.00  0.00    -0.419 C  
HETATM    2  C   UNL     1     -11.372  12.162  63.207  1.00  0.00    -0.327 C  
ENDROOT
BRANCH   2   3
HETATM    3  N   UNL     1     -10.098  12.392  63.895  1.00  0.00    -0.555 NA 
HETATM    4  H   UNL     1      -9.973  13.388  64.074  1.00  0.00     0.000 HD 
BRANCH   3   5
HETATM    5  C   UNL     1      -9.901  11.619  65.152  1.00  0.00    -0.249 C  
HETATM    6  C   UNL     1      -9.864  10.107  64.883  1.00  0.00    -0.390 C  
HETATM    7  C   UNL     1      -9.614   9.306  66.164  1.00  0.00    -0.260 C  
HETATM    8  C   UNL     1     -10.772   9.526  67.177  1.00  0.00    -0.182 C  
HETATM    9  N   UNL     1      -9.468   7.882  65.799  1.00  0.00    -0.416 NA 
HETATM   10  C   UNL     1     -10.900  12.027  66.273  1.00  0.00    -0.279 C  
HETATM   11  H2  UNL     1      -8.747   7.729  65.094  1.00  0.00     0.000 HD 
HETATM   12  H1  UNL     1      -9.302   7.349  66.652  1.00  0.00     0.000 HD 
HETATM   13  C   UNL     1     -11.018  11.034  67.447  1.00  0.00    -0.291 C  
HETATM   14  H   UNL     1     -12.497  12.177  68.152  1.00  0.00     0.000 HD 
HETATM   15  O   UNL     1     -12.346  11.254  67.987  1.00  0.00    -0.432 OA 
BRANCH   8  16
HETATM   16  O   UNL     1     -10.436   8.833  68.423  1.00  0.00    -0.207 OA 
BRANCH  16  17
HETATM   17  C   UNL     1      -9.679   9.631  69.362  1.00  0.00    -0.194 C  
HETATM   18  H1  UNL     1      -6.816   7.752  68.778  1.00  0.00     0.000 HD 
HETATM   19  O   UNL     1     -10.452   9.833  70.551  1.00  0.00    -0.278 OA 
HETATM   20  C   UNL     1     -10.206   8.976  71.600  1.00  0.00    -0.348 C  
HETATM   21  H2  UNL     1      -7.962   8.291  67.685  1.00  0.00     0.000 HD 
HETATM   22  N   UNL     1      -7.783   8.055  68.661  1.00  0.00    -0.104 NA 
HETATM   23  C   UNL     1      -8.965   8.543  71.855  1.00  0.00    -0.301 C  
HETATM   24  C   UNL     1      -8.194   9.166  69.542  1.00  0.00    -0.120 C  
HETATM   25  C   UNL     1      -7.813   8.966  71.012  1.00  0.00    -0.164 C  
BRANCH  20  26
HETATM   26  C   UNL     1     -11.436   8.667  72.423  1.00  0.00    -0.299 C  
HETATM   27  N   UNL     1     -11.335   7.477  73.264  1.00  0.00    -0.614 NA 
HETATM   28  H2  UNL     1     -10.515   7.541  73.867  1.00  0.00     0.000 HD 
HETATM   29  H1  UNL     1     -12.165   7.268  73.819  1.00  0.00     0.000 HD 
ENDBRANCH  20  26
ENDBRANCH  16  17
ENDBRANCH   8  16
BRANCH  10  30
HETATM   30  O   UNL     1     -10.756  13.422  66.716  1.00  0.00    -0.275 OA 
BRANCH  30  31
HETATM   31  C   UNL     1     -10.208  13.634  68.031  1.00  0.00    -0.248 C  
HETATM   32  O   UNL     1     -12.473  14.102  68.861  1.00  0.00    -0.538 OA 
HETATM   33  C   UNL     1      -9.447  16.422  68.538  1.00  0.00    -0.227 C  
HETATM   34  C   UNL     1     -11.093  14.472  69.023  1.00  0.00    -0.262 C  
HETATM   35  O   UNL     1      -8.904  14.183  67.913  1.00  0.00    -0.165 OA 
HETATM   36  O   UNL     1      -8.529  16.283  69.642  1.00  0.00     0.004 OA 
HETATM   37  C   UNL     1     -10.904  16.023  68.973  1.00  0.00    -0.283 C  
HETATM   38  H   UNL     1      -8.820  16.848  70.348  1.00  0.00     0.000 HD 
HETATM   39  C   UNL     1      -9.357  17.880  68.083  1.00  0.00    -0.286 C  
HETATM   40  H   UNL     1     -13.008  14.609  69.461  1.00  0.00     0.000 HD 
HETATM   41  C   UNL     1      -8.981  15.515  67.406  1.00  0.00    -0.192 C  
BRANCH  37  42
HETATM   42  N   UNL     1     -11.199  16.707  70.265  1.00  0.00    -0.442 NA 
HETATM   43  H   UNL     1     -11.119  17.721  70.338  1.00  0.00     0.000 HD 
HETATM   44  C   UNL     1     -11.598  15.929  71.412  1.00  0.00    -0.464 C  
ENDBRANCH  37  42
ENDBRANCH  30  31
ENDBRANCH  10  30
ENDBRANCH   3   5
ENDBRANCH   2   3
TORSDOF 8
ENDMDL
MODEL       11
REMARK 921   NORMALIZED FREE ENERGY PREDICTED BY IDOCK:   -7.33 KCAL/MOL
REMARK 922        TOTAL FREE ENERGY PREDICTED BY IDOCK:  -11.50 KCAL/MOL
REMARK 923 INTER-LIGAND FREE ENERGY PREDICTED BY IDOCK:  -10.10 KCAL/MOL
REMARK 924 INTRA-LIGAND FREE ENERGY PREDICTED BY IDOCK:   -1.41 KCAL/MOL
REMARK 927      BINDING AFFINITY PREDICTED BY RF-SCORE:    0.00 PKD
ROOT
HETATM    1  C   UNL     1     -12.783  12.066  63.248  1.00  0.00    -0.437 C  
HETATM    2  C   UNL     1     -12.076  13.090  64.125  1.00  0.00    -0.427 C  
ENDROOT
BRANCH   2   3
HETATM    3  N   UNL     1     -10.643  12.791  64.199  1.00  0.00    -0.396 NA 
HETATM    4  H   UNL     1     -10.102  13.653  64.118  1.00  0.00     0.000 HD 
BRANCH   3   5
HETATM    5  C   UNL     1     -10.209  12.027  65.401  1.00  0.00    -0.263 C  
HETATM    6  C   UNL     1     -10.114  10.523  65.106  1.00  0.00    -0.383 C  
HETATM    7  C   UNL     1      -9.623   9.734  66.324  1.00  0.00    -0.213 C  
HETATM    8  C   UNL     1     -10.628   9.870  67.501  1.00  0.00    -0.275 C  
HETATM    9  N   UNL     1      -9.440   8.325  65.920  1.00  0.00    -0.430 NA 
HETATM   10  C   UNL     1     -11.054  12.361  66.664  1.00  0.00    -0.289 C  
HETATM   11  H2  UNL     1      -8.825   8.224  65.112  1.00  0.00     0.000 HD 
HETATM   12  H1  UNL     1      -9.113   7.800  66.730  1.00  0.00     0.000 HD 
HETATM   13  C   UNL     1     -10.928  11.357  67.827  1.00  0.00    -0.247 C  
HETATM   14  H   UNL     1     -12.357  12.395  68.762  1.00  0.00     0.000 HD 
HETATM   15  O   UNL     1     -12.172  11.485  68.563  1.00  0.00    -0.524 OA 
BRANCH   8  16
HETATM   16  O   UNL     1     -10.064   9.196  68.672  1.00  0.00    -0.181 OA 
BRANCH  16  17
HETATM   17  C   UNL     1     -10.981   8.301  69.343  1.00  0.00     0.000 C  
HETATM   18  H1  UNL     1      -9.164   8.520  72.296  1.00  0.00     0.000 HD 
HETATM   19  O   UNL     1     -11.272   7.186  68.491  1.00  0.00    -0.001 OA 
HETATM   20  C   UNL     1     -10.534   6.041  68.700  1.00  0.00    -0.241 C  
HETATM   21  H2  UNL     1      -9.546   9.728  71.203  1.00  0.00     0.000 HD 
HETATM   22  N   UNL     1      -9.416   8.724  71.329  1.00  0.00    -0.225 NA 
HETATM   23  C   UNL     1     -10.177   5.671  69.936  1.00  0.00    -0.320 C  
HETATM   24  C   UNL     1     -10.594   7.988  70.828  1.00  0.00    -0.214 C  
HETATM   25  C   UNL     1     -10.557   6.485  71.124  1.00  0.00    -0.271 C  
BRANCH  20  26
HETATM   26  C   UNL     1     -10.263   5.265  67.432  1.00  0.00    -0.191 C  
HETATM   27  N   UNL     1     -11.134   5.595  66.306  1.00  0.00    -0.772 NA 
HETATM   28  H2  UNL     1     -11.102   6.597  66.118  1.00  0.00     0.000 HD 
HETATM   29  H1  UNL     1     -10.951   5.071  65.450  1.00  0.00     0.000 HD 
ENDBRANCH  20  26
ENDBRANCH  16  17
ENDBRANCH   8  16
BRANCH  10  30
HETATM   30  O   UNL     1     -10.937  13.761  67.102  1.00  0.00    -0.283 OA 
BRANCH  30  31
HETATM   31  C   UNL     1      -9.629  14.360  67.025  1.00  0.00    -0.247 C  
HETATM   32  O   UNL     1      -9.785  14.921  69.413  1.00  0.00    -0.342 OA 
HETATM   33  C   UNL     1      -9.696  17.214  66.352  1.00  0.00    -0.292 C  
HETATM   34  C   UNL     1      -9.274  15.393  68.155  1.00  0.00    -0.186 C  
HETATM   35  O   UNL     1      -9.445  14.922  65.734  1.00  0.00    -0.308 OA 
HETATM   36  O   UNL     1      -8.353  17.437  65.873  1.00  0.00    -0.535 OA 
HETATM   37  C   UNL     1      -9.688  16.876  67.886  1.00  0.00    -0.254 C  
HETATM   38  H   UNL     1      -7.976  18.161  66.360  1.00  0.00     0.000 HD 
HETATM   39  C   UNL     1     -10.481  18.490  66.043  1.00  0.00    -0.433 C  
HETATM   40  H   UNL     1      -9.570  15.545  70.095  1.00  0.00     0.000 HD 
HETATM   41  C   UNL     1     -10.299  16.054  65.571  1.00  0.00    -0.390 C  
BRANCH  37  42
HETATM   42  N   UNL     1      -8.820  17.877  68.572  1.00  0.00    -0.294 NA 
HETATM   43  H   UNL     1      -9.186  18.802  68.799  1.00  0.00     0.000 HD 
HETATM   44  C   UNL     1      -7.461  17.532  68.912  1.00  0.00    -0.234 C  
ENDBRANCH  37  42
ENDBRANCH  30  31
ENDBRANCH  10  30
ENDBRANCH   3   5
ENDBRANCH   2   3
TORSDOF 8
ENDMDL
MODEL       12
REMARK 921   NORMALIZED FREE ENERGY PREDICTED BY IDOCK:   -7.33 KCAL/MOL
REMARK 922        TOTAL FREE ENERGY PREDICTED BY IDOCK:  -11.50 KCAL/MOL
REMARK 923 INTER-LIGAND FREE ENERGY PREDICTED BY IDOCK:  -10.20 KCAL/MOL
REMARK 924 INTRA-LIGAND FREE ENERGY PREDICTED BY IDOCK:   -1.30 KCAL/MOL
REMARK 927      BINDING AFFINITY PREDICTED BY RF-SCORE:    0.00 PKD
ROOT
HETATM    1  C   UNL     1     -12.268  13.427  63.418  1.00  0.00    -0.419 C  
HETATM    2  C   UNL     1     -11.351  12.214  63.349  1.00  0.00    -0.411 C  
ENDROOT
BRANCH   2   3
HETATM    3  N   UNL     1     -10.105  12.480  64.074  1.00  0.00    -0.569 NA 
HETATM    4  H   UNL     1     -10.037  13.472  64.301  1.00  0.00     0.000 HD 
BRANCH   3   5
HETATM    5  C   UNL     1      -9.890  11.661  65.299  1.00  0.00    -0.248 C  
HETATM    6  C   UNL     1      -9.884  10.159  64.978  1.00  0.00    -0.392 C  
HETATM    7  C   UNL     1      -9.616   9.311  66.225  1.00  0.00    -0.248 C  
HETATM    8  C   UNL     1     -10.746   9.513  67.272  1.00  0.00    -0.199 C  
HETATM    9  N   UNL     1      -9.502   7.898  65.808  1.00  0.00    -0.416 NA 
HETATM   10  C   UNL     1     -10.856  12.045  66.457  1.00  0.00    -0.277 C  
HETATM   11  H2  UNL     1      -8.800   7.759  65.080  1.00  0.00     0.000 HD 
HETATM   12  H1  UNL     1      -9.324   7.334  66.638  1.00  0.00     0.000 HD 
HETATM   13  C   UNL     1     -10.961  11.014  67.599  1.00  0.00    -0.275 C  
HETATM   14  H   UNL     1     -12.404  12.155  68.378  1.00  0.00     0.000 HD 
HETATM   15  O   UNL     1     -12.272  11.236  68.178  1.00  0.00    -0.622 OA 
BRANCH   8  16
HETATM   16  O   UNL     1     -10.391   8.773  68.485  1.00  0.00    -0.199 OA 
BRANCH  16  17
HETATM   17  C   UNL     1      -9.633   9.539  69.449  1.00  0.00    -0.180 C  
HETATM   18  H1  UNL     1      -6.832   7.544  68.958  1.00  0.00     0.000 HD 
HETATM   19  O   UNL     1     -10.437   9.773  70.612  1.00  0.00    -0.289 OA 
HETATM   20  C   UNL     1     -10.261   8.906  71.669  1.00  0.00    -0.345 C  
HETATM   21  H2  UNL     1      -7.919   8.129  67.829  1.00  0.00     0.000 HD 
HETATM   22  N   UNL     1      -7.781   7.886  68.810  1.00  0.00    -0.110 NA 
HETATM   23  C   UNL     1      -9.047   8.422  71.964  1.00  0.00    -0.296 C  
HETATM   24  C   UNL     1      -8.176   9.013  69.677  1.00  0.00    -0.116 C  
HETATM   25  C   UNL     1      -7.851   8.797  71.159  1.00  0.00    -0.161 C  
BRANCH  20  26
HETATM   26  C   UNL     1     -11.528   8.649  72.450  1.00  0.00    -0.299 C  
HETATM   27  N   UNL     1     -11.568   7.373  73.163  1.00  0.00    -0.588 NA 
HETATM   28  H2  UNL     1     -10.755   7.286  73.773  1.00  0.00     0.000 HD 
HETATM   29  H1  UNL     1     -12.424   7.199  73.690  1.00  0.00     0.000 HD 
ENDBRANCH  20  26
ENDBRANCH  16  17
ENDBRANCH   8  16
BRANCH  10  30
HETATM   30  O   UNL     1     -10.679  13.422  66.944  1.00  0.00    -0.270 OA 
BRANCH  30  31
HETATM   31  C   UNL     1      -9.465  14.097  66.562  1.00  0.00    -0.285 C  
HETATM   32  O   UNL     1      -8.663  13.888  68.876  1.00  0.00    -0.357 OA 
HETATM   33  C   UNL     1      -9.607  17.010  66.876  1.00  0.00    -0.257 C  
HETATM   34  C   UNL     1      -8.643  14.754  67.729  1.00  0.00    -0.166 C  
HETATM   35  O   UNL     1      -9.753  15.038  65.539  1.00  0.00    -0.337 OA 
HETATM   36  O   UNL     1      -8.538  17.453  66.014  1.00  0.00    -0.500 OA 
HETATM   37  C   UNL     1      -9.035  16.219  68.107  1.00  0.00    -0.187 C  
HETATM   38  H   UNL     1      -7.960  18.015  66.517  1.00  0.00     0.000 HD 
HETATM   39  C   UNL     1     -10.370  18.267  67.297  1.00  0.00    -0.407 C  
HETATM   40  H   UNL     1      -8.166  14.286  69.580  1.00  0.00     0.000 HD 
HETATM   41  C   UNL     1     -10.533  16.109  66.069  1.00  0.00    -0.338 C  
BRANCH  37  42
HETATM   42  N   UNL     1      -7.911  17.014  68.681  1.00  0.00    -0.249 NA 
HETATM   43  H   UNL     1      -8.011  18.021  68.813  1.00  0.00     0.000 HD 
HETATM   44  C   UNL     1      -6.682  16.354  69.048  1.00  0.00    -0.192 C  
ENDBRANCH  37  42
ENDBRANCH  30  31
ENDBRANCH  10  30
ENDBRANCH   3   5
ENDBRANCH   2   3
TORSDOF 8
ENDMDL
MODEL       13
REMARK 921   NORMALIZED FREE ENERGY PREDICTED BY IDOCK:   -7.32 KCAL/MOL
REMARK 922        TOTAL FREE ENERGY PREDICTED BY IDOCK:  -11.49 KCAL/MOL
REMARK 923 INTER-LIGAND FREE ENERGY PREDICTED BY IDOCK:   -9.51 KCAL/MOL
REMARK 924 INTRA-LIGAND FREE ENERGY PREDICTED BY IDOCK:   -1.98 KCAL/MOL
REMARK 927      BINDING AFFINITY PREDICTED BY RF-SCORE:    0.00 PKD
ROOT
HETATM    1  C   UNL     1     -13.064  15.483  72.639  1.00  0.00    -0.553 C  
HETATM    2  C   UNL     1     -12.981  15.338  71.126  1.00  0.00    -0.454 C  
ENDROOT
BRANCH   2   3
HETATM    3  N   UNL     1     -11.585  15.192  70.706  1.00  0.00    -0.293 NA 
HETATM    4  H   UNL     1     -11.040  14.754  71.449  1.00  0.00     0.000 HD 
BRANCH   3   5
HETATM    5  C   UNL     1     -11.374  14.464  69.424  1.00  0.00    -0.281 C  
HETATM    6  C   UNL     1     -11.834  13.002  69.525  1.00  0.00    -0.385 C  
HETATM    7  C   UNL     1     -11.665  12.259  68.197  1.00  0.00    -0.349 C  
HETATM    8  C   UNL     1     -10.166  12.202  67.792  1.00  0.00    -0.201 C  
HETATM    9  N   UNL     1     -12.243  10.907  68.345  1.00  0.00    -0.810 NA 
HETATM   10  C   UNL     1      -9.929  14.625  68.870  1.00  0.00    -0.228 C  
HETATM   11  H2  UNL     1     -13.212  10.928  68.664  1.00  0.00     0.000 HD 
HETATM   12  H1  UNL     1     -12.131  10.413  67.461  1.00  0.00     0.000 HD 
HETATM   13  C   UNL     1      -9.524  13.615  67.778  1.00  0.00    -0.221 C  
HETATM   14  H   UNL     1      -7.686  14.393  67.864  1.00  0.00     0.000 HD 
HETATM   15  O   UNL     1      -8.079  13.528  67.872  1.00  0.00    -0.137 OA 
BRANCH   8  16
HETATM   16  O   UNL     1     -10.066  11.584  66.468  1.00  0.00    -0.204 OA 
BRANCH  16  17
HETATM   17  C   UNL     1      -8.938  10.694  66.310  1.00  0.00    -0.165 C  
HETATM   18  H1  UNL     1      -9.860   9.970  63.040  1.00  0.00     0.000 HD 
HETATM   19  O   UNL     1      -8.822   9.858  67.468  1.00  0.00    -0.128 OA 
HETATM   20  C   UNL     1      -9.390   8.605  67.384  1.00  0.00    -0.144 C  
HETATM   21  H2  UNL     1      -9.886  11.439  63.841  1.00  0.00     0.000 HD 
HETATM   22  N   UNL     1      -9.905  10.425  63.952  1.00  0.00    -0.307 NA 
HETATM   23  C   UNL     1      -9.358   7.913  66.238  1.00  0.00    -0.225 C  
HETATM   24  C   UNL     1      -8.868   9.995  64.910  1.00  0.00    -0.192 C  
HETATM   25  C   UNL     1      -8.716   8.474  65.017  1.00  0.00    -0.124 C  
BRANCH  20  26
HETATM   26  C   UNL     1      -9.952   8.114  68.698  1.00  0.00    -0.190 C  
HETATM   27  N   UNL     1     -10.184   9.153  69.699  1.00  0.00    -0.195 NA 
HETATM   28  H2  UNL     1     -10.778   9.887  69.314  1.00  0.00     0.000 HD 
HETATM   29  H1  UNL     1     -10.563   8.822  70.586  1.00  0.00     0.000 HD 
ENDBRANCH  20  26
ENDBRANCH  16  17
ENDBRANCH   8  16
BRANCH  10  30
HETATM   30  O   UNL     1      -9.578  16.011  68.525  1.00  0.00    -0.204 OA 
BRANCH  30  31
HETATM   31  C   UNL     1      -9.748  16.403  67.150  1.00  0.00    -0.239 C  
HETATM   32  O   UNL     1      -7.306  16.374  66.877  1.00  0.00    -0.193 OA 
HETATM   33  C   UNL     1      -9.755  19.311  66.762  1.00  0.00    -0.341 C  
HETATM   34  C   UNL     1      -8.498  17.059  66.458  1.00  0.00    -0.271 C  
HETATM   35  O   UNL     1     -10.895  17.232  67.036  1.00  0.00    -0.202 OA 
HETATM   36  O   UNL     1     -10.400  19.438  65.478  1.00  0.00    -0.454 OA 
HETATM   37  C   UNL     1      -8.357  18.608  66.615  1.00  0.00    -0.287 C  
HETATM   38  H   UNL     1      -9.838  19.952  64.909  1.00  0.00     0.000 HD 
HETATM   39  C   UNL     1      -9.634  20.729  67.325  1.00  0.00    -0.494 C  
HETATM   40  H   UNL     1      -6.551  16.771  66.459  1.00  0.00     0.000 HD 
HETATM   41  C   UNL     1     -10.654  18.486  67.674  1.00  0.00    -0.414 C  
BRANCH  37  42
HETATM   42  N   UNL     1      -7.631  19.263  65.489  1.00  0.00    -0.414 NA 
HETATM   43  H   UNL     1      -8.010  19.224  64.543  1.00  0.00     0.000 HD 
HETATM   44  C   UNL     1      -6.388  19.951  65.743  1.00  0.00    -0.214 C  
ENDBRANCH  37  42
ENDBRANCH  30  31
ENDBRANCH  10  30
ENDBRANCH   3   5
ENDBRANCH   2   3
TORSDOF 8
ENDMDL
MODEL       14
REMARK 921   NORMALIZED FREE ENERGY PREDICTED BY IDOCK:   -7.29 KCAL/MOL
REMARK 922        TOTAL FREE ENERGY PREDICTED BY IDOCK:  -11.45 KCAL/MOL
REMARK 923 INTER-LIGAND FREE ENERGY PREDICTED BY IDOCK:   -9.85 KCAL/MOL
REMARK 924 INTRA-LIGAND FREE ENERGY PREDICTED BY IDOCK:   -1.60 KCAL/MOL
REMARK 927      BINDING AFFINITY PREDICTED BY RF-SCORE:    0.00 PKD
ROOT
HETATM    1  C   UNL     1     -11.363  11.744  63.876  1.00  0.00    -0.494 C  
HETATM    2  C   UNL     1     -12.375  12.495  64.731  1.00  0.00    -0.474 C  
ENDROOT
BRANCH   2   3
HETATM    3  N   UNL     1     -12.059  12.330  66.152  1.00  0.00    -0.627 NA 
HETATM    4  H   UNL     1     -11.542  11.462  66.297  1.00  0.00     0.000 HD 
BRANCH   3   5
HETATM    5  C   UNL     1     -11.332  13.467  66.782  1.00  0.00    -0.328 C  
HETATM    6  C   UNL     1     -11.259  14.678  65.840  1.00  0.00    -0.336 C  
HETATM    7  C   UNL     1     -10.555  15.869  66.497  1.00  0.00    -0.297 C  
HETATM    8  C   UNL     1      -9.082  15.510  66.837  1.00  0.00    -0.241 C  
HETATM    9  N   UNL     1     -10.639  17.022  65.578  1.00  0.00    -0.564 NA 
HETATM   10  C   UNL     1      -9.953  13.050  67.368  1.00  0.00    -0.228 C  
HETATM   11  H2  UNL     1     -11.597  17.236  65.302  1.00  0.00     0.000 HD 
HETATM   12  H1  UNL     1     -10.170  17.815  66.015  1.00  0.00     0.000 HD 
HETATM   13  C   UNL     1      -8.991  14.213  67.685  1.00  0.00    -0.192 C  
HETATM   14  H   UNL     1      -7.609  12.836  68.118  1.00  0.00     0.000 HD 
HETATM   15  O   UNL     1      -7.665  13.630  67.600  1.00  0.00    -0.148 OA 
BRANCH   8  16
HETATM   16  O   UNL     1      -8.486  16.634  67.562  1.00  0.00    -0.184 OA 
BRANCH  16  17
HETATM   17  C   UNL     1      -7.505  17.378  66.803  1.00  0.00    -0.222 C  
HETATM   18  H1  UNL     1      -5.552  17.855  69.636  1.00  0.00     0.000 HD 
HETATM   19  O   UNL     1      -8.172  18.312  65.945  1.00  0.00    -0.506 OA 
HETATM   20  C   UNL     1      -8.292  19.603  66.412  1.00  0.00    -0.353 C  
HETATM   21  H2  UNL     1      -6.385  16.487  69.149  1.00  0.00     0.000 HD 
HETATM   22  N   UNL     1      -6.330  17.503  69.077  1.00  0.00    -0.207 NA 
HETATM   23  C   UNL     1      -7.312  20.166  67.132  1.00  0.00    -0.308 C  
HETATM   24  C   UNL     1      -6.311  17.917  67.661  1.00  0.00    -0.172 C  
HETATM   25  C   UNL     1      -6.067  19.416  67.456  1.00  0.00    -0.206 C  
BRANCH  20  26
HETATM   26  C   UNL     1      -9.565  20.285  65.968  1.00  0.00    -0.209 C  
HETATM   27  N   UNL     1     -10.750  19.959  66.759  1.00  0.00    -0.431 NA 
HETATM   28  H2  UNL     1     -10.576  20.147  67.746  1.00  0.00     0.000 HD 
HETATM   29  H1  UNL     1     -11.610  20.419  66.459  1.00  0.00     0.000 HD 
ENDBRANCH  20  26
ENDBRANCH  16  17
ENDBRANCH   8  16
BRANCH  10  30
HETATM   30  O   UNL     1     -10.045  12.070  68.461  1.00  0.00    -0.210 OA 
BRANCH  30  31
HETATM   31  C   UNL     1     -10.101  10.681  68.087  1.00  0.00    -0.158 C  
HETATM   32  O   UNL     1     -12.451  10.619  68.804  1.00  0.00    -0.795 OA 
HETATM   33  C   UNL     1      -9.389   8.859  70.273  1.00  0.00    -0.185 C  
HETATM   34  C   UNL     1     -11.249   9.833  68.745  1.00  0.00    -0.020 C  
HETATM   35  O   UNL     1      -8.831  10.085  68.303  1.00  0.00    -0.115 OA 
HETATM   36  O   UNL     1      -9.053   7.653  69.557  1.00  0.00    -0.146 OA 
HETATM   37  C   UNL     1     -10.919   9.183  70.128  1.00  0.00    -0.239 C  
HETATM   38  H   UNL     1      -9.569   6.938  69.913  1.00  0.00     0.000 HD 
HETATM   39  C   UNL     1      -8.982   8.622  71.729  1.00  0.00    -0.307 C  
HETATM   40  H   UNL     1     -13.145  10.106  69.201  1.00  0.00     0.000 HD 
HETATM   41  C   UNL     1      -8.562  10.004  69.703  1.00  0.00    -0.184 C  
BRANCH  37  42
HETATM   42  N   UNL     1     -11.681   7.930  70.401  1.00  0.00    -0.471 NA 
HETATM   43  H   UNL     1     -11.430   7.064  69.924  1.00  0.00     0.000 HD 
HETATM   44  C   UNL     1     -12.775   7.947  71.341  1.00  0.00    -0.292 C  
ENDBRANCH  37  42
ENDBRANCH  30  31
ENDBRANCH  10  30
ENDBRANCH   3   5
ENDBRANCH   2   3
TORSDOF 8
ENDMDL
MODEL       15
REMARK 921   NORMALIZED FREE ENERGY PREDICTED BY IDOCK:   -7.29 KCAL/MOL
REMARK 922        TOTAL FREE ENERGY PREDICTED BY IDOCK:  -11.44 KCAL/MOL
REMARK 923 INTER-LIGAND FREE ENERGY PREDICTED BY IDOCK:  -11.14 KCAL/MOL
REMARK 924 INTRA-LIGAND FREE ENERGY PREDICTED BY IDOCK:   -0.31 KCAL/MOL
REMARK 927      BINDING AFFINITY PREDICTED BY RF-SCORE:    0.00 PKD
ROOT
HETATM    1  C   UNL     1     -14.077  15.360  72.183  1.00  0.00    -0.651 C  
HETATM    2  C   UNL     1     -12.726  14.716  71.904  1.00  0.00    -0.332 C  
ENDROOT
BRANCH   2   3
HETATM    3  N   UNL     1     -12.003  15.477  70.881  1.00  0.00    -0.339 NA 
HETATM    4  H   UNL     1     -11.171  15.906  71.288  1.00  0.00     0.000 HD 
BRANCH   3   5
HETATM    5  C   UNL     1     -11.636  14.714  69.656  1.00  0.00    -0.307 C  
HETATM    6  C   UNL     1     -12.032  13.235  69.775  1.00  0.00    -0.391 C  
HETATM    7  C   UNL     1     -11.701  12.453  68.500  1.00  0.00    -0.326 C  
HETATM    8  C   UNL     1     -10.169  12.460  68.240  1.00  0.00    -0.229 C  
HETATM    9  N   UNL     1     -12.225  11.080  68.650  1.00  0.00    -0.771 NA 
HETATM   10  C   UNL     1     -10.154  14.930  69.234  1.00  0.00    -0.195 C  
HETATM   11  H2  UNL     1     -13.220  11.061  68.876  1.00  0.00     0.000 HD 
HETATM   12  H1  UNL     1     -12.005  10.559  67.802  1.00  0.00     0.000 HD 
HETATM   13  C   UNL     1      -9.598  13.902  68.228  1.00  0.00    -0.218 C  
HETATM   14  H   UNL     1      -7.816  14.777  68.452  1.00  0.00     0.000 HD 
HETATM   15  O   UNL     1      -8.166  13.894  68.460  1.00  0.00    -0.146 OA 
BRANCH   8  16
HETATM   16  O   UNL     1      -9.914  11.799  66.958  1.00  0.00    -0.202 OA 
BRANCH  16  17
HETATM   17  C   UNL     1     -11.080  11.667  66.114  1.00  0.00    -0.280 C  
HETATM   18  H1  UNL     1      -9.371   9.567  63.938  1.00  0.00     0.000 HD 
HETATM   19  O   UNL     1     -11.676  12.955  65.915  1.00  0.00    -0.356 OA 
HETATM   20  C   UNL     1     -11.332  13.621  64.758  1.00  0.00    -0.354 C  
HETATM   21  H2  UNL     1      -9.331   9.609  65.610  1.00  0.00     0.000 HD 
HETATM   22  N   UNL     1      -9.520  10.146  64.764  1.00  0.00    -0.272 NA 
HETATM   23  C   UNL     1     -11.142  12.954  63.613  1.00  0.00    -0.371 C  
HETATM   24  C   UNL     1     -10.852  10.778  64.845  1.00  0.00     0.015 C  
HETATM   25  C   UNL     1     -11.287  11.473  63.551  1.00  0.00    -0.375 C  
BRANCH  20  26
HETATM   26  C   UNL     1     -11.277  15.122  64.926  1.00  0.00    -0.417 C  
HETATM   27  N   UNL     1     -11.974  15.886  63.893  1.00  0.00    -1.249 NA 
HETATM   28  H2  UNL     1     -12.943  15.576  63.820  1.00  0.00     0.000 HD 
HETATM   29  H1  UNL     1     -11.937  16.899  64.006  1.00  0.00     0.000 HD 
ENDBRANCH  20  26
ENDBRANCH  16  17
ENDBRANCH   8  16
BRANCH  10  30
HETATM   30  O   UNL     1      -9.839  16.319  68.866  1.00  0.00    -0.224 OA 
BRANCH  30  31
HETATM   31  C   UNL     1      -9.949  16.664  67.472  1.00  0.00    -0.264 C  
HETATM   32  O   UNL     1      -7.536  16.269  67.220  1.00  0.00    -0.140 OA 
HETATM   33  C   UNL     1      -9.534  19.520  66.946  1.00  0.00    -0.344 C  
HETATM   34  C   UNL     1      -8.617  17.097  66.760  1.00  0.00    -0.243 C  
HETATM   35  O   UNL     1     -10.964  17.643  67.310  1.00  0.00    -0.206 OA 
HETATM   36  O   UNL     1     -10.152  19.676  65.652  1.00  0.00    -0.407 OA 
HETATM   37  C   UNL     1      -8.253  18.615  66.843  1.00  0.00    -0.261 C  
HETATM   38  H   UNL     1      -9.522  20.076  65.064  1.00  0.00     0.000 HD 
HETATM   39  C   UNL     1      -9.209  20.931  67.441  1.00  0.00    -0.279 C  
HETATM   40  H   UNL     1      -6.731  16.531  66.790  1.00  0.00     0.000 HD 
HETATM   41  C   UNL     1     -10.544  18.879  67.889  1.00  0.00    -0.352 C  
BRANCH  37  42
HETATM   42  N   UNL     1      -7.438  19.103  65.694  1.00  0.00    -0.465 NA 
HETATM   43  H   UNL     1      -7.832  19.110  64.753  1.00  0.00     0.000 HD 
HETATM   44  C   UNL     1      -6.090  19.564  65.916  1.00  0.00    -0.183 C  
ENDBRANCH  37  42
ENDBRANCH  30  31
ENDBRANCH  10  30
ENDBRANCH   3   5
ENDBRANCH   2   3
TORSDOF 8
ENDMDL
MODEL       16
REMARK 921   NORMALIZED FREE ENERGY PREDICTED BY IDOCK:   -7.29 KCAL/MOL
REMARK 922        TOTAL FREE ENERGY PREDICTED BY IDOCK:  -11.44 KCAL/MOL
REMARK 923 INTER-LIGAND FREE ENERGY PREDICTED BY IDOCK:  -10.50 KCAL/MOL
REMARK 924 INTRA-LIGAND FREE ENERGY PREDICTED BY IDOCK:   -0.94 KCAL/MOL
REMARK 927      BINDING AFFINITY PREDICTED BY RF-SCORE:    0.00 PKD
ROOT
HETATM    1  C   UNL     1      -8.135   9.798  63.819  1.00  0.00    -0.149 C  
HETATM    2  C   UNL     1      -9.438  10.368  63.276  1.00  0.00    -0.323 C  
ENDROOT
BRANCH   2   3
HETATM    3  N   UNL     1     -10.504  10.235  64.273  1.00  0.00    -0.316 NA 
HETATM    4  H   UNL     1     -10.254   9.521  64.958  1.00  0.00     0.000 HD 
BRANCH   3   5
HETATM    5  C   UNL     1     -10.891  11.494  64.968  1.00  0.00    -0.274 C  
HETATM    6  C   UNL     1     -11.276  12.593  63.966  1.00  0.00    -0.459 C  
HETATM    7  C   UNL     1     -11.721  13.877  64.672  1.00  0.00    -0.397 C  
HETATM    8  C   UNL     1     -10.557  14.465  65.516  1.00  0.00    -0.347 C  
HETATM    9  N   UNL     1     -12.191  14.831  63.647  1.00  0.00    -1.025 NA 
HETATM   10  C   UNL     1      -9.838  11.951  66.018  1.00  0.00    -0.235 C  
HETATM   11  H2  UNL     1     -12.919  14.438  63.049  1.00  0.00     0.000 HD 
HETATM   12  H1  UNL     1     -12.487  15.685  64.117  1.00  0.00     0.000 HD 
HETATM   13  C   UNL     1      -9.970  13.412  66.493  1.00  0.00    -0.286 C  
HETATM   14  H   UNL     1      -8.274  13.141  67.514  1.00  0.00     0.000 HD 
HETATM   15  O   UNL     1      -8.633  13.786  66.916  1.00  0.00    -0.196 OA 
BRANCH   8  16
HETATM   16  O   UNL     1     -11.061  15.623  66.257  1.00  0.00    -0.258 OA 
BRANCH  16  17
HETATM   17  C   UNL     1     -10.075  16.266  67.098  1.00  0.00    -0.268 C  
HETATM   18  H1  UNL     1     -11.935  15.575  69.950  1.00  0.00     0.000 HD 
HETATM   19  O   UNL     1      -9.678  17.509  66.505  1.00  0.00    -0.272 OA 
HETATM   20  C   UNL     1     -10.314  18.642  66.963  1.00  0.00    -0.404 C  
HETATM   21  H2  UNL     1     -11.650  14.604  68.617  1.00  0.00     0.000 HD 
HETATM   22  N   UNL     1     -11.692  15.564  68.959  1.00  0.00    -0.367 NA 
HETATM   23  C   UNL     1     -10.650  18.766  68.254  1.00  0.00    -0.214 C  
HETATM   24  C   UNL     1     -10.449  16.283  68.619  1.00  0.00    -0.282 C  
HETATM   25  C   UNL     1     -10.356  17.684  69.234  1.00  0.00    -0.105 C  
BRANCH  20  26
HETATM   26  C   UNL     1     -10.502  19.696  65.896  1.00  0.00    -0.493 C  
HETATM   27  N   UNL     1      -9.276  20.360  65.460  1.00  0.00    -0.372 NA 
HETATM   28  H2  UNL     1      -8.590  19.669  65.155  1.00  0.00     0.000 HD 
HETATM   29  H1  UNL     1      -9.402  21.072  64.740  1.00  0.00     0.000 HD 
ENDBRANCH  20  26
ENDBRANCH  16  17
ENDBRANCH   8  16
BRANCH  10  30
HETATM   30  O   UNL     1      -9.658  11.003  67.128  1.00  0.00    -0.167 OA 
BRANCH  30  31
HETATM   31  C   UNL     1     -10.850  10.405  67.673  1.00  0.00    -0.306 C  
HETATM   32  O   UNL     1     -10.775  12.022  69.521  1.00  0.00    -0.447 OA 
HETATM   33  C   UNL     1     -10.300   8.226  69.559  1.00  0.00    -0.219 C  
HETATM   34  C   UNL     1     -11.119  10.664  69.199  1.00  0.00    -0.255 C  
HETATM   35  O   UNL     1     -10.856   9.016  67.376  1.00  0.00    -0.230 OA 
HETATM   36  O   UNL     1     -11.555   7.517  69.567  1.00  0.00    -0.429 OA 
HETATM   37  C   UNL     1     -10.464   9.654  70.196  1.00  0.00    -0.273 C  
HETATM   38  H   UNL     1     -11.849   7.436  70.468  1.00  0.00     0.000 HD 
HETATM   39  C   UNL     1      -9.308   7.357  70.334  1.00  0.00    -0.161 C  
HETATM   40  H   UNL     1     -10.937  12.179  70.444  1.00  0.00     0.000 HD 
HETATM   41  C   UNL     1      -9.829   8.356  68.116  1.00  0.00    -0.169 C  
BRANCH  37  42
HETATM   42  N   UNL     1     -11.214   9.501  71.476  1.00  0.00    -0.383 NA 
HETATM   43  H   UNL     1     -10.748   9.118  72.299  1.00  0.00     0.000 HD 
HETATM   44  C   UNL     1     -12.599   9.895  71.547  1.00  0.00    -0.416 C  
ENDBRANCH  37  42
ENDBRANCH  30  31
ENDBRANCH  10  30
ENDBRANCH   3   5
ENDBRANCH   2   3
TORSDOF 8
ENDMDL
MODEL       17
REMARK 921   NORMALIZED FREE ENERGY PREDICTED BY IDOCK:   -7.29 KCAL/MOL
REMARK 922        TOTAL FREE ENERGY PREDICTED BY IDOCK:  -11.44 KCAL/MOL
REMARK 923 INTER-LIGAND FREE ENERGY PREDICTED BY IDOCK:   -9.78 KCAL/MOL
REMARK 924 INTRA-LIGAND FREE ENERGY PREDICTED BY IDOCK:   -1.66 KCAL/MOL
REMARK 927      BINDING AFFINITY PREDICTED BY RF-SCORE:    0.00 PKD
ROOT
HETATM    1  C   UNL     1     -12.362  13.695  63.372  1.00  0.00    -0.167 C  
HETATM    2  C   UNL     1     -11.978  12.288  63.807  1.00  0.00    -0.519 C  
ENDROOT
BRANCH   2   3
HETATM    3  N   UNL     1     -10.533  12.204  64.035  1.00  0.00    -0.352 NA 
HETATM    4  H   UNL     1     -10.114  13.131  63.963  1.00  0.00     0.000 HD 
BRANCH   3   5
HETATM    5  C   UNL     1     -10.123  11.557  65.312  1.00  0.00    -0.269 C  
HETATM    6  C   UNL     1      -9.899  10.048  65.131  1.00  0.00    -0.388 C  
HETATM    7  C   UNL     1      -9.431   9.382  66.428  1.00  0.00    -0.201 C  
HETATM    8  C   UNL     1     -10.517   9.518  67.531  1.00  0.00    -0.275 C  
HETATM    9  N   UNL     1      -9.120   7.968  66.136  1.00  0.00    -0.214 NA 
HETATM   10  C   UNL     1     -11.069  11.908  66.496  1.00  0.00    -0.306 C  
HETATM   11  H2  UNL     1      -8.448   7.862  65.376  1.00  0.00     0.000 HD 
HETATM   12  H1  UNL     1      -8.809   7.524  67.000  1.00  0.00     0.000 HD 
HETATM   13  C   UNL     1     -10.945  10.995  67.733  1.00  0.00    -0.269 C  
HETATM   14  H   UNL     1     -12.503  11.979  68.506  1.00  0.00     0.000 HD 
HETATM   15  O   UNL     1     -12.240  11.075  68.382  1.00  0.00    -0.586 OA 
BRANCH   8  16
HETATM   16  O   UNL     1      -9.981   8.968  68.778  1.00  0.00    -0.171 OA 
BRANCH  16  17
HETATM   17  C   UNL     1     -10.871   8.051  69.455  1.00  0.00    -0.129 C  
HETATM   18  H1  UNL     1      -9.006   8.265  72.377  1.00  0.00     0.000 HD 
HETATM   19  O   UNL     1     -11.160   6.941  68.596  1.00  0.00    -0.175 OA 
HETATM   20  C   UNL     1     -10.401   5.806  68.777  1.00  0.00    -0.224 C  
HETATM   21  H2  UNL     1      -9.426   9.479  71.305  1.00  0.00     0.000 HD 
HETATM   22  N   UNL     1      -9.278   8.476  71.417  1.00  0.00    -0.189 NA 
HETATM   23  C   UNL     1     -10.016   5.428  70.003  1.00  0.00    -0.303 C  
HETATM   24  C   UNL     1     -10.453   7.727  70.929  1.00  0.00    -0.206 C  
HETATM   25  C   UNL     1     -10.387   6.222  71.207  1.00  0.00    -0.255 C  
BRANCH  20  26
HETATM   26  C   UNL     1     -10.141   5.049  67.496  1.00  0.00    -0.154 C  
HETATM   27  N   UNL     1     -10.952   5.466  66.354  1.00  0.00    -0.688 NA 
HETATM   28  H2  UNL     1     -10.849   6.469  66.198  1.00  0.00     0.000 HD 
HETATM   29  H1  UNL     1     -10.777   4.955  65.489  1.00  0.00     0.000 HD 
ENDBRANCH  20  26
ENDBRANCH  16  17
ENDBRANCH   8  16
BRANCH  10  30
HETATM   30  O   UNL     1     -11.082  13.338  66.840  1.00  0.00    -0.279 OA 
BRANCH  30  31
HETATM   31  C   UNL     1     -10.274  13.746  67.960  1.00  0.00    -0.248 C  
HETATM   32  O   UNL     1     -12.272  13.655  69.388  1.00  0.00    -0.324 OA 
HETATM   33  C   UNL     1     -10.159  16.657  68.310  1.00  0.00    -0.268 C  
HETATM   34  C   UNL     1     -11.046  14.374  69.176  1.00  0.00    -0.265 C  
HETATM   35  O   UNL     1      -9.240  14.606  67.505  1.00  0.00    -0.184 OA 
HETATM   36  O   UNL     1      -8.974  16.811  69.118  1.00  0.00    -0.226 OA 
HETATM   37  C   UNL     1     -11.288  15.918  69.116  1.00  0.00    -0.366 C  
HETATM   38  H   UNL     1      -9.200  17.316  69.891  1.00  0.00     0.000 HD 
HETATM   39  C   UNL     1     -10.577  18.065  67.886  1.00  0.00    -0.387 C  
HETATM   40  H   UNL     1     -12.738  14.035  70.124  1.00  0.00     0.000 HD 
HETATM   41  C   UNL     1      -9.796  15.848  67.072  1.00  0.00    -0.232 C  
BRANCH  37  42
HETATM   42  N   UNL     1     -11.391  16.563  70.457  1.00  0.00    -0.496 NA 
HETATM   43  H   UNL     1     -10.889  17.431  70.648  1.00  0.00     0.000 HD 
HETATM   44  C   UNL     1     -12.203  15.956  71.483  1.00  0.00    -0.465 C  
ENDBRANCH  37  42
ENDBRANCH  30  31
ENDBRANCH  10  30
ENDBRANCH   3   5
ENDBRANCH   2   3
TORSDOF 8
ENDMDL
MODEL       18
REMARK 921   NORMALIZED FREE ENERGY PREDICTED BY IDOCK:   -7.28 KCAL/MOL
REMARK 922        TOTAL FREE ENERGY PREDICTED BY IDOCK:  -11.42 KCAL/MOL
REMARK 923 INTER-LIGAND FREE ENERGY PREDICTED BY IDOCK:   -9.36 KCAL/MOL
REMARK 924 INTRA-LIGAND FREE ENERGY PREDICTED BY IDOCK:   -2.06 KCAL/MOL
REMARK 927      BINDING AFFINITY PREDICTED BY RF-SCORE:    0.00 PKD
ROOT
HETATM    1  C   UNL     1     -13.450  14.425  72.484  1.00  0.00    -0.593 C  
HETATM    2  C   UNL     1     -13.311  13.011  71.939  1.00  0.00    -0.446 C  
ENDROOT
BRANCH   2   3
HETATM    3  N   UNL     1     -12.661  13.036  70.625  1.00  0.00    -0.243 NA 
HETATM    4  H   UNL     1     -11.916  13.733  70.617  1.00  0.00     0.000 HD 
BRANCH   3   5
HETATM    5  C   UNL     1     -12.139  11.727  70.144  1.00  0.00    -0.317 C  
HETATM    6  C   UNL     1     -12.112  10.684  71.271  1.00  0.00    -0.401 C  
HETATM    7  C   UNL     1     -11.621   9.321  70.774  1.00  0.00    -0.285 C  
HETATM    8  C   UNL     1     -10.159   9.424  70.260  1.00  0.00    -0.240 C  
HETATM    9  N   UNL     1     -11.745   8.352  71.882  1.00  0.00    -0.310 NA 
HETATM   10  C   UNL     1     -10.787  11.859  69.386  1.00  0.00    -0.032 C  
HETATM   11  H2  UNL     1     -12.689   8.313  72.266  1.00  0.00     0.000 HD 
HETATM   12  H1  UNL     1     -11.418   7.445  71.551  1.00  0.00     0.000 HD 
HETATM   13  C   UNL     1     -10.004  10.545  69.198  1.00  0.00    -0.220 C  
HETATM   14  H   UNL     1      -8.522  11.640  68.425  1.00  0.00     0.000 HD 
HETATM   15  O   UNL     1      -8.617  10.954  69.075  1.00  0.00    -0.156 OA 
BRANCH   8  16
HETATM   16  O   UNL     1      -9.774   8.129  69.694  1.00  0.00    -0.168 OA 
BRANCH  16  17
HETATM   17  C   UNL     1     -10.572   7.712  68.563  1.00  0.00    -0.124 C  
HETATM   18  H1  UNL     1     -10.659   4.440  69.724  1.00  0.00     0.000 HD 
HETATM   19  O   UNL     1     -10.032   8.277  67.362  1.00  0.00    -0.174 OA 
HETATM   20  C   UNL     1      -9.186   7.474  66.629  1.00  0.00    -0.162 C  
HETATM   21  H2  UNL     1     -10.793   5.867  70.587  1.00  0.00     0.000 HD 
HETATM   22  N   UNL     1     -10.440   5.436  69.733  1.00  0.00    -0.307 NA 
HETATM   23  C   UNL     1      -9.404   6.156  66.532  1.00  0.00    -0.171 C  
HETATM   24  C   UNL     1     -10.909   6.183  68.550  1.00  0.00    -0.314 C  
HETATM   25  C   UNL     1     -10.561   5.514  67.216  1.00  0.00    -0.294 C  
BRANCH  20  26
HETATM   26  C   UNL     1      -8.089   8.242  65.929  1.00  0.00    -0.105 C  
HETATM   27  N   UNL     1      -7.445   9.275  66.737  1.00  0.00    -0.086 NA 
HETATM   28  H2  UNL     1      -7.094   8.874  67.607  1.00  0.00     0.000 HD 
HETATM   29  H1  UNL     1      -6.704   9.794  66.265  1.00  0.00     0.000 HD 
ENDBRANCH  20  26
ENDBRANCH  16  17
ENDBRANCH   8  16
BRANCH  10  30
HETATM   30  O   UNL     1     -10.875  12.655  68.152  1.00  0.00    -0.211 OA 
BRANCH  30  31
HETATM   31  C   UNL     1     -11.398  11.991  66.986  1.00  0.00    -0.336 C  
HETATM   32  O   UNL     1      -9.096  11.574  66.233  1.00  0.00    -0.200 OA 
HETATM   33  C   UNL     1     -11.814  13.795  64.710  1.00  0.00    -0.391 C  
HETATM   34  C   UNL     1     -10.421  11.871  65.761  1.00  0.00    -0.256 C  
HETATM   35  O   UNL     1     -12.625  12.599  66.610  1.00  0.00    -0.198 OA 
HETATM   36  O   UNL     1     -12.747  13.045  63.904  1.00  0.00    -0.672 OA 
HETATM   37  C   UNL     1     -10.419  13.073  64.761  1.00  0.00    -0.363 C  
HETATM   38  H   UNL     1     -12.391  12.968  63.025  1.00  0.00     0.000 HD 
HETATM   39  C   UNL     1     -11.724  15.187  64.082  1.00  0.00    -0.123 C  
HETATM   40  H   UNL     1      -8.506  11.502  65.493  1.00  0.00     0.000 HD 
HETATM   41  C   UNL     1     -12.384  13.917  66.117  1.00  0.00    -0.465 C  
BRANCH  37  42
HETATM   42  N   UNL     1     -10.047  12.695  63.367  1.00  0.00    -0.633 NA 
HETATM   43  H   UNL     1     -10.012  13.405  62.636  1.00  0.00     0.000 HD 
HETATM   44  C   UNL     1      -9.738  11.321  63.056  1.00  0.00    -0.366 C  
ENDBRANCH  37  42
ENDBRANCH  30  31
ENDBRANCH  10  30
ENDBRANCH   3   5
ENDBRANCH   2   3
TORSDOF 8
ENDMDL
MODEL       19
REMARK 921   NORMALIZED FREE ENERGY PREDICTED BY IDOCK:   -7.22 KCAL/MOL
REMARK 922        TOTAL FREE ENERGY PREDICTED BY IDOCK:  -11.34 KCAL/MOL
REMARK 923 INTER-LIGAND FREE ENERGY PREDICTED BY IDOCK:   -9.44 KCAL/MOL
REMARK 924 INTRA-LIGAND FREE ENERGY PREDICTED BY IDOCK:   -1.90 KCAL/MOL
REMARK 927      BINDING AFFINITY PREDICTED BY RF-SCORE:    0.00 PKD
ROOT
HETATM    1  C   UNL     1     -12.420  12.946  63.207  1.00  0.00    -0.315 C  
HETATM    2  C   UNL     1     -11.780  13.560  64.444  1.00  0.00    -0.407 C  
ENDROOT
BRANCH   2   3
HETATM    3  N   UNL     1     -10.330  13.345  64.425  1.00  0.00    -0.587 NA 
HETATM    4  H   UNL     1      -9.844  14.242  64.424  1.00  0.00     0.000 HD 
BRANCH   3   5
HETATM    5  C   UNL     1      -9.797  12.478  65.511  1.00  0.00    -0.183 C  
HETATM    6  C   UNL     1     -10.198  11.009  65.305  1.00  0.00    -0.344 C  
HETATM    7  C   UNL     1      -9.614  10.102  66.392  1.00  0.00    -0.191 C  
HETATM    8  C   UNL     1     -10.170  10.499  67.788  1.00  0.00    -0.190 C  
HETATM    9  N   UNL     1      -9.940   8.702  66.051  1.00  0.00    -0.460 NA 
HETATM   10  C   UNL     1     -10.128  13.019  66.932  1.00  0.00    -0.243 C  
HETATM   11  H2  UNL     1      -9.628   8.443  65.115  1.00  0.00     0.000 HD 
HETATM   12  H1  UNL     1      -9.551   8.098  66.775  1.00  0.00     0.000 HD 
HETATM   13  C   UNL     1      -9.955  12.007  68.082  1.00  0.00    -0.203 C  
HETATM   14  H   UNL     1     -10.726  13.390  69.299  1.00  0.00     0.000 HD 
HETATM   15  O   UNL     1     -10.858  12.467  69.120  1.00  0.00    -0.189 OA 
BRANCH   8  16
HETATM   16  O   UNL     1      -9.502   9.681  68.803  1.00  0.00    -0.144 OA 
BRANCH  16  17
HETATM   17  C   UNL     1     -10.402   8.986  69.695  1.00  0.00    -0.212 C  
HETATM   18  H1  UNL     1      -8.064   9.078  72.262  1.00  0.00     0.000 HD 
HETATM   19  O   UNL     1     -11.007   7.886  69.004  1.00  0.00    -0.072 OA 
HETATM   20  C   UNL     1     -10.421   6.651  69.179  1.00  0.00    -0.219 C  
HETATM   21  H2  UNL     1      -8.456  10.267  71.152  1.00  0.00     0.000 HD 
HETATM   22  N   UNL     1      -8.456   9.264  71.339  1.00  0.00    -0.304 NA 
HETATM   23  C   UNL     1      -9.903   6.299  70.363  1.00  0.00    -0.207 C  
HETATM   24  C   UNL     1      -9.801   8.700  71.112  1.00  0.00    -0.222 C  
HETATM   25  C   UNL     1      -9.934   7.231  71.525  1.00  0.00    -0.191 C  
BRANCH  20  26
HETATM   26  C   UNL     1     -10.505   5.769  67.955  1.00  0.00    -0.228 C  
HETATM   27  N   UNL     1     -11.350   6.283  66.879  1.00  0.00    -0.703 NA 
HETATM   28  H2  UNL     1     -11.053   7.223  66.616  1.00  0.00     0.000 HD 
HETATM   29  H1  UNL     1     -11.407   5.689  66.052  1.00  0.00     0.000 HD 
ENDBRANCH  20  26
ENDBRANCH  16  17
ENDBRANCH   8  16
BRANCH  10  30
HETATM   30  O   UNL     1      -9.520  14.326  67.224  1.00  0.00    -0.207 OA 
BRANCH  30  31
HETATM   31  C   UNL     1     -10.418  15.438  67.399  1.00  0.00    -0.277 C  
HETATM   32  O   UNL     1      -9.943  16.140  65.092  1.00  0.00    -0.459 OA 
HETATM   33  C   UNL     1      -9.094  17.855  68.405  1.00  0.00    -0.289 C  
HETATM   34  C   UNL     1     -10.229  16.643  66.408  1.00  0.00    -0.315 C  
HETATM   35  O   UNL     1     -10.373  15.869  68.751  1.00  0.00    -0.213 OA 
HETATM   36  O   UNL     1     -10.207  18.604  68.936  1.00  0.00    -0.444 OA 
HETATM   37  C   UNL     1      -9.200  17.737  66.842  1.00  0.00    -0.258 C  
HETATM   38  H   UNL     1     -10.200  19.471  68.546  1.00  0.00     0.000 HD 
HETATM   39  C   UNL     1      -7.829  18.593  68.847  1.00  0.00    -0.264 C  
HETATM   40  H   UNL     1      -9.829  16.868  64.493  1.00  0.00     0.000 HD 
HETATM   41  C   UNL     1      -9.107  16.466  69.029  1.00  0.00    -0.252 C  
BRANCH  37  42
HETATM   42  N   UNL     1      -9.499  19.093  66.298  1.00  0.00    -0.365 NA 
HETATM   43  H   UNL     1      -8.786  19.822  66.319  1.00  0.00     0.000 HD 
HETATM   44  C   UNL     1     -10.801  19.372  65.744  1.00  0.00    -0.280 C  
ENDBRANCH  37  42
ENDBRANCH  30  31
ENDBRANCH  10  30
ENDBRANCH   3   5
ENDBRANCH   2   3
TORSDOF 8
ENDMDL
MODEL       20
REMARK 921   NORMALIZED FREE ENERGY PREDICTED BY IDOCK:   -7.18 KCAL/MOL
REMARK 922        TOTAL FREE ENERGY PREDICTED BY IDOCK:  -11.28 KCAL/MOL
REMARK 923 INTER-LIGAND FREE ENERGY PREDICTED BY IDOCK:   -9.62 KCAL/MOL
REMARK 924 INTRA-LIGAND FREE ENERGY PREDICTED BY IDOCK:   -1.65 KCAL/MOL
REMARK 927      BINDING AFFINITY PREDICTED BY RF-SCORE:    0.00 PKD
ROOT
HETATM    1  C   UNL     1      -8.787   6.970  66.083  1.00  0.00    -0.165 C  
HETATM    2  C   UNL     1      -7.582   7.662  66.707  1.00  0.00    -0.098 C  
ENDROOT
BRANCH   2   3
HETATM    3  N   UNL     1      -7.997   8.902  67.368  1.00  0.00    -0.101 NA 
HETATM    4  H   UNL     1      -7.229   9.573  67.365  1.00  0.00     0.000 HD 
BRANCH   3   5
HETATM    5  C   UNL     1      -9.230   9.536  66.825  1.00  0.00    -0.149 C  
HETATM    6  C   UNL     1      -8.895  10.700  65.881  1.00  0.00    -0.187 C  
HETATM    7  C   UNL     1     -10.157  11.328  65.281  1.00  0.00    -0.267 C  
HETATM    8  C   UNL     1     -11.047  11.935  66.400  1.00  0.00    -0.309 C  
HETATM    9  N   UNL     1      -9.743  12.349  64.297  1.00  0.00    -0.543 NA 
HETATM   10  C   UNL     1     -10.254   9.909  67.935  1.00  0.00    -0.193 C  
HETATM   11  H2  UNL     1      -9.113  11.976  63.586  1.00  0.00     0.000 HD 
HETATM   12  H1  UNL     1     -10.583  12.766  63.897  1.00  0.00     0.000 HD 
HETATM   13  C   UNL     1     -11.360  10.895  67.509  1.00  0.00    -0.232 C  
HETATM   14  H   UNL     1     -11.955  10.917  69.416  1.00  0.00     0.000 HD 
HETATM   15  O   UNL     1     -11.763  11.553  68.737  1.00  0.00    -0.284 OA 
BRANCH   8  16
HETATM   16  O   UNL     1     -12.288  12.421  65.793  1.00  0.00    -0.644 OA 
BRANCH  16  17
HETATM   17  C   UNL     1     -12.509  13.842  65.944  1.00  0.00    -0.481 C  
HETATM   18  H1  UNL     1     -12.281  14.329  62.513  1.00  0.00     0.000 HD 
HETATM   19  O   UNL     1     -11.710  14.337  67.026  1.00  0.00    -0.366 OA 
HETATM   20  C   UNL     1     -10.500  14.905  66.691  1.00  0.00    -0.292 C  
HETATM   21  H2  UNL     1     -13.031  13.092  63.353  1.00  0.00     0.000 HD 
HETATM   22  N   UNL     1     -12.307  13.809  63.390  1.00  0.00    -0.765 NA 
HETATM   23  C   UNL     1     -10.370  15.631  65.573  1.00  0.00    -0.421 C  
HETATM   24  C   UNL     1     -12.469  14.641  64.598  1.00  0.00    -0.286 C  
HETATM   25  C   UNL     1     -11.522  15.844  64.654  1.00  0.00    -0.265 C  
BRANCH  20  26
HETATM   26  C   UNL     1      -9.424  14.676  67.726  1.00  0.00    -0.205 C  
HETATM   27  N   UNL     1      -9.879  14.039  68.961  1.00  0.00    -0.424 NA 
HETATM   28  H2  UNL     1     -10.355  13.162  68.749  1.00  0.00     0.000 HD 
HETATM   29  H1  UNL     1      -9.152  13.885  69.660  1.00  0.00     0.000 HD 
ENDBRANCH  20  26
ENDBRANCH  16  17
ENDBRANCH   8  16
BRANCH  10  30
HETATM   30  O   UNL     1     -10.776   8.749  68.674  1.00  0.00    -0.175 OA 
BRANCH  30  31
HETATM   31  C   UNL     1     -10.353   8.606  70.043  1.00  0.00    -0.207 C  
HETATM   32  O   UNL     1      -9.670   6.297  69.553  1.00  0.00    -0.145 OA 
HETATM   33  C   UNL     1     -12.466   7.603  71.814  1.00  0.00    -0.329 C  
HETATM   34  C   UNL     1     -10.230   7.133  70.579  1.00  0.00    -0.196 C  
HETATM   35  O   UNL     1     -11.190   9.391  70.879  1.00  0.00    -0.272 OA 
HETATM   36  O   UNL     1     -11.979   8.003  73.112  1.00  0.00    -0.646 OA 
HETATM   37  C   UNL     1     -11.530   6.510  71.184  1.00  0.00    -0.326 C  
HETATM   38  H   UNL     1     -11.956   7.237  73.674  1.00  0.00     0.000 HD 
HETATM   39  C   UNL     1     -13.892   7.093  72.027  1.00  0.00    -0.214 C  
HETATM   40  H   UNL     1      -9.596   5.407  69.877  1.00  0.00     0.000 HD 
HETATM   41  C   UNL     1     -12.503   8.832  70.914  1.00  0.00    -0.021 C  
BRANCH  37  42
HETATM   42  N   UNL     1     -11.272   5.472  72.223  1.00  0.00    -0.246 NA 
HETATM   43  H   UNL     1     -12.052   5.030  72.711  1.00  0.00     0.000 HD 
HETATM   44  C   UNL     1      -9.916   5.095  72.538  1.00  0.00    -0.172 C  
ENDBRANCH  37  42
ENDBRANCH  30  31
ENDBRANCH  10  30
ENDBRANCH   3   5
ENDBRANCH   2   3
TORSDOF 8
ENDMDL
MODEL       21
REMARK 921   NORMALIZED FREE ENERGY PREDICTED BY IDOCK:   -7.15 KCAL/MOL
REMARK 922        TOTAL FREE ENERGY PREDICTED BY IDOCK:  -11.24 KCAL/MOL
REMARK 923 INTER-LIGAND FREE ENERGY PREDICTED BY IDOCK:   -9.57 KCAL/MOL
REMARK 924 INTRA-LIGAND FREE ENERGY PREDICTED BY IDOCK:   -1.67 KCAL/MOL
REMARK 927      BINDING AFFINITY PREDICTED BY RF-SCORE:    0.00 PKD
ROOT
HETATM    1  C   UNL     1     -13.896   8.980  72.257  1.00  0.00    -0.547 C  
HETATM    2  C   UNL     1     -12.470   9.443  71.996  1.00  0.00    -0.365 C  
ENDROOT
BRANCH   2   3
HETATM    3  N   UNL     1     -12.199   9.463  70.555  1.00  0.00    -0.477 NA 
HETATM    4  H   UNL     1     -13.037   9.197  70.039  1.00  0.00     0.000 HD 
BRANCH   3   5
HETATM    5  C   UNL     1     -11.657  10.744  70.024  1.00  0.00    -0.334 C  
HETATM    6  C   UNL     1     -12.287  11.956  70.728  1.00  0.00    -0.416 C  
HETATM    7  C   UNL     1     -11.701  13.277  70.220  1.00  0.00    -0.143 C  
HETATM    8  C   UNL     1     -12.007  13.462  68.709  1.00  0.00    -0.324 C  
HETATM    9  N   UNL     1     -12.265  14.375  71.032  1.00  0.00    -0.332 NA 
HETATM   10  C   UNL     1     -11.718  10.826  68.472  1.00  0.00    -0.189 C  
HETATM   11  H2  UNL     1     -12.119  14.239  72.033  1.00  0.00     0.000 HD 
HETATM   12  H1  UNL     1     -11.875  15.255  70.694  1.00  0.00     0.000 HD 
HETATM   13  C   UNL     1     -11.541  12.238  67.877  1.00  0.00    -0.354 C  
HETATM   14  H   UNL     1     -11.941  11.440  66.089  1.00  0.00     0.000 HD 
HETATM   15  O   UNL     1     -12.226  12.189  66.598  1.00  0.00    -0.566 OA 
BRANCH   8  16
HETATM   16  O   UNL     1     -11.335  14.678  68.245  1.00  0.00    -0.270 OA 
BRANCH  16  17
HETATM   17  C   UNL     1     -10.226  14.440  67.347  1.00  0.00    -0.247 C  
HETATM   18  H1  UNL     1      -7.934  15.286  69.816  1.00  0.00     0.000 HD 
HETATM   19  O   UNL     1     -10.507  15.033  66.073  1.00  0.00    -0.288 OA 
HETATM   20  C   UNL     1      -9.982  16.286  65.846  1.00  0.00    -0.339 C  
HETATM   21  H2  UNL     1      -9.341  14.390  69.948  1.00  0.00     0.000 HD 
HETATM   22  N   UNL     1      -8.849  15.100  69.406  1.00  0.00    -0.206 NA 
HETATM   23  C   UNL     1      -8.775  16.620  66.320  1.00  0.00    -0.359 C  
HETATM   24  C   UNL     1      -8.822  14.726  67.978  1.00  0.00    -0.169 C  
HETATM   25  C   UNL     1      -7.964  15.653  67.111  1.00  0.00    -0.254 C  
BRANCH  20  26
HETATM   26  C   UNL     1     -10.863  17.156  64.980  1.00  0.00     0.073 C  
HETATM   27  N   UNL     1     -11.574  16.452  63.915  1.00  0.00    -1.602 NA 
HETATM   28  H2  UNL     1     -12.115  15.680  64.305  1.00  0.00     0.000 HD 
HETATM   29  H1  UNL     1     -12.168  17.039  63.330  1.00  0.00     0.000 HD 
ENDBRANCH  20  26
ENDBRANCH  16  17
ENDBRANCH   8  16
BRANCH  10  30
HETATM   30  O   UNL     1     -10.896   9.812  67.792  1.00  0.00    -0.275 OA 
BRANCH  30  31
HETATM   31  C   UNL     1      -9.550  10.191  67.446  1.00  0.00    -0.154 C  
HETATM   32  O   UNL     1     -10.268  10.473  65.113  1.00  0.00    -0.305 OA 
HETATM   33  C   UNL     1      -7.872   7.919  66.653  1.00  0.00    -0.102 C  
HETATM   34  C   UNL     1      -9.162  10.054  65.929  1.00  0.00    -0.167 C  
HETATM   35  O   UNL     1      -8.637   9.492  68.278  1.00  0.00    -0.119 OA 
HETATM   36  O   UNL     1      -6.545   8.453  66.836  1.00  0.00    -0.056 OA 
HETATM   37  C   UNL     1      -8.612   8.660  65.482  1.00  0.00    -0.175 C  
HETATM   38  H   UNL     1      -6.060   8.339  66.026  1.00  0.00     0.000 HD 
HETATM   39  C   UNL     1      -7.701   6.424  66.377  1.00  0.00    -0.099 C  
HETATM   40  H   UNL     1     -10.033  10.390  64.196  1.00  0.00     0.000 HD 
HETATM   41  C   UNL     1      -8.648   8.102  67.951  1.00  0.00    -0.132 C  
BRANCH  37  42
HETATM   42  N   UNL     1      -7.681   8.726  64.319  1.00  0.00    -0.118 NA 
HETATM   43  H   UNL     1      -6.708   9.003  64.457  1.00  0.00     0.000 HD 
HETATM   44  C   UNL     1      -8.159   8.398  62.999  1.00  0.00    -0.163 C  
ENDBRANCH  37  42
ENDBRANCH  30  31
ENDBRANCH  10  30
ENDBRANCH   3   5
ENDBRANCH   2   3
TORSDOF 8
ENDMDL
MODEL       22
REMARK 921   NORMALIZED FREE ENERGY PREDICTED BY IDOCK:   -7.15 KCAL/MOL
REMARK 922        TOTAL FREE ENERGY PREDICTED BY IDOCK:  -11.24 KCAL/MOL
REMARK 923 INTER-LIGAND FREE ENERGY PREDICTED BY IDOCK:  -10.18 KCAL/MOL
REMARK 924 INTRA-LIGAND FREE ENERGY PREDICTED BY IDOCK:   -1.06 KCAL/MOL
REMARK 927      BINDING AFFINITY PREDICTED BY RF-SCORE:    0.00 PKD
ROOT
HETATM    1  C   UNL     1     -11.537   7.133  72.321  1.00  0.00    -0.309 C  
HETATM    2  C   UNL     1     -11.305   8.602  71.994  1.00  0.00    -0.362 C  
ENDROOT
BRANCH   2   3
HETATM    3  N   UNL     1     -11.574   8.853  70.575  1.00  0.00    -0.412 NA 
HETATM    4  H   UNL     1     -12.525   8.566  70.343  1.00  0.00     0.000 HD 
BRANCH   3   5
HETATM    5  C   UNL     1     -11.338  10.250  70.116  1.00  0.00    -0.316 C  
HETATM    6  C   UNL     1     -12.304  11.235  70.792  1.00  0.00    -0.495 C  
HETATM    7  C   UNL     1     -12.037  12.680  70.361  1.00  0.00    -0.300 C  
HETATM    8  C   UNL     1     -12.267  12.844  68.834  1.00  0.00    -0.006 C  
HETATM    9  N   UNL     1     -12.919  13.567  71.147  1.00  0.00    -0.296 NA 
HETATM   10  C   UNL     1     -11.302  10.377  68.566  1.00  0.00    -0.220 C  
HETATM   11  H2  UNL     1     -12.818  13.432  72.153  1.00  0.00     0.000 HD 
HETATM   12  H1  UNL     1     -12.742  14.529  70.860  1.00  0.00     0.000 HD 
HETATM   13  C   UNL     1     -11.446  11.811  68.018  1.00  0.00    -0.319 C  
HETATM   14  H   UNL     1     -11.497  11.012  66.187  1.00  0.00     0.000 HD 
HETATM   15  O   UNL     1     -11.999  11.644  66.687  1.00  0.00    -0.503 OA 
BRANCH   8  16
HETATM   16  O   UNL     1     -11.893  14.208  68.453  1.00  0.00    -0.330 OA 
BRANCH  16  17
HETATM   17  C   UNL     1     -10.506  14.361  68.074  1.00  0.00    -0.237 C  
HETATM   18  H1  UNL     1     -10.137  17.077  70.207  1.00  0.00     0.000 HD 
HETATM   19  O   UNL     1     -10.383  14.251  66.651  1.00  0.00    -0.272 OA 
HETATM   20  C   UNL     1     -10.356  15.432  65.941  1.00  0.00    -0.341 C  
HETATM   21  H2  UNL     1     -10.966  15.646  70.459  1.00  0.00     0.000 HD 
HETATM   22  N   UNL     1     -10.606  16.292  69.757  1.00  0.00    -0.322 NA 
HETATM   23  C   UNL     1      -9.739  16.514  66.434  1.00  0.00    -0.305 C  
HETATM   24  C   UNL     1      -9.786  15.567  68.766  1.00  0.00    -0.213 C  
HETATM   25  C   UNL     1      -9.072  16.481  67.765  1.00  0.00    -0.204 C  
BRANCH  20  26
HETATM   26  C   UNL     1     -11.007  15.329  64.582  1.00  0.00    -0.304 C  
HETATM   27  N   UNL     1     -11.552  16.581  64.060  1.00  0.00    -1.544 NA 
HETATM   28  H2  UNL     1     -10.831  17.302  64.051  1.00  0.00     0.000 HD 
HETATM   29  H1  UNL     1     -11.992  16.511  63.142  1.00  0.00     0.000 HD 
ENDBRANCH  20  26
ENDBRANCH  16  17
ENDBRANCH   8  16
BRANCH  10  30
HETATM   30  O   UNL     1     -10.202   9.631  67.936  1.00  0.00    -0.174 OA 
BRANCH  30  31
HETATM   31  C   UNL     1     -10.534   8.830  66.786  1.00  0.00    -0.213 C  
HETATM   32  O   UNL     1     -11.395   7.089  68.292  1.00  0.00    -0.500 OA 
HETATM   33  C   UNL     1      -8.367   7.036  65.954  1.00  0.00    -0.141 C  
HETATM   34  C   UNL     1     -10.711   7.290  67.044  1.00  0.00    -0.336 C  
HETATM   35  O   UNL     1      -9.591   9.076  65.754  1.00  0.00    -0.256 OA 
HETATM   36  O   UNL     1      -8.733   6.742  64.590  1.00  0.00    -0.347 OA 
HETATM   37  C   UNL     1      -9.413   6.423  66.953  1.00  0.00    -0.143 C  
HETATM   38  H   UNL     1      -8.764   5.798  64.484  1.00  0.00     0.000 HD 
HETATM   39  C   UNL     1      -6.964   6.461  66.158  1.00  0.00    -0.066 C  
HETATM   40  H   UNL     1     -11.502   6.158  68.448  1.00  0.00     0.000 HD 
HETATM   41  C   UNL     1      -8.317   8.549  66.124  1.00  0.00    -0.119 C  
BRANCH  37  42
HETATM   42  N   UNL     1      -9.661   5.009  66.548  1.00  0.00    -0.147 NA 
HETATM   43  H   UNL     1      -9.775   4.772  65.562  1.00  0.00     0.000 HD 
HETATM   44  C   UNL     1      -9.740   3.979  67.554  1.00  0.00    -0.125 C  
ENDBRANCH  37  42
ENDBRANCH  30  31
ENDBRANCH  10  30
ENDBRANCH   3   5
ENDBRANCH   2   3
TORSDOF 8
ENDMDL
MODEL       23
REMARK 921   NORMALIZED FREE ENERGY PREDICTED BY IDOCK:   -7.10 KCAL/MOL
REMARK 922        TOTAL FREE ENERGY PREDICTED BY IDOCK:  -11.17 KCAL/MOL
REMARK 923 INTER-LIGAND FREE ENERGY PREDICTED BY IDOCK:  -10.06 KCAL/MOL
REMARK 924 INTRA-LIGAND FREE ENERGY PREDICTED BY IDOCK:   -1.11 KCAL/MOL
REMARK 927      BINDING AFFINITY PREDICTED BY RF-SCORE:    0.00 PKD
ROOT
HETATM    1  C   UNL     1     -13.175   9.882  71.089  1.00  0.00    -0.424 C  
HETATM    2  C   UNL     1     -12.385  11.174  70.934  1.00  0.00    -0.399 C  
ENDROOT
BRANCH   2   3
HETATM    3  N   UNL     1     -12.017  11.378  69.530  1.00  0.00    -0.332 NA 
HETATM    4  H   UNL     1     -12.856  11.411  68.951  1.00  0.00     0.000 HD 
BRANCH   3   5
HETATM    5  C   UNL     1     -11.163  12.567  69.258  1.00  0.00    -0.194 C  
HETATM    6  C   UNL     1     -11.804  13.855  69.796  1.00  0.00    -0.390 C  
HETATM    7  C   UNL     1     -10.910  15.077  69.563  1.00  0.00    -0.262 C  
HETATM    8  C   UNL     1     -10.699  15.314  68.042  1.00  0.00    -0.268 C  
HETATM    9  N   UNL     1     -11.539  16.243  70.217  1.00  0.00    -0.435 NA 
HETATM   10  C   UNL     1     -10.723  12.665  67.769  1.00  0.00    -0.220 C  
HETATM   11  H2  UNL     1     -11.733  16.081  71.205  1.00  0.00     0.000 HD 
HETATM   12  H1  UNL     1     -10.944  17.056  70.061  1.00  0.00     0.000 HD 
HETATM   13  C   UNL     1     -10.174  14.038  67.332  1.00  0.00    -0.248 C  
HETATM   14  H   UNL     1     -10.103  13.318  65.469  1.00  0.00     0.000 HD 
HETATM   15  O   UNL     1     -10.424  14.099  65.904  1.00  0.00    -0.288 OA 
BRANCH   8  16
HETATM   16  O   UNL     1      -9.752  16.418  67.872  1.00  0.00    -0.230 OA 
BRANCH  16  17
HETATM   17  C   UNL     1     -10.348  17.733  67.960  1.00  0.00    -0.393 C  
HETATM   18  H1  UNL     1     -10.806  17.850  64.519  1.00  0.00     0.000 HD 
HETATM   19  O   UNL     1      -9.569  18.553  68.840  1.00  0.00    -0.330 OA 
HETATM   20  C   UNL     1      -8.642  19.384  68.250  1.00  0.00    -0.338 C  
HETATM   21  H2  UNL     1     -11.027  16.565  65.568  1.00  0.00     0.000 HD 
HETATM   22  N   UNL     1     -10.544  17.451  65.421  1.00  0.00    -0.631 NA 
HETATM   23  C   UNL     1      -8.903  19.979  67.079  1.00  0.00    -0.433 C  
HETATM   24  C   UNL     1     -10.750  18.345  66.577  1.00  0.00    -0.195 C  
HETATM   25  C   UNL     1     -10.195  19.759  66.373  1.00  0.00    -0.614 C  
BRANCH  20  26
HETATM   26  C   UNL     1      -7.399  19.583  69.086  1.00  0.00    -0.329 C  
HETATM   27  N   UNL     1      -6.419  20.511  68.525  1.00  0.00    -0.298 NA 
HETATM   28  H2  UNL     1      -6.858  21.410  68.327  1.00  0.00     0.000 HD 
HETATM   29  H1  UNL     1      -5.579  20.645  69.089  1.00  0.00     0.000 HD 
ENDBRANCH  20  26
ENDBRANCH  16  17
ENDBRANCH   8  16
BRANCH  10  30
HETATM   30  O   UNL     1      -9.882  11.544  67.324  1.00  0.00    -0.188 OA 
BRANCH  30  31
HETATM   31  C   UNL     1     -10.405  10.716  66.268  1.00  0.00    -0.234 C  
HETATM   32  O   UNL     1     -10.999   9.018  67.942  1.00  0.00    -0.488 OA 
HETATM   33  C   UNL     1      -8.411   8.892  65.126  1.00  0.00    -0.173 C  
HETATM   34  C   UNL     1     -10.536   9.184  66.591  1.00  0.00    -0.167 C  
HETATM   35  O   UNL     1      -9.650  10.932  65.085  1.00  0.00    -0.214 OA 
HETATM   36  O   UNL     1      -9.003   8.566  63.852  1.00  0.00    -0.373 OA 
HETATM   37  C   UNL     1      -9.273   8.308  66.304  1.00  0.00    -0.203 C  
HETATM   38  H   UNL     1      -9.053   7.619  63.777  1.00  0.00     0.000 HD 
HETATM   39  C   UNL     1      -6.994   8.314  65.104  1.00  0.00    -0.074 C  
HETATM   40  H   UNL     1     -11.078   8.091  68.137  1.00  0.00     0.000 HD 
HETATM   41  C   UNL     1      -8.332  10.408  65.247  1.00  0.00    -0.166 C  
BRANCH  37  42
HETATM   42  N   UNL     1      -9.587   6.886  65.982  1.00  0.00    -0.399 NA 
HETATM   43  H   UNL     1      -9.871   6.626  65.037  1.00  0.00     0.000 HD 
HETATM   44  C   UNL     1      -9.489   5.881  67.011  1.00  0.00    -0.125 C  
ENDBRANCH  37  42
ENDBRANCH  30  31
ENDBRANCH  10  30
ENDBRANCH   3   5
ENDBRANCH   2   3
TORSDOF 8
ENDMDL
MODEL       24
REMARK 921   NORMALIZED FREE ENERGY PREDICTED BY IDOCK:   -7.09 KCAL/MOL
REMARK 922        TOTAL FREE ENERGY PREDICTED BY IDOCK:  -11.14 KCAL/MOL
REMARK 923 INTER-LIGAND FREE ENERGY PREDICTED BY IDOCK:   -9.69 KCAL/MOL
REMARK 924 INTRA-LIGAND FREE ENERGY PREDICTED BY IDOCK:   -1.46 KCAL/MOL
REMARK 927      BINDING AFFINITY PREDICTED BY RF-SCORE:    0.00 PKD
ROOT
HETATM    1  C   UNL     1     -11.935  12.331  63.731  1.00  0.00    -0.609 C  
HETATM    2  C   UNL     1     -10.510  11.806  63.611  1.00  0.00    -0.439 C  
ENDROOT
BRANCH   2   3
HETATM    3  N   UNL     1      -9.705  12.259  64.749  1.00  0.00    -0.460 NA 
HETATM    4  H   UNL     1     -10.085  13.130  65.120  1.00  0.00     0.000 HD 
BRANCH   3   5
HETATM    5  C   UNL     1      -9.535  11.268  65.847  1.00  0.00    -0.222 C  
HETATM    6  C   UNL     1      -9.671   9.828  65.331  1.00  0.00    -0.383 C  
HETATM    7  C   UNL     1      -9.450   8.801  66.445  1.00  0.00    -0.228 C  
HETATM    8  C   UNL     1     -10.531   8.956  67.551  1.00  0.00    -0.269 C  
HETATM    9  N   UNL     1      -9.474   7.452  65.843  1.00  0.00    -0.403 NA 
HETATM   10  C   UNL     1     -10.432  11.575  67.080  1.00  0.00    -0.224 C  
HETATM   11  H2  UNL     1      -8.806   7.352  65.078  1.00  0.00     0.000 HD 
HETATM   12  H1  UNL     1      -9.327   6.768  66.584  1.00  0.00     0.000 HD 
HETATM   13  C   UNL     1     -10.601  10.413  68.080  1.00  0.00    -0.221 C  
HETATM   14  H   UNL     1     -11.916  11.559  69.055  1.00  0.00     0.000 HD 
HETATM   15  O   UNL     1     -11.873  10.667  68.731  1.00  0.00    -0.327 OA 
BRANCH   8  16
HETATM   16  O   UNL     1     -10.214   8.033  68.642  1.00  0.00    -0.198 OA 
BRANCH  16  17
HETATM   17  C   UNL     1      -9.096   8.443  69.464  1.00  0.00    -0.153 C  
HETATM   18  H1  UNL     1      -7.236   5.688  68.456  1.00  0.00     0.000 HD 
HETATM   19  O   UNL     1      -9.573   8.843  70.755  1.00  0.00    -0.192 OA 
HETATM   20  C   UNL     1      -9.522   7.894  71.752  1.00  0.00    -0.158 C  
HETATM   21  H2  UNL     1      -8.239   6.671  67.546  1.00  0.00     0.000 HD 
HETATM   22  N   UNL     1      -8.029   6.329  68.484  1.00  0.00    -0.104 NA 
HETATM   23  C   UNL     1      -8.505   7.024  71.820  1.00  0.00    -0.114 C  
HETATM   24  C   UNL     1      -7.879   7.459  69.421  1.00  0.00    -0.122 C  
HETATM   25  C   UNL     1      -7.404   7.047  70.818  1.00  0.00    -0.073 C  
BRANCH  20  26
HETATM   26  C   UNL     1     -10.655   8.007  72.745  1.00  0.00    -0.351 C  
HETATM   27  N   UNL     1     -10.412   7.369  74.037  1.00  0.00    -0.478 NA 
HETATM   28  H2  UNL     1      -9.548   7.724  74.448  1.00  0.00     0.000 HD 
HETATM   29  H1  UNL     1     -11.177   7.445  74.708  1.00  0.00     0.000 HD 
ENDBRANCH  20  26
ENDBRANCH  16  17
ENDBRANCH   8  16
BRANCH  10  30
HETATM   30  O   UNL     1     -10.120  12.854  67.737  1.00  0.00    -0.218 OA 
BRANCH  30  31
HETATM   31  C   UNL     1     -11.069  13.923  67.564  1.00  0.00    -0.286 C  
HETATM   32  O   UNL     1      -9.206  15.451  67.082  1.00  0.00    -0.200 OA 
HETATM   33  C   UNL     1     -11.631  15.391  70.041  1.00  0.00    -0.321 C  
HETATM   34  C   UNL     1     -10.501  15.382  67.703  1.00  0.00    -0.272 C  
HETATM   35  O   UNL     1     -12.174  13.715  68.430  1.00  0.00    -0.332 OA 
HETATM   36  O   UNL     1     -12.889  16.025  69.732  1.00  0.00    -0.562 OA 
HETATM   37  C   UNL     1     -10.479  15.978  69.147  1.00  0.00    -0.251 C  
HETATM   38  H   UNL     1     -12.803  16.958  69.890  1.00  0.00     0.000 HD 
HETATM   39  C   UNL     1     -11.385  15.627  71.533  1.00  0.00    -0.454 C  
HETATM   40  H   UNL     1      -8.862  16.333  67.166  1.00  0.00     0.000 HD 
HETATM   41  C   UNL     1     -11.769  13.896  69.787  1.00  0.00    -0.309 C  
BRANCH  37  42
HETATM   42  N   UNL     1     -10.582  17.466  69.186  1.00  0.00    -0.382 NA 
HETATM   43  H   UNL     1     -10.646  17.952  70.080  1.00  0.00     0.000 HD 
HETATM   44  C   UNL     1     -10.591  18.215  67.953  1.00  0.00    -0.371 C  
ENDBRANCH  37  42
ENDBRANCH  30  31
ENDBRANCH  10  30
ENDBRANCH   3   5
ENDBRANCH   2   3
TORSDOF 8
ENDMDL
MODEL       25
REMARK 921   NORMALIZED FREE ENERGY PREDICTED BY IDOCK:   -7.06 KCAL/MOL
REMARK 922        TOTAL FREE ENERGY PREDICTED BY IDOCK:  -11.11 KCAL/MOL
REMARK 923 INTER-LIGAND FREE ENERGY PREDICTED BY IDOCK:   -9.31 KCAL/MOL
REMARK 924 INTRA-LIGAND FREE ENERGY PREDICTED BY IDOCK:   -1.80 KCAL/MOL
REMARK 927      BINDING AFFINITY PREDICTED BY RF-SCORE:    0.00 PKD
ROOT
HETATM    1  C   UNL     1     -10.517   4.677  66.267  1.00  0.00    -0.249 C  
HETATM    2  C   UNL     1      -9.044   4.846  66.616  1.00  0.00    -0.119 C  
ENDROOT
BRANCH   2   3
HETATM    3  N   UNL     1      -8.859   6.016  67.480  1.00  0.00    -0.111 NA 
HETATM    4  H   UNL     1      -7.896   6.054  67.814  1.00  0.00     0.000 HD 
BRANCH   3   5
HETATM    5  C   UNL     1      -9.242   7.323  66.878  1.00  0.00    -0.152 C  
HETATM    6  C   UNL     1      -8.233   7.768  65.809  1.00  0.00    -0.132 C  
HETATM    7  C   UNL     1      -8.644   9.088  65.152  1.00  0.00    -0.179 C  
HETATM    8  C   UNL     1      -8.677  10.232  66.203  1.00  0.00    -0.152 C  
HETATM    9  N   UNL     1      -7.694   9.377  64.058  1.00  0.00    -0.115 NA 
HETATM   10  C   UNL     1      -9.538   8.414  67.947  1.00  0.00    -0.156 C  
HETATM   11  H2  UNL     1      -7.622   8.611  63.389  1.00  0.00     0.000 HD 
HETATM   12  H1  UNL     1      -7.968  10.256  63.621  1.00  0.00     0.000 HD 
HETATM   13  C   UNL     1      -9.564   9.863  67.422  1.00  0.00    -0.155 C  
HETATM   14  H   UNL     1      -9.771  10.454  69.319  1.00  0.00     0.000 HD 
HETATM   15  O   UNL     1      -9.228  10.680  68.573  1.00  0.00    -0.154 OA 
BRANCH   8  16
HETATM   16  O   UNL     1      -9.181  11.444  65.554  1.00  0.00    -0.217 OA 
BRANCH  16  17
HETATM   17  C   UNL     1     -10.596  11.415  65.256  1.00  0.00    -0.277 C  
HETATM   18  H1  UNL     1      -9.966  11.590  61.844  1.00  0.00     0.000 HD 
HETATM   19  O   UNL     1     -11.290  12.306  66.137  1.00  0.00    -0.318 OA 
HETATM   20  C   UNL     1     -11.558  13.568  65.653  1.00  0.00    -0.325 C  
HETATM   21  H2  UNL     1      -9.161  10.713  63.020  1.00  0.00     0.000 HD 
HETATM   22  N   UNL     1      -9.750  11.526  62.839  1.00  0.00    -0.350 NA 
HETATM   23  C   UNL     1     -11.880  13.754  64.367  1.00  0.00    -0.458 C  
HETATM   24  C   UNL     1     -10.928  11.513  63.729  1.00  0.00    -0.409 C  
HETATM   25  C   UNL     1     -11.952  12.610  63.417  1.00  0.00    -0.613 C  
BRANCH  20  26
HETATM   26  C   UNL     1     -11.519  14.639  66.718  1.00  0.00    -0.364 C  
HETATM   27  N   UNL     1     -12.239  14.315  67.948  1.00  0.00    -0.595 NA 
HETATM   28  H2  UNL     1     -11.905  13.429  68.328  1.00  0.00     0.000 HD 
HETATM   29  H1  UNL     1     -12.212  15.038  68.668  1.00  0.00     0.000 HD 
ENDBRANCH  20  26
ENDBRANCH  16  17
ENDBRANCH   8  16
BRANCH  10  30
HETATM   30  O   UNL     1     -10.685   8.099  68.813  1.00  0.00    -0.159 OA 
BRANCH  30  31
HETATM   31  C   UNL     1     -10.424   7.997  70.226  1.00  0.00    -0.222 C  
HETATM   32  O   UNL     1     -10.631   5.554  70.051  1.00  0.00    -0.296 OA 
HETATM   33  C   UNL     1     -12.856   8.083  71.865  1.00  0.00    -0.320 C  
HETATM   34  C   UNL     1     -10.894   6.668  70.921  1.00  0.00    -0.252 C  
HETATM   35  O   UNL     1     -10.952   9.138  70.885  1.00  0.00    -0.239 OA 
HETATM   36  O   UNL     1     -12.330   8.449  73.158  1.00  0.00    -0.571 OA 
HETATM   37  C   UNL     1     -12.364   6.649  71.451  1.00  0.00    -0.294 C  
HETATM   38  H   UNL     1     -12.627   7.810  73.795  1.00  0.00     0.000 HD 
HETATM   39  C   UNL     1     -14.379   8.162  71.982  1.00  0.00    -0.524 C  
HETATM   40  H   UNL     1     -10.914   4.751  70.472  1.00  0.00     0.000 HD 
HETATM   41  C   UNL     1     -12.379   9.107  70.843  1.00  0.00    -0.142 C  
BRANCH  37  42
HETATM   42  N   UNL     1     -12.573   5.739  72.614  1.00  0.00    -0.412 NA 
HETATM   43  H   UNL     1     -13.487   5.684  73.063  1.00  0.00     0.000 HD 
HETATM   44  C   UNL     1     -11.478   4.937  73.102  1.00  0.00    -0.278 C  
ENDBRANCH  37  42
ENDBRANCH  30  31
ENDBRANCH  10  30
ENDBRANCH   3   5
ENDBRANCH   2   3
TORSDOF 8
ENDMDL
MODEL       26
REMARK 921   NORMALIZED FREE ENERGY PREDICTED BY IDOCK:   -7.03 KCAL/MOL
REMARK 922        TOTAL FREE ENERGY PREDICTED BY IDOCK:  -11.06 KCAL/MOL
REMARK 923 INTER-LIGAND FREE ENERGY PREDICTED BY IDOCK:   -9.66 KCAL/MOL
REMARK 924 INTRA-LIGAND FREE ENERGY PREDICTED BY IDOCK:   -1.40 KCAL/MOL
REMARK 927      BINDING AFFINITY PREDICTED BY RF-SCORE:    0.00 PKD
ROOT
HETATM    1  C   UNL     1     -13.497  13.659  72.422  1.00  0.00    -0.685 C  
HETATM    2  C   UNL     1     -13.199  12.220  72.024  1.00  0.00    -0.403 C  
ENDROOT
BRANCH   2   3
HETATM    3  N   UNL     1     -12.235  12.188  70.920  1.00  0.00    -0.407 NA 
HETATM    4  H   UNL     1     -11.361  12.629  71.207  1.00  0.00     0.000 HD 
BRANCH   3   5
HETATM    5  C   UNL     1     -11.963  10.841  70.347  1.00  0.00    -0.357 C  
HETATM    6  C   UNL     1     -12.284   9.726  71.353  1.00  0.00    -0.486 C  
HETATM    7  C   UNL     1     -12.051   8.335  70.755  1.00  0.00    -0.058 C  
HETATM    8  C   UNL     1     -10.555   8.147  70.381  1.00  0.00    -0.224 C  
HETATM    9  N   UNL     1     -12.501   7.328  71.738  1.00  0.00    -0.334 NA 
HETATM   10  C   UNL     1     -10.541  10.728  69.725  1.00  0.00    -0.140 C  
HETATM   11  H2  UNL     1     -13.466   7.472  72.035  1.00  0.00     0.000 HD 
HETATM   12  H1  UNL     1     -12.346   6.402  71.340  1.00  0.00     0.000 HD 
HETATM   13  C   UNL     1     -10.048   9.290  69.463  1.00  0.00    -0.198 C  
HETATM   14  H   UNL     1      -8.289  10.083  68.940  1.00  0.00     0.000 HD 
HETATM   15  O   UNL     1      -8.600   9.383  69.502  1.00  0.00    -0.136 OA 
BRANCH   8  16
HETATM   16  O   UNL     1     -10.403   6.853  69.714  1.00  0.00    -0.194 OA 
BRANCH  16  17
HETATM   17  C   UNL     1      -9.319   6.043  70.224  1.00  0.00    -0.159 C  
HETATM   18  H1  UNL     1      -9.475   3.943  67.462  1.00  0.00     0.000 HD 
HETATM   19  O   UNL     1      -9.527   5.789  71.619  1.00  0.00    -0.152 OA 
HETATM   20  C   UNL     1     -10.125   4.592  71.946  1.00  0.00    -0.198 C  
HETATM   21  H2  UNL     1      -9.612   5.609  67.527  1.00  0.00     0.000 HD 
HETATM   22  N   UNL     1      -9.711   4.740  68.052  1.00  0.00    -0.153 NA 
HETATM   23  C   UNL     1      -9.858   3.480  71.250  1.00  0.00    -0.205 C  
HETATM   24  C   UNL     1      -8.957   4.818  69.318  1.00  0.00    -0.095 C  
HETATM   25  C   UNL     1      -8.916   3.500  70.097  1.00  0.00    -0.174 C  
BRANCH  20  26
HETATM   26  C   UNL     1     -11.009   4.679  73.169  1.00  0.00    -0.286 C  
HETATM   27  N   UNL     1     -10.422   5.381  74.309  1.00  0.00    -0.280 NA 
HETATM   28  H2  UNL     1     -10.116   6.313  74.028  1.00  0.00     0.000 HD 
HETATM   29  H1  UNL     1     -11.018   5.439  75.134  1.00  0.00     0.000 HD 
ENDBRANCH  20  26
ENDBRANCH  16  17
ENDBRANCH   8  16
BRANCH  10  30
HETATM   30  O   UNL     1     -10.322  11.625  68.580  1.00  0.00    -0.210 OA 
BRANCH  30  31
HETATM   31  C   UNL     1     -11.165  11.430  67.429  1.00  0.00    -0.305 C  
HETATM   32  O   UNL     1      -9.178  10.811  66.123  1.00  0.00    -0.169 OA 
HETATM   33  C   UNL     1     -11.482  13.847  65.797  1.00  0.00    -0.321 C  
HETATM   34  C   UNL     1     -10.448  11.476  66.031  1.00  0.00    -0.252 C  
HETATM   35  O   UNL     1     -12.252  12.342  67.482  1.00  0.00    -0.457 OA 
HETATM   36  O   UNL     1     -12.681  13.548  65.053  1.00  0.00    -0.621 OA 
HETATM   37  C   UNL     1     -10.312  12.887  65.373  1.00  0.00    -0.296 C  
HETATM   38  H   UNL     1     -12.496  13.656  64.127  1.00  0.00     0.000 HD 
HETATM   39  C   UNL     1     -11.157  15.316  65.517  1.00  0.00    -0.330 C  
HETATM   40  H   UNL     1      -8.745  10.838  65.278  1.00  0.00     0.000 HD 
HETATM   41  C   UNL     1     -11.779  13.674  67.281  1.00  0.00    -0.380 C  
BRANCH  37  42
HETATM   42  N   UNL     1     -10.264  12.854  63.882  1.00  0.00    -0.650 NA 
HETATM   43  H   UNL     1     -10.218  13.724  63.352  1.00  0.00     0.000 HD 
HETATM   44  C   UNL     1     -10.284  11.587  63.193  1.00  0.00    -0.345 C  
ENDBRANCH  37  42
ENDBRANCH  30  31
ENDBRANCH  10  30
ENDBRANCH   3   5
ENDBRANCH   2   3
TORSDOF 8
ENDMDL
MODEL       27
REMARK 921   NORMALIZED FREE ENERGY PREDICTED BY IDOCK:   -7.01 KCAL/MOL
REMARK 922        TOTAL FREE ENERGY PREDICTED BY IDOCK:  -11.03 KCAL/MOL
REMARK 923 INTER-LIGAND FREE ENERGY PREDICTED BY IDOCK:  -10.09 KCAL/MOL
REMARK 924 INTRA-LIGAND FREE ENERGY PREDICTED BY IDOCK:   -0.94 KCAL/MOL
REMARK 927      BINDING AFFINITY PREDICTED BY RF-SCORE:    0.00 PKD
ROOT
HETATM    1  C   UNL     1      -8.708   7.691  66.335  1.00  0.00    -0.166 C  
HETATM    2  C   UNL     1      -9.419   8.970  65.912  1.00  0.00    -0.249 C  
ENDROOT
BRANCH   2   3
HETATM    3  N   UNL     1     -10.512   9.272  66.841  1.00  0.00    -0.238 NA 
HETATM    4  H   UNL     1     -10.211   9.104  67.801  1.00  0.00     0.000 HD 
BRANCH   3   5
HETATM    5  C   UNL     1     -11.094  10.638  66.720  1.00  0.00    -0.030 C  
HETATM    6  C   UNL     1     -10.303  11.500  65.725  1.00  0.00    -0.295 C  
HETATM    7  C   UNL     1     -10.923  12.891  65.560  1.00  0.00    -0.274 C  
HETATM    8  C   UNL     1     -10.892  13.665  66.907  1.00  0.00    -0.283 C  
HETATM    9  N   UNL     1     -10.181  13.606  64.501  1.00  0.00    -0.647 NA 
HETATM   10  C   UNL     1     -11.315  11.322  68.099  1.00  0.00    -0.303 C  
HETATM   11  H2  UNL     1     -10.146  13.084  63.625  1.00  0.00     0.000 HD 
HETATM   12  H1  UNL     1     -10.593  14.531  64.390  1.00  0.00     0.000 HD 
HETATM   13  C   UNL     1     -11.546  12.846  68.051  1.00  0.00    -0.342 C  
HETATM   14  H   UNL     1     -11.509  12.827  70.049  1.00  0.00     0.000 HD 
HETATM   15  O   UNL     1     -11.109  13.328  69.348  1.00  0.00    -0.197 OA 
BRANCH   8  16
HETATM   16  O   UNL     1     -11.593  14.938  66.726  1.00  0.00    -0.344 OA 
BRANCH  16  17
HETATM   17  C   UNL     1     -10.844  16.097  67.159  1.00  0.00    -0.216 C  
HETATM   18  H1  UNL     1     -10.849  17.407  63.943  1.00  0.00     0.000 HD 
HETATM   19  O   UNL     1      -9.768  15.680  68.010  1.00  0.00    -0.204 OA 
HETATM   20  C   UNL     1      -8.535  15.526  67.416  1.00  0.00    -0.180 C  
HETATM   21  H2  UNL     1     -12.082  16.633  64.766  1.00  0.00     0.000 HD 
HETATM   22  N   UNL     1     -11.072  16.753  64.693  1.00  0.00    -0.937 NA 
HETATM   23  C   UNL     1      -8.136  16.353  66.441  1.00  0.00    -0.357 C  
HETATM   24  C   UNL     1     -10.500  17.101  66.008  1.00  0.00    -0.266 C  
HETATM   25  C   UNL     1      -9.011  17.458  65.961  1.00  0.00    -0.086 C  
BRANCH  20  26
HETATM   26  C   UNL     1      -7.711  14.416  68.026  1.00  0.00    -0.138 C  
HETATM   27  N   UNL     1      -8.383  13.650  69.073  1.00  0.00    -0.340 NA 
HETATM   28  H2  UNL     1      -9.269  13.281  68.725  1.00  0.00     0.000 HD 
HETATM   29  H1  UNL     1      -7.827  12.900  69.485  1.00  0.00     0.000 HD 
ENDBRANCH  20  26
ENDBRANCH  16  17
ENDBRANCH   8  16
BRANCH  10  30
HETATM   30  O   UNL     1     -12.283  10.624  68.959  1.00  0.00    -0.354 OA 
BRANCH  30  31
HETATM   31  C   UNL     1     -11.982  10.567  70.366  1.00  0.00    -0.335 C  
HETATM   32  O   UNL     1     -10.154   9.000  69.875  1.00  0.00    -0.187 OA 
HETATM   33  C   UNL     1     -13.425   8.439  71.779  1.00  0.00    -0.364 C  
HETATM   34  C   UNL     1     -11.164   9.315  70.848  1.00  0.00    -0.306 C  
HETATM   35  O   UNL     1     -13.182  10.718  71.110  1.00  0.00    -0.324 OA 
HETATM   36  O   UNL     1     -13.346   8.886  73.148  1.00  0.00    -0.926 OA 
HETATM   37  C   UNL     1     -12.001   8.054  71.238  1.00  0.00    -0.296 C  
HETATM   38  H   UNL     1     -12.981   8.182  73.674  1.00  0.00     0.000 HD 
HETATM   39  C   UNL     1     -14.390   7.252  71.768  1.00  0.00    -0.560 C  
HETATM   40  H   UNL     1      -9.660   8.243  70.167  1.00  0.00     0.000 HD 
HETATM   41  C   UNL     1     -14.009   9.567  70.937  1.00  0.00     0.245 C  
BRANCH  37  42
HETATM   42  N   UNL     1     -11.343   7.186  72.257  1.00  0.00    -0.257 NA 
HETATM   43  H   UNL     1     -11.580   6.196  72.316  1.00  0.00     0.000 HD 
HETATM   44  C   UNL     1     -10.370   7.752  73.159  1.00  0.00    -0.340 C  
ENDBRANCH  37  42
ENDBRANCH  30  31
ENDBRANCH  10  30
ENDBRANCH   3   5
ENDBRANCH   2   3
TORSDOF 8
ENDMDL
MODEL       28
REMARK 921   NORMALIZED FREE ENERGY PREDICTED BY IDOCK:   -6.97 KCAL/MOL
REMARK 922        TOTAL FREE ENERGY PREDICTED BY IDOCK:  -10.97 KCAL/MOL
REMARK 923 INTER-LIGAND FREE ENERGY PREDICTED BY IDOCK:   -9.40 KCAL/MOL
REMARK 924 INTRA-LIGAND FREE ENERGY PREDICTED BY IDOCK:   -1.57 KCAL/MOL
REMARK 927      BINDING AFFINITY PREDICTED BY RF-SCORE:    0.00 PKD
ROOT
HETATM    1  C   UNL     1      -7.770   7.860  67.439  1.00  0.00    -0.109 C  
HETATM    2  C   UNL     1      -6.637   8.744  67.944  1.00  0.00    -0.061 C  
ENDROOT
BRANCH   2   3
HETATM    3  N   UNL     1      -7.104  10.125  68.102  1.00  0.00    -0.078 NA 
HETATM    4  H   UNL     1      -6.423  10.772  67.705  1.00  0.00     0.000 HD 
BRANCH   3   5
HETATM    5  C   UNL     1      -8.458  10.409  67.554  1.00  0.00    -0.115 C  
HETATM    6  C   UNL     1      -8.379  11.219  66.251  1.00  0.00    -0.142 C  
HETATM    7  C   UNL     1      -9.766  11.476  65.654  1.00  0.00    -0.232 C  
HETATM    8  C   UNL     1     -10.627  12.327  66.628  1.00  0.00    -0.229 C  
HETATM    9  N   UNL     1      -9.591  12.146  64.349  1.00  0.00    -0.478 NA 
HETATM   10  C   UNL     1      -9.419  11.025  68.611  1.00  0.00    -0.195 C  
HETATM   11  H2  UNL     1      -8.983  11.624  63.718  1.00  0.00     0.000 HD 
HETATM   12  H1  UNL     1     -10.514  12.317  63.952  1.00  0.00     0.000 HD 
HETATM   13  C   UNL     1     -10.688  11.692  68.042  1.00  0.00    -0.208 C  
HETATM   14  H   UNL     1     -11.103  12.289  69.903  1.00  0.00     0.000 HD 
HETATM   15  O   UNL     1     -11.066  12.678  69.037  1.00  0.00    -0.253 OA 
BRANCH   8  16
HETATM   16  O   UNL     1     -11.974  12.451  66.067  1.00  0.00    -0.537 OA 
BRANCH  16  17
HETATM   17  C   UNL     1     -12.425  13.815  65.897  1.00  0.00    -0.468 C  
HETATM   18  H1  UNL     1     -12.245  13.533  62.439  1.00  0.00     0.000 HD 
HETATM   19  O   UNL     1     -11.729  14.667  66.814  1.00  0.00    -0.373 OA 
HETATM   20  C   UNL     1     -10.624  15.329  66.325  1.00  0.00    -0.309 C  
HETATM   21  H2  UNL     1     -12.793  12.417  63.560  1.00  0.00     0.000 HD 
HETATM   22  N   UNL     1     -12.195  13.230  63.412  1.00  0.00    -0.707 NA 
HETATM   23  C   UNL     1     -10.603  15.792  65.068  1.00  0.00    -0.397 C  
HETATM   24  C   UNL     1     -12.503  14.279  64.403  1.00  0.00    -0.300 C  
HETATM   25  C   UNL     1     -11.765  15.600  64.157  1.00  0.00    -0.081 C  
BRANCH  20  26
HETATM   26  C   UNL     1      -9.536  15.521  67.355  1.00  0.00    -0.211 C  
HETATM   27  N   UNL     1      -8.200  15.753  66.809  1.00  0.00    -0.249 NA 
HETATM   28  H2  UNL     1      -8.217  16.542  66.163  1.00  0.00     0.000 HD 
HETATM   29  H1  UNL     1      -7.465  15.882  67.504  1.00  0.00     0.000 HD 
ENDBRANCH  20  26
ENDBRANCH  16  17
ENDBRANCH   8  16
BRANCH  10  30
HETATM   30  O   UNL     1      -9.703  10.132  69.745  1.00  0.00    -0.230 OA 
BRANCH  30  31
HETATM   31  C   UNL     1     -10.892   9.324  69.656  1.00  0.00    -0.212 C  
HETATM   32  O   UNL     1     -12.041  10.916  71.135  1.00  0.00    -0.334 OA 
HETATM   33  C   UNL     1     -11.059   7.268  71.742  1.00  0.00    -0.235 C  
HETATM   34  C   UNL     1     -11.948   9.520  70.803  1.00  0.00    -0.252 C  
HETATM   35  O   UNL     1     -10.524   7.960  69.521  1.00  0.00    -0.221 OA 
HETATM   36  O   UNL     1     -12.007   6.343  71.172  1.00  0.00    -0.328 OA 
HETATM   37  C   UNL     1     -11.753   8.637  72.078  1.00  0.00    -0.369 C  
HETATM   38  H   UNL     1     -12.707   6.203  71.799  1.00  0.00     0.000 HD 
HETATM   39  C   UNL     1     -10.488   6.587  72.988  1.00  0.00    -0.258 C  
HETATM   40  H   UNL     1     -12.679  11.034  71.828  1.00  0.00     0.000 HD 
HETATM   41  C   UNL     1      -9.938   7.491  70.736  1.00  0.00    -0.182 C  
BRANCH  37  42
HETATM   42  N   UNL     1     -13.021   8.342  72.806  1.00  0.00    -0.626 NA 
HETATM   43  H   UNL     1     -12.994   7.881  73.715  1.00  0.00     0.000 HD 
HETATM   44  C   UNL     1     -14.286   8.711  72.219  1.00  0.00    -0.417 C  
ENDBRANCH  37  42
ENDBRANCH  30  31
ENDBRANCH  10  30
ENDBRANCH   3   5
ENDBRANCH   2   3
TORSDOF 8
ENDMDL
MODEL       29
REMARK 921   NORMALIZED FREE ENERGY PREDICTED BY IDOCK:   -6.97 KCAL/MOL
REMARK 922        TOTAL FREE ENERGY PREDICTED BY IDOCK:  -10.97 KCAL/MOL
REMARK 923 INTER-LIGAND FREE ENERGY PREDICTED BY IDOCK:   -9.22 KCAL/MOL
REMARK 924 INTRA-LIGAND FREE ENERGY PREDICTED BY IDOCK:   -1.74 KCAL/MOL
REMARK 927      BINDING AFFINITY PREDICTED BY RF-SCORE:    0.00 PKD
ROOT
HETATM    1  C   UNL     1      -8.414   4.072  66.381  1.00  0.00    -0.109 C  
HETATM    2  C   UNL     1      -9.346   5.090  67.024  1.00  0.00    -0.128 C  
ENDROOT
BRANCH   2   3
HETATM    3  N   UNL     1      -8.574   6.212  67.566  1.00  0.00    -0.107 NA 
HETATM    4  H   UNL     1      -7.604   6.152  67.254  1.00  0.00     0.000 HD 
BRANCH   3   5
HETATM    5  C   UNL     1      -9.121   7.566  67.274  1.00  0.00    -0.124 C  
HETATM    6  C   UNL     1      -8.879   7.966  65.811  1.00  0.00    -0.155 C  
HETATM    7  C   UNL     1      -9.479   9.338  65.489  1.00  0.00    -0.240 C  
HETATM    8  C   UNL     1      -8.802  10.443  66.346  1.00  0.00    -0.147 C  
HETATM    9  N   UNL     1      -9.314   9.588  64.043  1.00  0.00    -0.409 NA 
HETATM   10  C   UNL     1      -8.652   8.639  68.298  1.00  0.00    -0.138 C  
HETATM   11  H2  UNL     1      -9.706   8.843  63.467  1.00  0.00     0.000 HD 
HETATM   12  H1  UNL     1      -9.714  10.501  63.828  1.00  0.00     0.000 HD 
HETATM   13  C   UNL     1      -8.851  10.103  67.859  1.00  0.00    -0.125 C  
HETATM   14  H   UNL     1      -7.875  10.642  69.517  1.00  0.00     0.000 HD 
HETATM   15  O   UNL     1      -7.845  10.850  68.591  1.00  0.00    -0.110 OA 
BRANCH   8  16
HETATM   16  O   UNL     1      -9.483  11.713  66.086  1.00  0.00    -0.213 OA 
BRANCH  16  17
HETATM   17  C   UNL     1     -10.918  11.601  65.940  1.00  0.00    -0.280 C  
HETATM   18  H1  UNL     1     -10.799  13.093  62.806  1.00  0.00     0.000 HD 
HETATM   19  O   UNL     1     -11.556  12.005  67.157  1.00  0.00    -0.409 OA 
HETATM   20  C   UNL     1     -12.004  13.306  67.216  1.00  0.00    -0.343 C  
HETATM   21  H2  UNL     1      -9.758  11.968  63.476  1.00  0.00     0.000 HD 
HETATM   22  N   UNL     1     -10.438  12.701  63.675  1.00  0.00    -0.385 NA 
HETATM   23  C   UNL     1     -12.522  13.903  66.135  1.00  0.00    -0.478 C  
HETATM   24  C   UNL     1     -11.471  12.203  64.605  1.00  0.00    -0.328 C  
HETATM   25  C   UNL     1     -12.624  13.186  64.834  1.00  0.00    -0.468 C  
BRANCH  20  26
HETATM   26  C   UNL     1     -11.911  13.910  68.599  1.00  0.00    -0.372 C  
HETATM   27  N   UNL     1     -11.362  13.025  69.624  1.00  0.00    -0.477 NA 
HETATM   28  H2  UNL     1     -10.451  12.671  69.332  1.00  0.00     0.000 HD 
HETATM   29  H1  UNL     1     -11.298  13.432  70.557  1.00  0.00     0.000 HD 
ENDBRANCH  20  26
ENDBRANCH  16  17
ENDBRANCH   8  16
BRANCH  10  30
HETATM   30  O   UNL     1      -9.110   8.386  69.673  1.00  0.00    -0.151 OA 
BRANCH  30  31
HETATM   31  C   UNL     1     -10.433   7.838  69.827  1.00  0.00    -0.233 C  
HETATM   32  O   UNL     1     -11.227  10.049  70.551  1.00  0.00    -0.287 OA 
HETATM   33  C   UNL     1     -10.946   6.777  72.514  1.00  0.00    -0.247 C  
HETATM   34  C   UNL     1     -11.409   8.639  70.764  1.00  0.00    -0.263 C  
HETATM   35  O   UNL     1     -10.335   6.479  70.225  1.00  0.00    -0.191 OA 
HETATM   36  O   UNL     1     -12.064   5.897  72.277  1.00  0.00    -0.356 OA 
HETATM   37  C   UNL     1     -11.359   8.275  72.283  1.00  0.00    -0.378 C  
HETATM   38  H   UNL     1     -12.765   6.134  72.874  1.00  0.00     0.000 HD 
HETATM   39  C   UNL     1     -10.489   6.516  73.951  1.00  0.00    -0.329 C  
HETATM   40  H   UNL     1     -11.816  10.532  71.117  1.00  0.00     0.000 HD 
HETATM   41  C   UNL     1      -9.824   6.398  71.556  1.00  0.00    -0.168 C  
BRANCH  37  42
HETATM   42  N   UNL     1     -12.645   8.512  73.001  1.00  0.00    -0.583 NA 
HETATM   43  H   UNL     1     -12.722   8.302  73.996  1.00  0.00     0.000 HD 
HETATM   44  C   UNL     1     -13.779   9.039  72.283  1.00  0.00    -0.492 C  
ENDBRANCH  37  42
ENDBRANCH  30  31
ENDBRANCH  10  30
ENDBRANCH   3   5
ENDBRANCH   2   3
TORSDOF 8
ENDMDL
MODEL       30
REMARK 921   NORMALIZED FREE ENERGY PREDICTED BY IDOCK:   -6.94 KCAL/MOL
REMARK 922        TOTAL FREE ENERGY PREDICTED BY IDOCK:  -10.93 KCAL/MOL
REMARK 923 INTER-LIGAND FREE ENERGY PREDICTED BY IDOCK:  -10.42 KCAL/MOL
REMARK 924 INTRA-LIGAND FREE ENERGY PREDICTED BY IDOCK:   -0.51 KCAL/MOL
REMARK 927      BINDING AFFINITY PREDICTED BY RF-SCORE:    0.00 PKD
ROOT
HETATM    1  C   UNL     1     -12.676  12.152  63.349  1.00  0.00    -0.508 C  
HETATM    2  C   UNL     1     -11.357  12.790  63.763  1.00  0.00    -0.461 C  
ENDROOT
BRANCH   2   3
HETATM    3  N   UNL     1     -11.547  13.616  64.959  1.00  0.00    -0.321 NA 
HETATM    4  H   UNL     1     -12.525  13.895  65.039  1.00  0.00     0.000 HD 
BRANCH   3   5
HETATM    5  C   UNL     1     -11.084  13.007  66.237  1.00  0.00    -0.289 C  
HETATM    6  C   UNL     1     -11.277  11.483  66.236  1.00  0.00    -0.286 C  
HETATM    7  C   UNL     1     -10.760  10.843  67.528  1.00  0.00    -0.252 C  
HETATM    8  C   UNL     1     -11.558  11.369  68.753  1.00  0.00    -0.313 C  
HETATM    9  N   UNL     1     -10.867   9.376  67.393  1.00  0.00    -0.394 NA 
HETATM   10  C   UNL     1     -11.681  13.710  67.490  1.00  0.00    -0.371 C  
HETATM   11  H2  UNL     1     -10.393   9.022  66.562  1.00  0.00     0.000 HD 
HETATM   12  H1  UNL     1     -10.523   8.950  68.252  1.00  0.00     0.000 HD 
HETATM   13  C   UNL     1     -11.564  12.920  68.809  1.00  0.00    -0.311 C  
HETATM   14  H   UNL     1     -12.661  14.354  69.664  1.00  0.00     0.000 HD 
HETATM   15  O   UNL     1     -12.657  13.405  69.629  1.00  0.00    -0.102 OA 
BRANCH   8  16
HETATM   16  O   UNL     1     -10.957  10.817  69.969  1.00  0.00    -0.271 OA 
BRANCH  16  17
HETATM   17  C   UNL     1     -11.314   9.442  70.239  1.00  0.00    -0.220 C  
HETATM   18  H1  UNL     1     -13.706  10.431  72.556  1.00  0.00     0.000 HD 
HETATM   19  O   UNL     1     -10.123   8.658  70.383  1.00  0.00    -0.180 OA 
HETATM   20  C   UNL     1      -9.680   8.440  71.669  1.00  0.00    -0.219 C  
HETATM   21  H2  UNL     1     -13.335  11.108  71.072  1.00  0.00     0.000 HD 
HETATM   22  N   UNL     1     -12.985  10.540  71.843  1.00  0.00    -0.466 NA 
HETATM   23  C   UNL     1     -10.548   8.256  72.672  1.00  0.00    -0.378 C  
HETATM   24  C   UNL     1     -12.421   9.274  71.333  1.00  0.00    -0.341 C  
HETATM   25  C   UNL     1     -12.018   8.288  72.435  1.00  0.00    -0.447 C  
BRANCH  20  26
HETATM   26  C   UNL     1      -8.175   8.365  71.778  1.00  0.00    -0.152 C  
HETATM   27  N   UNL     1      -7.642   8.554  73.126  1.00  0.00    -0.354 NA 
HETATM   28  H2  UNL     1      -8.075   7.893  73.772  1.00  0.00     0.000 HD 
HETATM   29  H1  UNL     1      -6.626   8.503  73.201  1.00  0.00     0.000 HD 
ENDBRANCH  20  26
ENDBRANCH  16  17
ENDBRANCH   8  16
BRANCH  10  30
HETATM   30  O   UNL     1     -11.278  15.117  67.628  1.00  0.00    -0.310 OA 
BRANCH  30  31
HETATM   31  C   UNL     1      -9.911  15.438  67.305  1.00  0.00    -0.226 C  
HETATM   32  O   UNL     1      -9.542  16.070  69.651  1.00  0.00    -0.236 OA 
HETATM   33  C   UNL     1      -9.533  18.232  66.495  1.00  0.00    -0.310 C  
HETATM   34  C   UNL     1      -9.173  16.402  68.303  1.00  0.00    -0.207 C  
HETATM   35  O   UNL     1      -9.845  15.924  65.973  1.00  0.00    -0.289 OA 
HETATM   36  O   UNL     1      -8.276  18.169  65.791  1.00  0.00    -0.509 OA 
HETATM   37  C   UNL     1      -9.328  17.932  68.024  1.00  0.00    -0.274 C  
HETATM   38  H   UNL     1      -7.686  18.812  66.169  1.00  0.00     0.000 HD 
HETATM   39  C   UNL     1     -10.095  19.634  66.249  1.00  0.00    -0.578 C  
HETATM   40  H   UNL     1      -9.095  16.653  70.254  1.00  0.00     0.000 HD 
HETATM   41  C   UNL     1     -10.477  17.201  65.889  1.00  0.00    -0.258 C  
BRANCH  37  42
HETATM   42  N   UNL     1      -8.177  18.751  68.502  1.00  0.00    -0.338 NA 
HETATM   43  H   UNL     1      -8.317  19.726  68.769  1.00  0.00     0.000 HD 
HETATM   44  C   UNL     1      -6.863  18.161  68.584  1.00  0.00    -0.250 C  
ENDBRANCH  37  42
ENDBRANCH  30  31
ENDBRANCH  10  30
ENDBRANCH   3   5
ENDBRANCH   2   3
TORSDOF 8
ENDMDL
MODEL       31
REMARK 921   NORMALIZED FREE ENERGY PREDICTED BY IDOCK:   -6.88 KCAL/MOL
REMARK 922        TOTAL FREE ENERGY PREDICTED BY IDOCK:  -10.85 KCAL/MOL
REMARK 923 INTER-LIGAND FREE ENERGY PREDICTED BY IDOCK:   -9.42 KCAL/MOL
REMARK 924 INTRA-LIGAND FREE ENERGY PREDICTED BY IDOCK:   -1.42 KCAL/MOL
REMARK 927      BINDING AFFINITY PREDICTED BY RF-SCORE:    0.00 PKD
ROOT
HETATM    1  C   UNL     1     -10.772   8.081  72.152  1.00  0.00    -0.339 C  
HETATM    2  C   UNL     1     -10.375   8.805  70.873  1.00  0.00    -0.223 C  
ENDROOT
BRANCH   2   3
HETATM    3  N   UNL     1     -11.537   9.489  70.297  1.00  0.00    -0.404 NA 
HETATM    4  H   UNL     1     -12.319   9.462  70.952  1.00  0.00     0.000 HD 
BRANCH   3   5
HETATM    5  C   UNL     1     -11.297  10.889  69.848  1.00  0.00    -0.305 C  
HETATM    6  C   UNL     1     -12.249  11.873  70.543  1.00  0.00    -0.426 C  
HETATM    7  C   UNL     1     -11.978  13.321  70.122  1.00  0.00    -0.318 C  
HETATM    8  C   UNL     1     -12.226  13.499  68.599  1.00  0.00    -0.137 C  
HETATM    9  N   UNL     1     -12.845  14.207  70.926  1.00  0.00    -0.339 NA 
HETATM   10  C   UNL     1     -11.280  11.029  68.299  1.00  0.00    -0.277 C  
HETATM   11  H2  UNL     1     -12.733  14.062  71.929  1.00  0.00     0.000 HD 
HETATM   12  H1  UNL     1     -12.665  15.170  70.646  1.00  0.00     0.000 HD 
HETATM   13  C   UNL     1     -11.422  12.468  67.764  1.00  0.00    -0.321 C  
HETATM   14  H   UNL     1     -11.500  11.685  65.928  1.00  0.00     0.000 HD 
HETATM   15  O   UNL     1     -11.992  12.317  66.439  1.00  0.00    -0.589 OA 
BRANCH   8  16
HETATM   16  O   UNL     1     -11.848  14.864  68.225  1.00  0.00    -0.324 OA 
BRANCH  16  17
HETATM   17  C   UNL     1     -10.460  15.016  67.850  1.00  0.00    -0.247 C  
HETATM   18  H1  UNL     1      -9.726  16.563  70.872  1.00  0.00     0.000 HD 
HETATM   19  O   UNL     1     -10.378  15.489  66.500  1.00  0.00    -0.272 OA 
HETATM   20  C   UNL     1     -10.221  16.847  66.330  1.00  0.00    -0.321 C  
HETATM   21  H2  UNL     1     -10.717  15.248  70.576  1.00  0.00     0.000 HD 
HETATM   22  N   UNL     1     -10.295  16.084  70.174  1.00  0.00    -0.201 NA 
HETATM   23  C   UNL     1      -9.469  17.561  67.178  1.00  0.00    -0.259 C  
HETATM   24  C   UNL     1      -9.587  15.750  68.922  1.00  0.00    -0.229 C  
HETATM   25  C   UNL     1      -8.786  16.916  68.333  1.00  0.00    -0.244 C  
BRANCH  20  26
HETATM   26  C   UNL     1     -10.904  17.379  65.092  1.00  0.00     0.142 C  
HETATM   27  N   UNL     1     -11.212  16.375  64.076  1.00  0.00    -1.427 NA 
HETATM   28  H2  UNL     1     -11.762  15.618  64.484  1.00  0.00     0.000 HD 
HETATM   29  H1  UNL     1     -11.674  16.733  63.240  1.00  0.00     0.000 HD 
ENDBRANCH  20  26
ENDBRANCH  16  17
ENDBRANCH   8  16
BRANCH  10  30
HETATM   30  O   UNL     1     -10.193  10.282  67.648  1.00  0.00    -0.184 OA 
BRANCH  30  31
HETATM   31  C   UNL     1     -10.549   9.470  66.513  1.00  0.00    -0.062 C  
HETATM   32  O   UNL     1     -10.951   7.582  68.035  1.00  0.00    -0.453 OA 
HETATM   33  C   UNL     1      -8.269   8.040  65.345  1.00  0.00    -0.151 C  
HETATM   34  C   UNL     1     -10.467   7.914  66.723  1.00  0.00    -0.247 C  
HETATM   35  O   UNL     1      -9.790   9.880  65.386  1.00  0.00    -0.293 OA 
HETATM   36  O   UNL     1      -8.758   7.730  64.024  1.00  0.00    -0.322 OA 
HETATM   37  C   UNL     1      -9.080   7.253  66.437  1.00  0.00    -0.158 C  
HETATM   38  H   UNL     1      -8.667   6.795  63.881  1.00  0.00     0.000 HD 
HETATM   39  C   UNL     1      -6.783   7.675  65.351  1.00  0.00    -0.045 C  
HETATM   40  H   UNL     1     -10.901   6.642  68.161  1.00  0.00     0.000 HD 
HETATM   41  C   UNL     1      -8.416   9.539  65.574  1.00  0.00    -0.140 C  
BRANCH  37  42
HETATM   42  N   UNL     1      -9.171   5.829  66.002  1.00  0.00    -0.196 NA 
HETATM   43  H   UNL     1      -9.485   5.600  65.059  1.00  0.00     0.000 HD 
HETATM   44  C   UNL     1      -8.813   4.776  66.921  1.00  0.00    -0.110 C  
ENDBRANCH  37  42
ENDBRANCH  30  31
ENDBRANCH  10  30
ENDBRANCH   3   5
ENDBRANCH   2   3
TORSDOF 8
ENDMDL
MODEL       32
REMARK 921   NORMALIZED FREE ENERGY PREDICTED BY IDOCK:   -6.84 KCAL/MOL
REMARK 922        TOTAL FREE ENERGY PREDICTED BY IDOCK:  -10.78 KCAL/MOL
REMARK 923 INTER-LIGAND FREE ENERGY PREDICTED BY IDOCK:   -9.31 KCAL/MOL
REMARK 924 INTRA-LIGAND FREE ENERGY PREDICTED BY IDOCK:   -1.46 KCAL/MOL
REMARK 927      BINDING AFFINITY PREDICTED BY RF-SCORE:    0.00 PKD
ROOT
HETATM    1  C   UNL     1     -10.432   5.120  67.201  1.00  0.00    -0.224 C  
HETATM    2  C   UNL     1      -8.930   5.087  66.956  1.00  0.00    -0.112 C  
ENDROOT
BRANCH   2   3
HETATM    3  N   UNL     1      -8.299   6.286  67.516  1.00  0.00    -0.113 NA 
HETATM    4  H   UNL     1      -7.367   6.408  67.119  1.00  0.00     0.000 HD 
BRANCH   3   5
HETATM    5  C   UNL     1      -9.082   7.545  67.376  1.00  0.00    -0.126 C  
HETATM    6  C   UNL     1      -9.000   8.103  65.948  1.00  0.00    -0.195 C  
HETATM    7  C   UNL     1      -9.840   9.373  65.783  1.00  0.00    -0.275 C  
HETATM    8  C   UNL     1      -9.306  10.502  66.707  1.00  0.00    -0.157 C  
HETATM    9  N   UNL     1      -9.807   9.769  64.360  1.00  0.00    -0.411 NA 
HETATM   10  C   UNL     1      -8.737   8.593  68.474  1.00  0.00    -0.139 C  
HETATM   11  H2  UNL     1     -10.104   9.018  63.736  1.00  0.00     0.000 HD 
HETATM   12  H1  UNL     1     -10.367  10.614  64.250  1.00  0.00     0.000 HD 
HETATM   13  C   UNL     1      -9.206  10.033  68.183  1.00  0.00    -0.128 C  
HETATM   14  H   UNL     1      -8.234  10.590  69.837  1.00  0.00     0.000 HD 
HETATM   15  O   UNL     1      -8.296  10.877  68.934  1.00  0.00    -0.145 OA 
BRANCH   8  16
HETATM   16  O   UNL     1     -10.205  11.653  66.599  1.00  0.00    -0.208 OA 
BRANCH  16  17
HETATM   17  C   UNL     1      -9.648  12.777  65.879  1.00  0.00    -0.136 C  
HETATM   18  H1  UNL     1     -10.073  14.856  68.629  1.00  0.00     0.000 HD 
HETATM   19  O   UNL     1     -10.207  12.825  64.560  1.00  0.00    -0.334 OA 
HETATM   20  C   UNL     1     -11.279  13.671  64.375  1.00  0.00    -0.367 C  
HETATM   21  H2  UNL     1      -9.554  13.266  68.581  1.00  0.00     0.000 HD 
HETATM   22  N   UNL     1     -10.087  13.987  68.095  1.00  0.00    -0.238 NA 
HETATM   23  C   UNL     1     -11.340  14.850  65.009  1.00  0.00    -0.398 C  
HETATM   24  C   UNL     1      -9.626  14.111  66.698  1.00  0.00    -0.289 C  
HETATM   25  C   UNL     1     -10.259  15.281  65.938  1.00  0.00    -0.353 C  
BRANCH  20  26
HETATM   26  C   UNL     1     -12.278  13.159  63.364  1.00  0.00    -0.444 C  
HETATM   27  N   UNL     1     -12.191  11.728  63.078  1.00  0.00    -0.916 NA 
HETATM   28  H2  UNL     1     -12.259  11.192  63.943  1.00  0.00     0.000 HD 
HETATM   29  H1  UNL     1     -12.866  11.382  62.396  1.00  0.00     0.000 HD 
ENDBRANCH  20  26
ENDBRANCH  16  17
ENDBRANCH   8  16
BRANCH  10  30
HETATM   30  O   UNL     1      -9.062   8.150  69.838  1.00  0.00    -0.149 OA 
BRANCH  30  31
HETATM   31  C   UNL     1     -10.317   7.467  70.019  1.00  0.00    -0.219 C  
HETATM   32  O   UNL     1     -11.394   9.633  70.452  1.00  0.00    -0.251 OA 
HETATM   33  C   UNL     1     -10.815   6.666  72.797  1.00  0.00    -0.251 C  
HETATM   34  C   UNL     1     -11.419   8.245  70.826  1.00  0.00    -0.252 C  
HETATM   35  O   UNL     1     -10.077   6.184  70.579  1.00  0.00    -0.180 OA 
HETATM   36  O   UNL     1     -11.811   5.636  72.635  1.00  0.00    -0.437 OA 
HETATM   37  C   UNL     1     -11.391   8.067  72.379  1.00  0.00    -0.382 C  
HETATM   38  H   UNL     1     -12.559   5.852  73.180  1.00  0.00     0.000 HD 
HETATM   39  C   UNL     1     -10.392   6.629  74.267  1.00  0.00    -0.282 C  
HETATM   40  H   UNL     1     -12.060  10.103  70.940  1.00  0.00     0.000 HD 
HETATM   41  C   UNL     1      -9.616   6.319  71.923  1.00  0.00    -0.152 C  
BRANCH  37  42
HETATM   42  N   UNL     1     -12.725   8.226  73.027  1.00  0.00    -0.571 NA 
HETATM   43  H   UNL     1     -12.902   7.811  73.941  1.00  0.00     0.000 HD 
HETATM   44  C   UNL     1     -13.763   8.969  72.355  1.00  0.00    -0.479 C  
ENDBRANCH  37  42
ENDBRANCH  30  31
ENDBRANCH  10  30
ENDBRANCH   3   5
ENDBRANCH   2   3
TORSDOF 8
ENDMDL
MODEL       33
REMARK 921   NORMALIZED FREE ENERGY PREDICTED BY IDOCK:   -6.83 KCAL/MOL
REMARK 922        TOTAL FREE ENERGY PREDICTED BY IDOCK:  -10.76 KCAL/MOL
REMARK 923 INTER-LIGAND FREE ENERGY PREDICTED BY IDOCK:   -8.60 KCAL/MOL
REMARK 924 INTRA-LIGAND FREE ENERGY PREDICTED BY IDOCK:   -2.16 KCAL/MOL
REMARK 927      BINDING AFFINITY PREDICTED BY RF-SCORE:    0.00 PKD
ROOT
HETATM    1  C   UNL     1     -13.643   9.323  72.249  1.00  0.00    -0.544 C  
HETATM    2  C   UNL     1     -12.909  10.166  71.215  1.00  0.00    -0.410 C  
ENDROOT
BRANCH   2   3
HETATM    3  N   UNL     1     -11.470   9.890  71.265  1.00  0.00    -0.375 NA 
HETATM    4  H   UNL     1     -11.209   9.565  72.196  1.00  0.00     0.000 HD 
BRANCH   3   5
HETATM    5  C   UNL     1     -10.964   8.944  70.233  1.00  0.00    -0.241 C  
HETATM    6  C   UNL     1     -10.762   7.535  70.813  1.00  0.00    -0.238 C  
HETATM    7  C   UNL     1     -10.286   6.544  69.747  1.00  0.00    -0.195 C  
HETATM    8  C   UNL     1      -8.902   6.971  69.186  1.00  0.00    -0.135 C  
HETATM    9  N   UNL     1     -10.240   5.198  70.354  1.00  0.00    -0.259 NA 
HETATM   10  C   UNL     1      -9.719   9.489  69.475  1.00  0.00    -0.190 C  
HETATM   11  H2  UNL     1     -11.128   4.926  70.775  1.00  0.00     0.000 HD 
HETATM   12  H1  UNL     1      -9.923   4.538  69.645  1.00  0.00     0.000 HD 
HETATM   13  C   UNL     1      -8.918   8.438  68.681  1.00  0.00    -0.140 C  
HETATM   14  H   UNL     1      -7.582   9.874  68.299  1.00  0.00     0.000 HD 
HETATM   15  O   UNL     1      -7.572   8.976  68.608  1.00  0.00    -0.089 OA 
BRANCH   8  16
HETATM   16  O   UNL     1      -8.542   6.061  68.097  1.00  0.00    -0.115 OA 
BRANCH  16  17
HETATM   17  C   UNL     1      -9.490   6.034  67.005  1.00  0.00    -0.127 C  
HETATM   18  H1  UNL     1     -10.016   2.627  67.435  1.00  0.00     0.000 HD 
HETATM   19  O   UNL     1      -8.967   6.779  65.899  1.00  0.00    -0.147 OA 
HETATM   20  C   UNL     1      -8.329   6.056  64.915  1.00  0.00    -0.104 C  
HETATM   21  H2  UNL     1      -9.841   3.820  68.595  1.00  0.00     0.000 HD 
HETATM   22  N   UNL     1      -9.636   3.553  67.632  1.00  0.00    -0.182 NA 
HETATM   23  C   UNL     1      -8.768   4.841  64.562  1.00  0.00    -0.153 C  
HETATM   24  C   UNL     1     -10.073   4.613  66.702  1.00  0.00    -0.234 C  
HETATM   25  C   UNL     1      -9.953   4.228  65.224  1.00  0.00    -0.229 C  
BRANCH  20  26
HETATM   26  C   UNL     1      -7.183   6.803  64.272  1.00  0.00    -0.070 C  
HETATM   27  N   UNL     1      -7.115   8.227  64.592  1.00  0.00    -0.078 NA 
HETATM   28  H2  UNL     1      -7.098   8.360  65.603  1.00  0.00     0.000 HD 
HETATM   29  H1  UNL     1      -6.342   8.731  64.158  1.00  0.00     0.000 HD 
ENDBRANCH  20  26
ENDBRANCH  16  17
ENDBRANCH   8  16
BRANCH  10  30
HETATM   30  O   UNL     1      -9.986  10.711  68.701  1.00  0.00    -0.166 OA 
BRANCH  30  31
HETATM   31  C   UNL     1     -10.741  10.559  67.484  1.00  0.00    -0.276 C  
HETATM   32  O   UNL     1      -8.643  10.668  66.210  1.00  0.00    -0.142 OA 
HETATM   33  C   UNL     1     -11.583  13.114  66.313  1.00  0.00    -0.356 C  
HETATM   34  C   UNL     1     -10.031  11.036  66.166  1.00  0.00    -0.231 C  
HETATM   35  O   UNL     1     -12.010  11.175  67.640  1.00  0.00    -0.613 OA 
HETATM   36  O   UNL     1     -12.668  12.703  65.455  1.00  0.00    -0.597 OA 
HETATM   37  C   UNL     1     -10.216  12.542  65.790  1.00  0.00    -0.270 C  
HETATM   38  H   UNL     1     -12.498  13.028  64.578  1.00  0.00     0.000 HD 
HETATM   39  C   UNL     1     -11.604  14.643  66.332  1.00  0.00    -0.343 C  
HETATM   40  H   UNL     1      -8.214  10.957  65.413  1.00  0.00     0.000 HD 
HETATM   41  C   UNL     1     -11.857  12.593  67.718  1.00  0.00    -0.323 C  
BRANCH  37  42
HETATM   42  N   UNL     1     -10.136  12.812  64.326  1.00  0.00    -0.590 NA 
HETATM   43  H   UNL     1     -10.076  13.771  63.984  1.00  0.00     0.000 HD 
HETATM   44  C   UNL     1     -10.146  11.711  63.394  1.00  0.00    -0.440 C  
ENDBRANCH  37  42
ENDBRANCH  30  31
ENDBRANCH  10  30
ENDBRANCH   3   5
ENDBRANCH   2   3
TORSDOF 8
ENDMDL
MODEL       34
REMARK 921   NORMALIZED FREE ENERGY PREDICTED BY IDOCK:   -6.82 KCAL/MOL
REMARK 922        TOTAL FREE ENERGY PREDICTED BY IDOCK:  -10.76 KCAL/MOL
REMARK 923 INTER-LIGAND FREE ENERGY PREDICTED BY IDOCK:   -9.06 KCAL/MOL
REMARK 924 INTRA-LIGAND FREE ENERGY PREDICTED BY IDOCK:   -1.69 KCAL/MOL
REMARK 927      BINDING AFFINITY PREDICTED BY RF-SCORE:    0.00 PKD
ROOT
HETATM    1  C   UNL     1      -9.801  11.459  63.383  1.00  0.00    -0.422 C  
HETATM    2  C   UNL     1     -10.383  10.742  64.594  1.00  0.00    -0.324 C  
ENDROOT
BRANCH   2   3
HETATM    3  N   UNL     1     -10.095  11.497  65.816  1.00  0.00    -0.227 NA 
HETATM    4  H   UNL     1     -10.838  12.173  65.993  1.00  0.00     0.000 HD 
BRANCH   3   5
HETATM    5  C   UNL     1      -9.854  10.675  67.034  1.00  0.00    -0.185 C  
HETATM    6  C   UNL     1      -9.933   9.173  66.724  1.00  0.00    -0.322 C  
HETATM    7  C   UNL     1      -9.639   8.320  67.962  1.00  0.00    -0.153 C  
HETATM    8  C   UNL     1     -10.702   8.579  69.065  1.00  0.00    -0.092 C  
HETATM    9  N   UNL     1      -9.612   6.901  67.550  1.00  0.00    -0.126 NA 
HETATM   10  C   UNL     1     -10.738  11.110  68.239  1.00  0.00    -0.196 C  
HETATM   11  H2  UNL     1      -8.958   6.726  66.787  1.00  0.00     0.000 HD 
HETATM   12  H1  UNL     1      -9.417   6.333  68.373  1.00  0.00     0.000 HD 
HETATM   13  C   UNL     1     -10.829  10.090  69.392  1.00  0.00    -0.239 C  
HETATM   14  H   UNL     1     -12.175  11.301  70.238  1.00  0.00     0.000 HD 
HETATM   15  O   UNL     1     -12.097  10.376  70.038  1.00  0.00    -0.267 OA 
BRANCH   8  16
HETATM   16  O   UNL     1     -10.317   7.829  70.263  1.00  0.00    -0.207 OA 
BRANCH  16  17
HETATM   17  C   UNL     1     -11.227   6.762  70.615  1.00  0.00    -0.312 C  
HETATM   18  H1  UNL     1     -11.319   7.818  73.923  1.00  0.00     0.000 HD 
HETATM   19  O   UNL     1     -10.778   5.536  70.025  1.00  0.00    -0.313 OA 
HETATM   20  C   UNL     1     -10.028   4.704  70.826  1.00  0.00    -0.214 C  
HETATM   21  H2  UNL     1     -11.327   8.736  72.525  1.00  0.00     0.000 HD 
HETATM   22  N   UNL     1     -11.066   7.840  72.935  1.00  0.00    -0.396 NA 
HETATM   23  C   UNL     1     -10.298   4.583  72.133  1.00  0.00    -0.233 C  
HETATM   24  C   UNL     1     -11.614   6.729  72.132  1.00  0.00    -0.288 C  
HETATM   25  C   UNL     1     -11.409   5.348  72.764  1.00  0.00    -0.358 C  
BRANCH  20  26
HETATM   26  C   UNL     1      -8.973   3.933  70.067  1.00  0.00    -0.100 C  
HETATM   27  N   UNL     1      -9.080   4.007  68.612  1.00  0.00    -0.122 NA 
HETATM   28  H2  UNL     1      -9.090   4.981  68.309  1.00  0.00     0.000 HD 
HETATM   29  H1  UNL     1      -8.368   3.487  68.099  1.00  0.00     0.000 HD 
ENDBRANCH  20  26
ENDBRANCH  16  17
ENDBRANCH   8  16
BRANCH  10  30
HETATM   30  O   UNL     1     -10.472  12.479  68.705  1.00  0.00    -0.213 OA 
BRANCH  30  31
HETATM   31  C   UNL     1     -11.422  13.492  68.326  1.00  0.00    -0.310 C  
HETATM   32  O   UNL     1      -9.565  14.876  67.503  1.00  0.00    -0.202 OA 
HETATM   33  C   UNL     1     -11.941  15.453  70.446  1.00  0.00    -0.354 C  
HETATM   34  C   UNL     1     -10.850  14.945  68.144  1.00  0.00    -0.256 C  
HETATM   35  O   UNL     1     -12.513  13.477  69.234  1.00  0.00    -0.179 OA 
HETATM   36  O   UNL     1     -13.204  16.012  70.029  1.00  0.00    -0.567 OA 
HETATM   37  C   UNL     1     -10.804  15.833  69.430  1.00  0.00    -0.269 C  
HETATM   38  H   UNL     1     -13.114  16.958  69.985  1.00  0.00     0.000 HD 
HETATM   39  C   UNL     1     -11.670  15.997  71.850  1.00  0.00    -0.594 C  
HETATM   40  H   UNL     1      -9.220  15.753  67.393  1.00  0.00     0.000 HD 
HETATM   41  C   UNL     1     -12.085  13.938  70.516  1.00  0.00    -0.356 C  
BRANCH  37  42
HETATM   42  N   UNL     1     -10.904  17.295  69.155  1.00  0.00    -0.313 NA 
HETATM   43  H   UNL     1     -11.782  17.788  69.320  1.00  0.00     0.000 HD 
HETATM   44  C   UNL     1      -9.756  18.010  68.655  1.00  0.00    -0.350 C  
ENDBRANCH  37  42
ENDBRANCH  30  31
ENDBRANCH  10  30
ENDBRANCH   3   5
ENDBRANCH   2   3
TORSDOF 8
ENDMDL
MODEL       35
REMARK 921   NORMALIZED FREE ENERGY PREDICTED BY IDOCK:   -6.81 KCAL/MOL
REMARK 922        TOTAL FREE ENERGY PREDICTED BY IDOCK:  -10.74 KCAL/MOL
REMARK 923 INTER-LIGAND FREE ENERGY PREDICTED BY IDOCK:   -8.54 KCAL/MOL
REMARK 924 INTRA-LIGAND FREE ENERGY PREDICTED BY IDOCK:   -2.20 KCAL/MOL
REMARK 927      BINDING AFFINITY PREDICTED BY RF-SCORE:    0.00 PKD
ROOT
HETATM    1  C   UNL     1      -9.635  10.484  63.458  1.00  0.00    -0.374 C  
HETATM    2  C   UNL     1     -10.465  11.759  63.524  1.00  0.00    -0.449 C  
ENDROOT
BRANCH   2   3
HETATM    3  N   UNL     1     -11.188  11.828  64.797  1.00  0.00    -0.297 NA 
HETATM    4  H   UNL     1     -11.065  10.959  65.316  1.00  0.00     0.000 HD 
BRANCH   3   5
HETATM    5  C   UNL     1     -10.848  12.991  65.663  1.00  0.00    -0.273 C  
HETATM    6  C   UNL     1     -10.817  14.300  64.860  1.00  0.00    -0.429 C  
HETATM    7  C   UNL     1     -10.515  15.508  65.752  1.00  0.00    -0.361 C  
HETATM    8  C   UNL     1      -9.106  15.373  66.392  1.00  0.00    -0.314 C  
HETATM    9  N   UNL     1     -10.628  16.731  64.930  1.00  0.00    -0.666 NA 
HETATM   10  C   UNL     1      -9.569  12.754  66.516  1.00  0.00    -0.257 C  
HETATM   11  H2  UNL     1     -11.530  16.806  64.459  1.00  0.00     0.000 HD 
HETATM   12  H1  UNL     1     -10.427  17.535  65.523  1.00  0.00     0.000 HD 
HETATM   13  C   UNL     1      -8.943  14.020  67.134  1.00  0.00    -0.232 C  
HETATM   14  H   UNL     1      -7.441  12.863  67.765  1.00  0.00     0.000 HD 
HETATM   15  O   UNL     1      -7.541  13.691  67.311  1.00  0.00    -0.152 OA 
BRANCH   8  16
HETATM   16  O   UNL     1      -8.909  16.489  67.319  1.00  0.00    -0.187 OA 
BRANCH  16  17
HETATM   17  C   UNL     1      -7.865  17.411  66.927  1.00  0.00    -0.226 C  
HETATM   18  H1  UNL     1      -6.292  17.069  70.005  1.00  0.00     0.000 HD 
HETATM   19  O   UNL     1      -8.450  18.551  66.284  1.00  0.00    -0.369 OA 
HETATM   20  C   UNL     1      -8.666  19.660  67.071  1.00  0.00    -0.316 C  
HETATM   21  H2  UNL     1      -7.016  15.896  69.056  1.00  0.00     0.000 HD 
HETATM   22  N   UNL     1      -6.984  16.891  69.277  1.00  0.00    -0.233 NA 
HETATM   23  C   UNL     1      -7.801  19.995  68.037  1.00  0.00    -0.279 C  
HETATM   24  C   UNL     1      -6.803  17.684  68.045  1.00  0.00    -0.193 C  
HETATM   25  C   UNL     1      -6.582  19.179  68.297  1.00  0.00    -0.269 C  
BRANCH  20  26
HETATM   26  C   UNL     1      -9.896  20.444  66.676  1.00  0.00    -0.358 C  
HETATM   27  N   UNL     1     -10.729  19.814  65.654  1.00  0.00    -0.437 NA 
HETATM   28  H2  UNL     1     -10.992  18.872  65.946  1.00  0.00     0.000 HD 
HETATM   29  H1  UNL     1     -11.560  20.343  65.387  1.00  0.00     0.000 HD 
ENDBRANCH  20  26
ENDBRANCH  16  17
ENDBRANCH   8  16
BRANCH  10  30
HETATM   30  O   UNL     1      -9.695  11.650  67.479  1.00  0.00    -0.175 OA 
BRANCH  30  31
HETATM   31  C   UNL     1      -8.879  10.486  67.247  1.00  0.00    -0.136 C  
HETATM   32  O   UNL     1     -10.901   9.235  66.627  1.00  0.00    -0.072 OA 
HETATM   33  C   UNL     1      -8.562   8.795  69.623  1.00  0.00    -0.130 C  
HETATM   34  C   UNL     1      -9.624   9.102  67.273  1.00  0.00    -0.154 C  
HETATM   35  O   UNL     1      -7.779  10.497  68.144  1.00  0.00    -0.093 OA 
HETATM   36  O   UNL     1      -7.383   8.034  69.290  1.00  0.00    -0.077 OA 
HETATM   37  C   UNL     1      -9.754   8.416  68.671  1.00  0.00    -0.164 C  
HETATM   38  H   UNL     1      -7.586   7.110  69.380  1.00  0.00     0.000 HD 
HETATM   39  C   UNL     1      -8.873   8.489  71.090  1.00  0.00    -0.223 C  
HETATM   40  H   UNL     1     -11.351   8.398  66.643  1.00  0.00     0.000 HD 
HETATM   41  C   UNL     1      -8.237  10.276  69.478  1.00  0.00    -0.155 C  
BRANCH  37  42
HETATM   42  N   UNL     1      -9.833   6.928  68.606  1.00  0.00    -0.143 NA 
HETATM   43  H   UNL     1      -8.997   6.379  68.406  1.00  0.00     0.000 HD 
HETATM   44  C   UNL     1     -11.097   6.268  68.825  1.00  0.00    -0.346 C  
ENDBRANCH  37  42
ENDBRANCH  30  31
ENDBRANCH  10  30
ENDBRANCH   3   5
ENDBRANCH   2   3
TORSDOF 8
ENDMDL
MODEL       36
REMARK 921   NORMALIZED FREE ENERGY PREDICTED BY IDOCK:   -6.80 KCAL/MOL
REMARK 922        TOTAL FREE ENERGY PREDICTED BY IDOCK:  -10.72 KCAL/MOL
REMARK 923 INTER-LIGAND FREE ENERGY PREDICTED BY IDOCK:   -8.95 KCAL/MOL
REMARK 924 INTRA-LIGAND FREE ENERGY PREDICTED BY IDOCK:   -1.77 KCAL/MOL
REMARK 927      BINDING AFFINITY PREDICTED BY RF-SCORE:    0.00 PKD
ROOT
HETATM    1  C   UNL     1     -12.492  12.473  63.790  1.00  0.00    -0.552 C  
HETATM    2  C   UNL     1     -11.113  12.122  63.247  1.00  0.00    -0.332 C  
ENDROOT
BRANCH   2   3
HETATM    3  N   UNL     1     -10.075  12.531  64.197  1.00  0.00    -0.549 NA 
HETATM    4  H   UNL     1      -9.260  12.882  63.695  1.00  0.00     0.000 HD 
BRANCH   3   5
HETATM    5  C   UNL     1     -10.503  13.517  65.227  1.00  0.00    -0.336 C  
HETATM    6  C   UNL     1     -10.302  14.961  64.742  1.00  0.00    -0.233 C  
HETATM    7  C   UNL     1     -10.783  15.982  65.777  1.00  0.00    -0.301 C  
HETATM    8  C   UNL     1      -9.958  15.859  67.087  1.00  0.00    -0.240 C  
HETATM    9  N   UNL     1     -10.672  17.330  65.183  1.00  0.00    -0.651 NA 
HETATM   10  C   UNL     1      -9.879  13.238  66.625  1.00  0.00    -0.276 C  
HETATM   11  H2  UNL     1     -11.164  17.410  64.294  1.00  0.00     0.000 HD 
HETATM   12  H1  UNL     1     -10.992  18.010  65.872  1.00  0.00     0.000 HD 
HETATM   13  C   UNL     1      -9.959  14.405  67.629  1.00  0.00    -0.224 C  
HETATM   14  H   UNL     1      -8.849  13.300  68.869  1.00  0.00     0.000 HD 
HETATM   15  O   UNL     1      -8.848  14.189  68.537  1.00  0.00    -0.187 OA 
BRANCH   8  16
HETATM   16  O   UNL     1     -10.525  16.773  68.080  1.00  0.00    -0.304 OA 
BRANCH  16  17
HETATM   17  C   UNL     1      -9.593  17.756  68.586  1.00  0.00    -0.322 C  
HETATM   18  H1  UNL     1     -11.492  20.354  67.278  1.00  0.00     0.000 HD 
HETATM   19  O   UNL     1      -8.253  17.331  68.310  1.00  0.00    -0.220 OA 
HETATM   20  C   UNL     1      -7.662  17.849  67.178  1.00  0.00    -0.210 C  
HETATM   21  H2  UNL     1     -12.004  18.957  68.042  1.00  0.00     0.000 HD 
HETATM   22  N   UNL     1     -11.249  19.392  67.512  1.00  0.00    -0.156 NA 
HETATM   23  C   UNL     1      -7.894  19.113  66.801  1.00  0.00    -0.270 C  
HETATM   24  C   UNL     1      -9.966  19.234  68.225  1.00  0.00    -0.410 C  
HETATM   25  C   UNL     1      -8.802  19.996  67.583  1.00  0.00    -0.407 C  
BRANCH  20  26
HETATM   26  C   UNL     1      -6.714  16.886  66.503  1.00  0.00    -0.201 C  
HETATM   27  N   UNL     1      -6.503  15.625  67.213  1.00  0.00    -0.297 NA 
HETATM   28  H2  UNL     1      -7.398  15.170  67.394  1.00  0.00     0.000 HD 
HETATM   29  H1  UNL     1      -5.863  14.974  66.757  1.00  0.00     0.000 HD 
ENDBRANCH  20  26
ENDBRANCH  16  17
ENDBRANCH   8  16
BRANCH  10  30
HETATM   30  O   UNL     1     -10.286  11.951  67.209  1.00  0.00    -0.202 OA 
BRANCH  30  31
HETATM   31  C   UNL     1      -9.269  10.938  67.326  1.00  0.00    -0.151 C  
HETATM   32  O   UNL     1     -10.302   9.736  65.447  1.00  0.00    -0.227 OA 
HETATM   33  C   UNL     1     -10.011   8.749  69.132  1.00  0.00    -0.191 C  
HETATM   34  C   UNL     1      -9.610   9.541  66.692  1.00  0.00    -0.188 C  
HETATM   35  O   UNL     1      -8.889  10.808  68.687  1.00  0.00    -0.139 OA 
HETATM   36  O   UNL     1      -8.726   8.175  69.446  1.00  0.00    -0.140 OA 
HETATM   37  C   UNL     1     -10.362   8.529  67.616  1.00  0.00    -0.253 C  
HETATM   38  H   UNL     1      -8.756   7.244  69.254  1.00  0.00     0.000 HD 
HETATM   39  C   UNL     1     -11.022   8.077  70.064  1.00  0.00    -0.202 C  
HETATM   40  H   UNL     1     -10.508   8.892  65.064  1.00  0.00     0.000 HD 
HETATM   41  C   UNL     1      -9.961  10.240  69.439  1.00  0.00    -0.233 C  
BRANCH  37  42
HETATM   42  N   UNL     1     -10.095   7.099  67.286  1.00  0.00    -0.192 NA 
HETATM   43  H   UNL     1     -10.658   6.362  67.710  1.00  0.00     0.000 HD 
HETATM   44  C   UNL     1      -9.037   6.762  66.365  1.00  0.00    -0.152 C  
ENDBRANCH  37  42
ENDBRANCH  30  31
ENDBRANCH  10  30
ENDBRANCH   3   5
ENDBRANCH   2   3
TORSDOF 8
ENDMDL
MODEL       37
REMARK 921   NORMALIZED FREE ENERGY PREDICTED BY IDOCK:   -6.77 KCAL/MOL
REMARK 922        TOTAL FREE ENERGY PREDICTED BY IDOCK:  -10.67 KCAL/MOL
REMARK 923 INTER-LIGAND FREE ENERGY PREDICTED BY IDOCK:   -8.98 KCAL/MOL
REMARK 924 INTRA-LIGAND FREE ENERGY PREDICTED BY IDOCK:   -1.69 KCAL/MOL
REMARK 927      BINDING AFFINITY PREDICTED BY RF-SCORE:    0.00 PKD
ROOT
HETATM    1  C   UNL     1      -5.423  12.683  68.183  1.00  0.00    -0.073 C  
HETATM    2  C   UNL     1      -6.047  12.001  66.973  1.00  0.00    -0.132 C  
ENDROOT
BRANCH   2   3
HETATM    3  N   UNL     1      -7.506  12.129  67.016  1.00  0.00    -0.308 NA 
HETATM    4  H   UNL     1      -7.878  12.205  66.070  1.00  0.00     0.000 HD 
BRANCH   3   5
HETATM    5  C   UNL     1      -8.222  11.056  67.761  1.00  0.00    -0.117 C  
HETATM    6  C   UNL     1      -7.984   9.677  67.126  1.00  0.00    -0.106 C  
HETATM    7  C   UNL     1      -8.678   8.561  67.913  1.00  0.00    -0.138 C  
HETATM    8  C   UNL     1     -10.218   8.768  67.907  1.00  0.00    -0.219 C  
HETATM    9  N   UNL     1      -8.297   7.266  67.313  1.00  0.00    -0.118 NA 
HETATM   10  C   UNL     1      -9.725  11.383  67.993  1.00  0.00    -0.186 C  
HETATM   11  H2  UNL     1      -7.286   7.140  67.260  1.00  0.00     0.000 HD 
HETATM   12  H1  UNL     1      -8.759   6.523  67.836  1.00  0.00     0.000 HD 
HETATM   13  C   UNL     1     -10.606  10.186  68.403  1.00  0.00    -0.217 C  
HETATM   14  H   UNL     1     -12.180  11.410  68.266  1.00  0.00     0.000 HD 
HETATM   15  O   UNL     1     -11.942  10.542  67.963  1.00  0.00    -0.350 OA 
BRANCH   8  16
HETATM   16  O   UNL     1     -10.826   7.746  68.761  1.00  0.00    -0.114 OA 
BRANCH  16  17
HETATM   17  C   UNL     1     -10.418   7.808  70.147  1.00  0.00    -0.231 C  
HETATM   18  H1  UNL     1      -9.223   4.548  70.029  1.00  0.00     0.000 HD 
HETATM   19  O   UNL     1     -11.461   8.406  70.926  1.00  0.00    -0.268 OA 
HETATM   20  C   UNL     1     -12.322   7.544  71.570  1.00  0.00    -0.339 C  
HETATM   21  H2  UNL     1      -9.096   5.759  68.881  1.00  0.00     0.000 HD 
HETATM   22  N   UNL     1      -9.632   5.414  69.677  1.00  0.00    -0.149 NA 
HETATM   23  C   UNL     1     -11.878   6.394  72.093  1.00  0.00    -0.361 C  
HETATM   24  C   UNL     1      -9.791   6.479  70.687  1.00  0.00    -0.183 C  
HETATM   25  C   UNL     1     -10.444   6.004  71.990  1.00  0.00    -0.251 C  
BRANCH  20  26
HETATM   26  C   UNL     1     -13.735   8.072  71.670  1.00  0.00    -0.356 C  
HETATM   27  N   UNL     1     -13.982   8.969  72.797  1.00  0.00    -0.980 NA 
HETATM   28  H2  UNL     1     -13.317   9.743  72.783  1.00  0.00     0.000 HD 
HETATM   29  H1  UNL     1     -14.935   9.326  72.864  1.00  0.00     0.000 HD 
ENDBRANCH  20  26
ENDBRANCH  16  17
ENDBRANCH   8  16
BRANCH  10  30
HETATM   30  O   UNL     1      -9.950  12.572  68.829  1.00  0.00    -0.145 OA 
BRANCH  30  31
HETATM   31  C   UNL     1     -10.732  13.636  68.251  1.00  0.00    -0.254 C  
HETATM   32  O   UNL     1      -8.674  14.951  67.977  1.00  0.00    -0.157 OA 
HETATM   33  C   UNL     1     -11.703  15.571  70.231  1.00  0.00    -0.346 C  
HETATM   34  C   UNL     1     -10.076  15.064  68.270  1.00  0.00    -0.222 C  
HETATM   35  O   UNL     1     -12.019  13.650  68.849  1.00  0.00    -0.340 OA 
HETATM   36  O   UNL     1     -12.793  16.197  69.523  1.00  0.00    -0.438 OA 
HETATM   37  C   UNL     1     -10.329  15.921  69.553  1.00  0.00    -0.277 C  
HETATM   38  H   UNL     1     -12.659  17.138  69.535  1.00  0.00     0.000 HD 
HETATM   39  C   UNL     1     -11.781  16.072  71.674  1.00  0.00    -0.583 C  
HETATM   40  H   UNL     1      -8.278  15.814  67.988  1.00  0.00     0.000 HD 
HETATM   41  C   UNL     1     -11.918  14.063  70.212  1.00  0.00    -0.339 C  
BRANCH  37  42
HETATM   42  N   UNL     1     -10.299  17.392  69.309  1.00  0.00    -0.304 NA 
HETATM   43  H   UNL     1     -10.190  18.039  70.091  1.00  0.00     0.000 HD 
HETATM   44  C   UNL     1     -10.426  17.898  67.964  1.00  0.00    -0.382 C  
ENDBRANCH  37  42
ENDBRANCH  30  31
ENDBRANCH  10  30
ENDBRANCH   3   5
ENDBRANCH   2   3
TORSDOF 8
ENDMDL
MODEL       38
REMARK 921   NORMALIZED FREE ENERGY PREDICTED BY IDOCK:   -6.74 KCAL/MOL
REMARK 922        TOTAL FREE ENERGY PREDICTED BY IDOCK:  -10.64 KCAL/MOL
REMARK 923 INTER-LIGAND FREE ENERGY PREDICTED BY IDOCK:   -8.70 KCAL/MOL
REMARK 924 INTRA-LIGAND FREE ENERGY PREDICTED BY IDOCK:   -1.93 KCAL/MOL
REMARK 927      BINDING AFFINITY PREDICTED BY RF-SCORE:    0.00 PKD
ROOT
HETATM    1  C   UNL     1     -14.409   7.212  71.756  1.00  0.00    -0.515 C  
HETATM    2  C   UNL     1     -14.112   8.701  71.872  1.00  0.00    -0.443 C  
ENDROOT
BRANCH   2   3
HETATM    3  N   UNL     1     -12.709   8.910  72.244  1.00  0.00    -0.394 NA 
HETATM    4  H   UNL     1     -12.208   8.022  72.230  1.00  0.00     0.000 HD 
BRANCH   3   5
HETATM    5  C   UNL     1     -11.976   9.923  71.435  1.00  0.00    -0.404 C  
HETATM    6  C   UNL     1     -12.731  11.260  71.389  1.00  0.00    -0.501 C  
HETATM    7  C   UNL     1     -11.962  12.321  70.597  1.00  0.00    -0.123 C  
HETATM    8  C   UNL     1     -11.795  11.881  69.117  1.00  0.00    -0.311 C  
HETATM    9  N   UNL     1     -12.691  13.601  70.709  1.00  0.00    -0.298 NA 
HETATM   10  C   UNL     1     -11.568   9.390  70.031  1.00  0.00    -0.009 C  
HETATM   11  H2  UNL     1     -12.856  13.876  71.677  1.00  0.00     0.000 HD 
HETATM   12  H1  UNL     1     -12.179  14.308  70.182  1.00  0.00     0.000 HD 
HETATM   13  C   UNL     1     -11.159  10.469  69.008  1.00  0.00    -0.249 C  
HETATM   14  H   UNL     1     -11.044   9.011  67.647  1.00  0.00     0.000 HD 
HETATM   15  O   UNL     1     -11.433   9.875  67.713  1.00  0.00    -0.121 OA 
BRANCH   8  16
HETATM   16  O   UNL     1     -10.961  12.869  68.430  1.00  0.00    -0.236 OA 
BRANCH  16  17
HETATM   17  C   UNL     1     -11.686  13.735  67.527  1.00  0.00    -0.375 C  
HETATM   18  H1  UNL     1      -9.634  12.825  64.875  1.00  0.00     0.000 HD 
HETATM   19  O   UNL     1     -11.912  15.002  68.157  1.00  0.00    -0.299 OA 
HETATM   20  C   UNL     1     -11.017  16.007  67.862  1.00  0.00    -0.327 C  
HETATM   21  H2  UNL     1     -10.272  11.868  66.090  1.00  0.00     0.000 HD 
HETATM   22  N   UNL     1     -10.003  12.815  65.826  1.00  0.00    -0.266 NA 
HETATM   23  C   UNL     1     -10.497  16.123  66.633  1.00  0.00    -0.300 C  
HETATM   24  C   UNL     1     -11.119  13.751  66.067  1.00  0.00    -0.291 C  
HETATM   25  C   UNL     1     -10.861  15.170  65.549  1.00  0.00    -0.373 C  
BRANCH  20  26
HETATM   26  C   UNL     1     -10.773  16.949  69.018  1.00  0.00    -0.308 C  
HETATM   27  N   UNL     1     -11.270  16.484  70.311  1.00  0.00    -0.469 NA 
HETATM   28  H2  UNL     1     -10.890  15.562  70.523  1.00  0.00     0.000 HD 
HETATM   29  H1  UNL     1     -11.105  17.121  71.091  1.00  0.00     0.000 HD 
ENDBRANCH  20  26
ENDBRANCH  16  17
ENDBRANCH   8  16
BRANCH  10  30
HETATM   30  O   UNL     1     -10.629   8.259  70.076  1.00  0.00    -0.228 OA 
BRANCH  30  31
HETATM   31  C   UNL     1     -11.135   6.975  69.665  1.00  0.00    -0.219 C  
HETATM   32  O   UNL     1     -11.066   6.237  72.008  1.00  0.00    -0.242 OA 
HETATM   33  C   UNL     1      -9.022   5.052  68.999  1.00  0.00    -0.097 C  
HETATM   34  C   UNL     1     -10.883   5.783  70.657  1.00  0.00    -0.267 C  
HETATM   35  O   UNL     1     -10.653   6.675  68.364  1.00  0.00    -0.200 OA 
HETATM   36  O   UNL     1      -9.738   4.093  68.194  1.00  0.00    -0.152 OA 
HETATM   37  C   UNL     1      -9.531   5.018  70.486  1.00  0.00    -0.173 C  
HETATM   38  H   UNL     1      -9.598   3.227  68.562  1.00  0.00     0.000 HD 
HETATM   39  C   UNL     1      -7.540   4.690  68.885  1.00  0.00    -0.064 C  
HETATM   40  H   UNL     1     -10.914   5.516  72.607  1.00  0.00     0.000 HD 
HETATM   41  C   UNL     1      -9.246   6.438  68.409  1.00  0.00    -0.120 C  
BRANCH  37  42
HETATM   42  N   UNL     1      -9.587   3.592  70.919  1.00  0.00    -0.167 NA 
HETATM   43  H   UNL     1      -9.332   2.849  70.268  1.00  0.00     0.000 HD 
HETATM   44  C   UNL     1     -10.003   3.267  72.260  1.00  0.00    -0.165 C  
ENDBRANCH  37  42
ENDBRANCH  30  31
ENDBRANCH  10  30
ENDBRANCH   3   5
ENDBRANCH   2   3
TORSDOF 8
ENDMDL
MODEL       39
REMARK 921   NORMALIZED FREE ENERGY PREDICTED BY IDOCK:   -6.72 KCAL/MOL
REMARK 922        TOTAL FREE ENERGY PREDICTED BY IDOCK:  -10.60 KCAL/MOL
REMARK 923 INTER-LIGAND FREE ENERGY PREDICTED BY IDOCK:   -8.42 KCAL/MOL
REMARK 924 INTRA-LIGAND FREE ENERGY PREDICTED BY IDOCK:   -2.18 KCAL/MOL
REMARK 927      BINDING AFFINITY PREDICTED BY RF-SCORE:    0.00 PKD
ROOT
HETATM    1  C   UNL     1     -13.091   9.322  72.083  1.00  0.00    -0.520 C  
HETATM    2  C   UNL     1     -12.213  10.177  71.180  1.00  0.00    -0.389 C  
ENDROOT
BRANCH   2   3
HETATM    3  N   UNL     1     -10.962   9.475  70.877  1.00  0.00    -0.308 NA 
HETATM    4  H   UNL     1     -10.879   8.642  71.460  1.00  0.00     0.000 HD 
BRANCH   3   5
HETATM    5  C   UNL     1     -10.758   9.120  69.446  1.00  0.00    -0.198 C  
HETATM    6  C   UNL     1     -10.673   7.598  69.251  1.00  0.00    -0.169 C  
HETATM    7  C   UNL     1     -10.511   7.222  67.775  1.00  0.00    -0.228 C  
HETATM    8  C   UNL     1      -9.181   7.794  67.211  1.00  0.00    -0.139 C  
HETATM    9  N   UNL     1     -10.563   5.749  67.665  1.00  0.00    -0.241 NA 
HETATM   10  C   UNL     1      -9.580   9.898  68.794  1.00  0.00    -0.160 C  
HETATM   11  H2  UNL     1     -11.407   5.354  68.081  1.00  0.00     0.000 HD 
HETATM   12  H1  UNL     1     -10.455   5.498  66.683  1.00  0.00     0.000 HD 
HETATM   13  C   UNL     1      -9.066   9.322  67.459  1.00  0.00    -0.120 C  
HETATM   14  H   UNL     1      -7.614  10.692  67.527  1.00  0.00     0.000 HD 
HETATM   15  O   UNL     1      -7.685   9.757  67.375  1.00  0.00    -0.095 OA 
BRANCH   8  16
HETATM   16  O   UNL     1      -9.125   7.505  65.776  1.00  0.00    -0.099 OA 
BRANCH  16  17
HETATM   17  C   UNL     1      -8.073   6.590  65.394  1.00  0.00    -0.129 C  
HETATM   18  H1  UNL     1      -7.205   8.583  62.686  1.00  0.00     0.000 HD 
HETATM   19  O   UNL     1      -8.562   5.244  65.462  1.00  0.00    -0.135 OA 
HETATM   20  C   UNL     1      -9.008   4.690  64.282  1.00  0.00    -0.136 C  
HETATM   21  H2  UNL     1      -7.634   9.042  64.236  1.00  0.00     0.000 HD 
HETATM   22  N   UNL     1      -7.707   8.310  63.530  1.00  0.00    -0.135 NA 
HETATM   23  C   UNL     1      -8.398   4.964  63.121  1.00  0.00    -0.113 C  
HETATM   24  C   UNL     1      -7.301   7.009  64.098  1.00  0.00    -0.090 C  
HETATM   25  C   UNL     1      -7.225   5.880  63.065  1.00  0.00    -0.053 C  
BRANCH  20  26
HETATM   26  C   UNL     1     -10.160   3.731  64.469  1.00  0.00    -0.210 C  
HETATM   27  N   UNL     1     -11.431   4.354  64.836  1.00  0.00    -1.068 NA 
HETATM   28  H2  UNL     1     -11.679   5.073  64.157  1.00  0.00     0.000 HD 
HETATM   29  H1  UNL     1     -12.209   3.706  64.963  1.00  0.00     0.000 HD 
ENDBRANCH  20  26
ENDBRANCH  16  17
ENDBRANCH   8  16
BRANCH  10  30
HETATM   30  O   UNL     1      -9.784  11.354  68.747  1.00  0.00    -0.197 OA 
BRANCH  30  31
HETATM   31  C   UNL     1     -10.442  11.881  67.579  1.00  0.00    -0.209 C  
HETATM   32  O   UNL     1      -8.266  12.669  66.754  1.00  0.00    -0.378 OA 
HETATM   33  C   UNL     1     -11.325  14.661  67.899  1.00  0.00    -0.315 C  
HETATM   34  C   UNL     1      -9.664  12.998  66.793  1.00  0.00    -0.248 C  
HETATM   35  O   UNL     1     -11.748  12.312  67.931  1.00  0.00    -0.333 OA 
HETATM   36  O   UNL     1     -12.323  14.776  66.864  1.00  0.00    -0.403 OA 
HETATM   37  C   UNL     1      -9.896  14.468  67.273  1.00  0.00    -0.236 C  
HETATM   38  H   UNL     1     -12.107  15.524  66.319  1.00  0.00     0.000 HD 
HETATM   39  C   UNL     1     -11.423  15.938  68.736  1.00  0.00    -0.393 C  
HETATM   40  H   UNL     1      -7.796  13.344  66.278  1.00  0.00     0.000 HD 
HETATM   41  C   UNL     1     -11.672  13.462  68.773  1.00  0.00    -0.340 C  
BRANCH  37  42
HETATM   42  N   UNL     1      -9.726  15.486  66.197  1.00  0.00    -0.293 NA 
HETATM   43  H   UNL     1     -10.372  15.511  65.408  1.00  0.00     0.000 HD 
HETATM   44  C   UNL     1      -8.644  16.436  66.276  1.00  0.00    -0.340 C  
ENDBRANCH  37  42
ENDBRANCH  30  31
ENDBRANCH  10  30
ENDBRANCH   3   5
ENDBRANCH   2   3
TORSDOF 8
ENDMDL
MODEL       40
REMARK 921   NORMALIZED FREE ENERGY PREDICTED BY IDOCK:   -6.70 KCAL/MOL
REMARK 922        TOTAL FREE ENERGY PREDICTED BY IDOCK:  -10.58 KCAL/MOL
REMARK 923 INTER-LIGAND FREE ENERGY PREDICTED BY IDOCK:  -10.06 KCAL/MOL
REMARK 924 INTRA-LIGAND FREE ENERGY PREDICTED BY IDOCK:   -0.52 KCAL/MOL
REMARK 927      BINDING AFFINITY PREDICTED BY RF-SCORE:    0.00 PKD
ROOT
HETATM    1  C   UNL     1     -14.185  15.184  71.499  1.00  0.00    -0.647 C  
HETATM    2  C   UNL     1     -12.908  14.501  71.030  1.00  0.00    -0.350 C  
ENDROOT
BRANCH   2   3
HETATM    3  N   UNL     1     -12.538  14.979  69.695  1.00  0.00    -0.605 NA 
HETATM    4  H   UNL     1     -11.818  15.697  69.768  1.00  0.00     0.000 HD 
BRANCH   3   5
HETATM    5  C   UNL     1     -12.112  13.925  68.733  1.00  0.00    -0.309 C  
HETATM    6  C   UNL     1     -12.155  12.529  69.373  1.00  0.00    -0.237 C  
HETATM    7  C   UNL     1     -11.763  11.434  68.377  1.00  0.00    -0.303 C  
HETATM    8  C   UNL     1     -10.299  11.634  67.897  1.00  0.00    -0.188 C  
HETATM    9  N   UNL     1     -11.951  10.123  69.032  1.00  0.00    -0.523 NA 
HETATM   10  C   UNL     1     -10.757  14.252  68.043  1.00  0.00    -0.238 C  
HETATM   11  H2  UNL     1     -12.894  10.000  69.401  1.00  0.00     0.000 HD 
HETATM   12  H1  UNL     1     -11.690   9.394  68.369  1.00  0.00     0.000 HD 
HETATM   13  C   UNL     1     -10.069  13.064  67.341  1.00  0.00    -0.231 C  
HETATM   14  H   UNL     1      -8.518  14.276  67.001  1.00  0.00     0.000 HD 
HETATM   15  O   UNL     1      -8.658  13.400  67.341  1.00  0.00    -0.183 OA 
BRANCH   8  16
HETATM   16  O   UNL     1     -10.009  10.634  66.867  1.00  0.00    -0.189 OA 
BRANCH  16  17
HETATM   17  C   UNL     1      -9.020   9.652  67.252  1.00  0.00    -0.134 C  
HETATM   18  H1  UNL     1      -7.160  10.277  64.386  1.00  0.00     0.000 HD 
HETATM   19  O   UNL     1      -9.678   8.466  67.713  1.00  0.00    -0.152 OA 
HETATM   20  C   UNL     1      -9.835   7.450  66.795  1.00  0.00    -0.220 C  
HETATM   21  H2  UNL     1      -7.952  11.361  65.384  1.00  0.00     0.000 HD 
HETATM   22  N   UNL     1      -7.914  10.394  65.062  1.00  0.00    -0.149 NA 
HETATM   23  C   UNL     1      -8.888   7.198  65.883  1.00  0.00    -0.128 C  
HETATM   24  C   UNL     1      -7.861   9.472  66.214  1.00  0.00    -0.100 C  
HETATM   25  C   UNL     1      -7.639   8.007  65.825  1.00  0.00    -0.083 C  
BRANCH  20  26
HETATM   26  C   UNL     1     -11.107   6.658  66.991  1.00  0.00    -0.325 C  
HETATM   27  N   UNL     1     -11.253   5.497  66.116  1.00  0.00    -0.761 NA 
HETATM   28  H2  UNL     1     -10.442   4.886  66.204  1.00  0.00     0.000 HD 
HETATM   29  H1  UNL     1     -12.112   4.962  66.247  1.00  0.00     0.000 HD 
ENDBRANCH  20  26
ENDBRANCH  16  17
ENDBRANCH   8  16
BRANCH  10  30
HETATM   30  O   UNL     1     -10.794  15.465  67.210  1.00  0.00    -0.306 OA 
BRANCH  30  31
HETATM   31  C   UNL     1      -9.530  15.968  66.738  1.00  0.00    -0.231 C  
HETATM   32  O   UNL     1      -8.673  15.875  69.039  1.00  0.00    -0.206 OA 
HETATM   33  C   UNL     1      -9.352  18.896  66.792  1.00  0.00    -0.322 C  
HETATM   34  C   UNL     1      -8.602  16.632  67.819  1.00  0.00    -0.192 C  
HETATM   35  O   UNL     1      -9.753  16.843  65.642  1.00  0.00    -0.538 OA 
HETATM   36  O   UNL     1      -8.273  19.145  65.867  1.00  0.00    -0.455 OA 
HETATM   37  C   UNL     1      -8.823  18.158  68.075  1.00  0.00    -0.279 C  
HETATM   38  H   UNL     1      -7.621  19.682  66.302  1.00  0.00     0.000 HD 
HETATM   39  C   UNL     1      -9.962  20.260  67.119  1.00  0.00    -0.593 C  
HETATM   40  H   UNL     1      -8.112  16.276  69.692  1.00  0.00     0.000 HD 
HETATM   41  C   UNL     1     -10.396  18.035  66.094  1.00  0.00    -0.366 C  
BRANCH  37  42
HETATM   42  N   UNL     1      -7.602  18.872  68.545  1.00  0.00    -0.312 NA 
HETATM   43  H   UNL     1      -7.670  19.831  68.889  1.00  0.00     0.000 HD 
HETATM   44  C   UNL     1      -6.324  18.204  68.512  1.00  0.00    -0.206 C  
ENDBRANCH  37  42
ENDBRANCH  30  31
ENDBRANCH  10  30
ENDBRANCH   3   5
ENDBRANCH   2   3
TORSDOF 8
ENDMDL
MODEL       41
REMARK 921   NORMALIZED FREE ENERGY PREDICTED BY IDOCK:   -6.67 KCAL/MOL
REMARK 922        TOTAL FREE ENERGY PREDICTED BY IDOCK:  -10.53 KCAL/MOL
REMARK 923 INTER-LIGAND FREE ENERGY PREDICTED BY IDOCK:   -8.77 KCAL/MOL
REMARK 924 INTRA-LIGAND FREE ENERGY PREDICTED BY IDOCK:   -1.76 KCAL/MOL
REMARK 927      BINDING AFFINITY PREDICTED BY RF-SCORE:    0.00 PKD
ROOT
HETATM    1  C   UNL     1     -13.632  13.727  72.081  1.00  0.00    -0.613 C  
HETATM    2  C   UNL     1     -13.134  12.341  71.693  1.00  0.00    -0.306 C  
ENDROOT
BRANCH   2   3
HETATM    3  N   UNL     1     -12.093  12.446  70.667  1.00  0.00    -0.490 NA 
HETATM    4  H   UNL     1     -11.304  12.987  71.023  1.00  0.00     0.000 HD 
BRANCH   3   5
HETATM    5  C   UNL     1     -11.612  11.153  70.107  1.00  0.00    -0.323 C  
HETATM    6  C   UNL     1     -11.562  10.058  71.184  1.00  0.00    -0.460 C  
HETATM    7  C   UNL     1     -11.114   8.712  70.608  1.00  0.00    -0.249 C  
HETATM    8  C   UNL     1      -9.670   8.815  70.044  1.00  0.00    -0.173 C  
HETATM    9  N   UNL     1     -11.214   7.695  71.674  1.00  0.00    -0.243 NA 
HETATM   10  C   UNL     1     -10.287  11.298  69.306  1.00  0.00    -0.070 C  
HETATM   11  H2  UNL     1     -12.144   7.654  72.092  1.00  0.00     0.000 HD 
HETATM   12  H1  UNL     1     -10.916   6.799  71.291  1.00  0.00     0.000 HD 
HETATM   13  C   UNL     1      -9.534   9.981  69.029  1.00  0.00    -0.187 C  
HETATM   14  H   UNL     1      -8.063  11.087  68.251  1.00  0.00     0.000 HD 
HETATM   15  O   UNL     1      -8.146  10.373  68.873  1.00  0.00    -0.111 OA 
BRANCH   8  16
HETATM   16  O   UNL     1      -9.329   7.542  69.407  1.00  0.00    -0.153 OA 
BRANCH  16  17
HETATM   17  C   UNL     1      -8.162   6.892  69.961  1.00  0.00    -0.134 C  
HETATM   18  H1  UNL     1      -6.899   6.266  66.787  1.00  0.00     0.000 HD 
HETATM   19  O   UNL     1      -8.563   6.004  71.012  1.00  0.00    -0.129 OA 
HETATM   20  C   UNL     1      -8.723   4.678  70.673  1.00  0.00    -0.099 C  
HETATM   21  H2  UNL     1      -7.664   7.638  67.364  1.00  0.00     0.000 HD 
HETATM   22  N   UNL     1      -7.542   6.633  67.488  1.00  0.00    -0.103 NA 
HETATM   23  C   UNL     1      -7.910   4.096  69.783  1.00  0.00    -0.052 C  
HETATM   24  C   UNL     1      -7.174   6.329  68.885  1.00  0.00    -0.084 C  
HETATM   25  C   UNL     1      -6.814   4.860  69.125  1.00  0.00    -0.050 C  
BRANCH  20  26
HETATM   26  C   UNL     1      -9.822   3.990  71.449  1.00  0.00    -0.179 C  
HETATM   27  N   UNL     1      -9.696   2.537  71.544  1.00  0.00    -0.150 NA 
HETATM   28  H2  UNL     1      -8.785   2.288  71.928  1.00  0.00     0.000 HD 
HETATM   29  H1  UNL     1     -10.438   2.072  72.067  1.00  0.00     0.000 HD 
ENDBRANCH  20  26
ENDBRANCH  16  17
ENDBRANCH   8  16
BRANCH  10  30
HETATM   30  O   UNL     1     -10.406  12.150  68.113  1.00  0.00    -0.195 OA 
BRANCH  30  31
HETATM   31  C   UNL     1     -10.951  11.539  66.928  1.00  0.00    -0.296 C  
HETATM   32  O   UNL     1      -8.685  11.431  65.984  1.00  0.00    -0.225 OA 
HETATM   33  C   UNL     1     -11.716  13.481  64.866  1.00  0.00    -0.357 C  
HETATM   34  C   UNL     1     -10.065  11.628  65.634  1.00  0.00    -0.240 C  
HETATM   35  O   UNL     1     -12.256  12.047  66.696  1.00  0.00    -0.550 OA 
HETATM   36  O   UNL     1     -12.630  12.711  64.059  1.00  0.00    -0.614 OA 
HETATM   37  C   UNL     1     -10.257  12.906  64.753  1.00  0.00    -0.285 C  
HETATM   38  H   UNL     1     -12.338  12.748  63.155  1.00  0.00     0.000 HD 
HETATM   39  C   UNL     1     -11.810  14.924  64.367  1.00  0.00    -0.372 C  
HETATM   40  H   UNL     1      -8.149  11.485  65.202  1.00  0.00     0.000 HD 
HETATM   41  C   UNL     1     -12.183  13.421  66.314  1.00  0.00    -0.398 C  
BRANCH  37  42
HETATM   42  N   UNL     1      -9.959  12.691  63.308  1.00  0.00    -0.541 NA 
HETATM   43  H   UNL     1      -9.977  13.478  62.659  1.00  0.00     0.000 HD 
HETATM   44  C   UNL     1      -9.647  11.366  62.830  1.00  0.00    -0.339 C  
ENDBRANCH  37  42
ENDBRANCH  30  31
ENDBRANCH  10  30
ENDBRANCH   3   5
ENDBRANCH   2   3
TORSDOF 8
ENDMDL
MODEL       42
REMARK 921   NORMALIZED FREE ENERGY PREDICTED BY IDOCK:   -6.64 KCAL/MOL
REMARK 922        TOTAL FREE ENERGY PREDICTED BY IDOCK:  -10.48 KCAL/MOL
REMARK 923 INTER-LIGAND FREE ENERGY PREDICTED BY IDOCK:   -9.08 KCAL/MOL
REMARK 924 INTRA-LIGAND FREE ENERGY PREDICTED BY IDOCK:   -1.40 KCAL/MOL
REMARK 927      BINDING AFFINITY PREDICTED BY RF-SCORE:    0.00 PKD
ROOT
HETATM    1  C   UNL     1      -9.141  11.088  62.530  1.00  0.00    -0.362 C  
HETATM    2  C   UNL     1      -9.138  10.595  63.971  1.00  0.00    -0.224 C  
ENDROOT
BRANCH   2   3
HETATM    3  N   UNL     1      -9.496  11.688  64.880  1.00  0.00    -0.401 NA 
HETATM    4  H   UNL     1     -10.458  11.982  64.712  1.00  0.00     0.000 HD 
BRANCH   3   5
HETATM    5  C   UNL     1      -9.294  11.406  66.328  1.00  0.00    -0.212 C  
HETATM    6  C   UNL     1      -8.916   9.937  66.568  1.00  0.00    -0.166 C  
HETATM    7  C   UNL     1      -8.661   9.650  68.051  1.00  0.00    -0.119 C  
HETATM    8  C   UNL     1      -9.950   9.894  68.882  1.00  0.00    -0.181 C  
HETATM    9  N   UNL     1      -8.183   8.258  68.178  1.00  0.00    -0.127 NA 
HETATM   10  C   UNL     1     -10.481  11.895  67.208  1.00  0.00    -0.222 C  
HETATM   11  H2  UNL     1      -7.368   8.067  67.594  1.00  0.00     0.000 HD 
HETATM   12  H1  UNL     1      -8.013   8.066  69.164  1.00  0.00     0.000 HD 
HETATM   13  C   UNL     1     -10.530  11.312  68.634  1.00  0.00    -0.203 C  
HETATM   14  H   UNL     1     -12.285  12.240  68.859  1.00  0.00     0.000 HD 
HETATM   15  O   UNL     1     -11.930  11.372  69.011  1.00  0.00    -0.329 OA 
BRANCH   8  16
HETATM   16  O   UNL     1      -9.629   9.716  70.300  1.00  0.00    -0.241 OA 
BRANCH  16  17
HETATM   17  C   UNL     1     -10.635   9.001  71.053  1.00  0.00    -0.271 C  
HETATM   18  H1  UNL     1      -8.365   8.313  73.591  1.00  0.00     0.000 HD 
HETATM   19  O   UNL     1     -11.365   8.135  70.175  1.00  0.00    -0.200 OA 
HETATM   20  C   UNL     1     -10.955   6.821  70.123  1.00  0.00    -0.292 C  
HETATM   21  H2  UNL     1      -8.569   9.723  72.715  1.00  0.00     0.000 HD 
HETATM   22  N   UNL     1      -8.707   8.713  72.717  1.00  0.00    -0.398 NA 
HETATM   23  C   UNL     1     -10.515   6.195  71.223  1.00  0.00    -0.274 C  
HETATM   24  C   UNL     1     -10.110   8.387  72.395  1.00  0.00    -0.316 C  
HETATM   25  C   UNL     1     -10.448   6.899  72.534  1.00  0.00    -0.241 C  
BRANCH  20  26
HETATM   26  C   UNL     1     -11.127   6.193  68.760  1.00  0.00    -0.319 C  
HETATM   27  N   UNL     1     -11.286   7.140  67.658  1.00  0.00    -0.548 NA 
HETATM   28  H2  UNL     1     -10.508   7.799  67.646  1.00  0.00     0.000 HD 
HETATM   29  H1  UNL     1     -11.403   6.717  66.737  1.00  0.00     0.000 HD 
ENDBRANCH  20  26
ENDBRANCH  16  17
ENDBRANCH   8  16
BRANCH  10  30
HETATM   30  O   UNL     1     -10.680  13.352  67.178  1.00  0.00    -0.261 OA 
BRANCH  30  31
HETATM   31  C   UNL     1     -10.124  14.107  68.271  1.00  0.00    -0.241 C  
HETATM   32  O   UNL     1     -12.188  15.438  68.355  1.00  0.00    -0.535 OA 
HETATM   33  C   UNL     1      -8.632  16.480  67.405  1.00  0.00    -0.178 C  
HETATM   34  C   UNL     1     -10.764  15.518  68.533  1.00  0.00    -0.259 C  
HETATM   35  O   UNL     1      -8.717  14.200  68.110  1.00  0.00    -0.165 OA 
HETATM   36  O   UNL     1      -7.813  16.754  68.561  1.00  0.00    -0.206 OA 
HETATM   37  C   UNL     1     -10.151  16.713  67.732  1.00  0.00    -0.275 C  
HETATM   38  H   UNL     1      -7.952  17.658  68.820  1.00  0.00     0.000 HD 
HETATM   39  C   UNL     1      -8.130  17.403  66.293  1.00  0.00    -0.298 C  
HETATM   40  H   UNL     1     -12.575  16.291  68.513  1.00  0.00     0.000 HD 
HETATM   41  C   UNL     1      -8.410  15.031  66.990  1.00  0.00    -0.222 C  
BRANCH  37  42
HETATM   42  N   UNL     1     -10.274  18.028  68.425  1.00  0.00    -0.381 NA 
HETATM   43  H   UNL     1     -10.049  18.107  69.417  1.00  0.00     0.000 HD 
HETATM   44  C   UNL     1     -10.714  19.187  67.688  1.00  0.00    -0.417 C  
ENDBRANCH  37  42
ENDBRANCH  30  31
ENDBRANCH  10  30
ENDBRANCH   3   5
ENDBRANCH   2   3
TORSDOF 8
ENDMDL
MODEL       43
REMARK 921   NORMALIZED FREE ENERGY PREDICTED BY IDOCK:   -6.63 KCAL/MOL
REMARK 922        TOTAL FREE ENERGY PREDICTED BY IDOCK:  -10.46 KCAL/MOL
REMARK 923 INTER-LIGAND FREE ENERGY PREDICTED BY IDOCK:   -8.90 KCAL/MOL
REMARK 924 INTRA-LIGAND FREE ENERGY PREDICTED BY IDOCK:   -1.56 KCAL/MOL
REMARK 927      BINDING AFFINITY PREDICTED BY RF-SCORE:    0.00 PKD
ROOT
HETATM    1  C   UNL     1      -5.875  10.221  64.079  1.00  0.00    -0.142 C  
HETATM    2  C   UNL     1      -7.281  10.116  63.503  1.00  0.00    -0.120 C  
ENDROOT
BRANCH   2   3
HETATM    3  N   UNL     1      -8.214  10.922  64.296  1.00  0.00    -0.364 NA 
HETATM    4  H   UNL     1      -9.037  11.153  63.739  1.00  0.00     0.000 HD 
BRANCH   3   5
HETATM    5  C   UNL     1      -8.630  10.326  65.596  1.00  0.00    -0.161 C  
HETATM    6  C   UNL     1      -8.865   8.813  65.471  1.00  0.00    -0.229 C  
HETATM    7  C   UNL     1      -9.247   8.184  66.814  1.00  0.00    -0.164 C  
HETATM    8  C   UNL     1     -10.586   8.777  67.331  1.00  0.00    -0.233 C  
HETATM    9  N   UNL     1      -9.330   6.720  66.633  1.00  0.00    -0.161 NA 
HETATM   10  C   UNL     1      -9.815  11.087  66.256  1.00  0.00    -0.215 C  
HETATM   11  H2  UNL     1      -8.475   6.323  66.242  1.00  0.00     0.000 HD 
HETATM   12  H1  UNL     1      -9.584   6.301  67.526  1.00  0.00     0.000 HD 
HETATM   13  C   UNL     1     -10.542  10.327  67.383  1.00  0.00    -0.270 C  
HETATM   14  H   UNL     1     -11.856  11.832  67.431  1.00  0.00     0.000 HD 
HETATM   15  O   UNL     1     -11.882  10.883  67.399  1.00  0.00    -0.465 OA 
BRANCH   8  16
HETATM   16  O   UNL     1     -10.851   8.230  68.664  1.00  0.00    -0.083 OA 
BRANCH  16  17
HETATM   17  C   UNL     1     -10.461   9.099  69.752  1.00  0.00    -0.223 C  
HETATM   18  H1  UNL     1      -7.992   6.872  70.757  1.00  0.00     0.000 HD 
HETATM   19  O   UNL     1     -11.633   9.579  70.424  1.00  0.00    -0.258 OA 
HETATM   20  C   UNL     1     -12.020   8.896  71.556  1.00  0.00    -0.333 C  
HETATM   21  H2  UNL     1      -8.435   7.325  69.208  1.00  0.00     0.000 HD 
HETATM   22  N   UNL     1      -8.744   7.245  70.177  1.00  0.00    -0.140 NA 
HETATM   23  C   UNL     1     -11.108   8.392  72.398  1.00  0.00    -0.431 C  
HETATM   24  C   UNL     1      -9.308   8.527  70.643  1.00  0.00    -0.174 C  
HETATM   25  C   UNL     1      -9.650   8.546  72.137  1.00  0.00    -0.382 C  
BRANCH  20  26
HETATM   26  C   UNL     1     -13.518   8.858  71.750  1.00  0.00    -0.397 C  
HETATM   27  N   UNL     1     -13.963   8.920  73.141  1.00  0.00    -1.215 NA 
HETATM   28  H2  UNL     1     -13.569   9.741  73.600  1.00  0.00     0.000 HD 
HETATM   29  H1  UNL     1     -14.974   8.895  73.272  1.00  0.00     0.000 HD 
ENDBRANCH  20  26
ENDBRANCH  16  17
ENDBRANCH   8  16
BRANCH  10  30
HETATM   30  O   UNL     1      -9.499  12.478  66.616  1.00  0.00    -0.230 OA 
BRANCH  30  31
HETATM   31  C   UNL     1      -9.419  12.785  68.020  1.00  0.00    -0.213 C  
HETATM   32  O   UNL     1     -11.649  13.811  67.886  1.00  0.00    -0.301 OA 
HETATM   33  C   UNL     1      -8.244  15.416  68.570  1.00  0.00    -0.145 C  
HETATM   34  C   UNL     1     -10.371  13.926  68.534  1.00  0.00    -0.244 C  
HETATM   35  O   UNL     1      -8.068  13.044  68.369  1.00  0.00    -0.148 OA 
HETATM   36  O   UNL     1      -7.840  15.279  69.948  1.00  0.00    -0.253 OA 
HETATM   37  C   UNL     1      -9.810  15.383  68.445  1.00  0.00    -0.215 C  
HETATM   38  H   UNL     1      -8.218  15.995  70.446  1.00  0.00     0.000 HD 
HETATM   39  C   UNL     1      -7.651  16.738  68.078  1.00  0.00    -0.173 C  
HETATM   40  H   UNL     1     -12.223  14.501  68.196  1.00  0.00     0.000 HD 
HETATM   41  C   UNL     1      -7.638  14.269  67.773  1.00  0.00    -0.165 C  
BRANCH  37  42
HETATM   42  N   UNL     1     -10.372  16.307  69.472  1.00  0.00    -0.282 NA 
HETATM   43  H   UNL     1     -10.152  17.303  69.440  1.00  0.00     0.000 HD 
HETATM   44  C   UNL     1     -11.228  15.789  70.511  1.00  0.00    -0.374 C  
ENDBRANCH  37  42
ENDBRANCH  30  31
ENDBRANCH  10  30
ENDBRANCH   3   5
ENDBRANCH   2   3
TORSDOF 8
ENDMDL
MODEL       44
REMARK 921   NORMALIZED FREE ENERGY PREDICTED BY IDOCK:   -6.62 KCAL/MOL
REMARK 922        TOTAL FREE ENERGY PREDICTED BY IDOCK:  -10.46 KCAL/MOL
REMARK 923 INTER-LIGAND FREE ENERGY PREDICTED BY IDOCK:   -8.82 KCAL/MOL
REMARK 924 INTRA-LIGAND FREE ENERGY PREDICTED BY IDOCK:   -1.64 KCAL/MOL
REMARK 927      BINDING AFFINITY PREDICTED BY RF-SCORE:    0.00 PKD
ROOT
HETATM    1  C   UNL     1      -9.236   9.977  63.071  1.00  0.00    -0.313 C  
HETATM    2  C   UNL     1     -10.193  11.159  63.014  1.00  0.00    -0.214 C  
ENDROOT
BRANCH   2   3
HETATM    3  N   UNL     1     -11.089  11.142  64.174  1.00  0.00    -0.380 NA 
HETATM    4  H   UNL     1     -10.949  10.285  64.711  1.00  0.00     0.000 HD 
BRANCH   3   5
HETATM    5  C   UNL     1     -10.997  12.326  65.072  1.00  0.00    -0.302 C  
HETATM    6  C   UNL     1     -11.048  13.640  64.277  1.00  0.00    -0.332 C  
HETATM    7  C   UNL     1     -11.002  14.864  65.196  1.00  0.00    -0.399 C  
HETATM    8  C   UNL     1      -9.664  14.901  65.986  1.00  0.00    -0.328 C  
HETATM    9  N   UNL     1     -11.181  16.073  64.367  1.00  0.00    -0.924 NA 
HETATM   10  C   UNL     1      -9.797  12.242  66.059  1.00  0.00    -0.248 C  
HETATM   11  H2  UNL     1     -12.029  16.039  63.801  1.00  0.00     0.000 HD 
HETATM   12  H1  UNL     1     -11.150  16.888  64.978  1.00  0.00     0.000 HD 
HETATM   13  C   UNL     1      -9.409  13.569  66.741  1.00  0.00    -0.257 C  
HETATM   14  H   UNL     1      -7.848  12.605  67.532  1.00  0.00     0.000 HD 
HETATM   15  O   UNL     1      -8.004  13.420  67.069  1.00  0.00    -0.102 OA 
BRANCH   8  16
HETATM   16  O   UNL     1      -9.713  16.020  66.928  1.00  0.00    -0.226 OA 
BRANCH  16  17
HETATM   17  C   UNL     1      -8.545  16.873  66.900  1.00  0.00    -0.214 C  
HETATM   18  H1  UNL     1      -7.941  16.299  70.272  1.00  0.00     0.000 HD 
HETATM   19  O   UNL     1      -8.850  18.077  66.185  1.00  0.00    -0.461 OA 
HETATM   20  C   UNL     1      -9.212  19.170  66.941  1.00  0.00    -0.310 C  
HETATM   21  H2  UNL     1      -8.436  15.220  69.092  1.00  0.00     0.000 HD 
HETATM   22  N   UNL     1      -8.406  16.201  69.370  1.00  0.00    -0.169 NA 
HETATM   23  C   UNL     1      -8.639  19.402  68.129  1.00  0.00    -0.374 C  
HETATM   24  C   UNL     1      -7.832  17.023  68.286  1.00  0.00    -0.216 C  
HETATM   25  C   UNL     1      -7.599  18.487  68.675  1.00  0.00    -0.330 C  
BRANCH  20  26
HETATM   26  C   UNL     1     -10.226  20.060  66.260  1.00  0.00    -0.478 C  
HETATM   27  N   UNL     1     -10.941  19.442  65.146  1.00  0.00    -0.278 NA 
HETATM   28  H2  UNL     1     -11.383  18.574  65.449  1.00  0.00     0.000 HD 
HETATM   29  H1  UNL     1     -11.626  20.043  64.685  1.00  0.00     0.000 HD 
ENDBRANCH  20  26
ENDBRANCH  16  17
ENDBRANCH   8  16
BRANCH  10  30
HETATM   30  O   UNL     1      -9.884  11.118  67.003  1.00  0.00    -0.181 OA 
BRANCH  30  31
HETATM   31  C   UNL     1      -9.988  11.448  68.401  1.00  0.00    -0.204 C  
HETATM   32  O   UNL     1      -7.632  10.812  68.690  1.00  0.00    -0.092 OA 
HETATM   33  C   UNL     1     -10.804   9.179  70.073  1.00  0.00    -0.234 C  
HETATM   34  C   UNL     1      -8.911  10.803  69.346  1.00  0.00     0.041 C  
HETATM   35  O   UNL     1     -11.305  11.169  68.852  1.00  0.00    -0.227 OA 
HETATM   36  O   UNL     1     -11.291   9.844  71.257  1.00  0.00    -0.368 OA 
HETATM   37  C   UNL     1      -9.254   9.389  69.917  1.00  0.00    -0.208 C  
HETATM   38  H   UNL     1     -10.840   9.483  72.012  1.00  0.00     0.000 HD 
HETATM   39  C   UNL     1     -11.178   7.703  70.223  1.00  0.00    -0.230 C  
HETATM   40  H   UNL     1      -6.981  10.422  69.262  1.00  0.00     0.000 HD 
HETATM   41  C   UNL     1     -11.527   9.758  68.863  1.00  0.00     0.155 C  
BRANCH  37  42
HETATM   42  N   UNL     1      -8.618   9.102  71.235  1.00  0.00    -0.320 NA 
HETATM   43  H   UNL     1      -9.182   9.093  72.085  1.00  0.00     0.000 HD 
HETATM   44  C   UNL     1      -7.202   8.837  71.305  1.00  0.00    -0.095 C  
ENDBRANCH  37  42
ENDBRANCH  30  31
ENDBRANCH  10  30
ENDBRANCH   3   5
ENDBRANCH   2   3
TORSDOF 8
ENDMDL
MODEL       45
REMARK 921   NORMALIZED FREE ENERGY PREDICTED BY IDOCK:   -6.57 KCAL/MOL
REMARK 922        TOTAL FREE ENERGY PREDICTED BY IDOCK:  -10.39 KCAL/MOL
REMARK 923 INTER-LIGAND FREE ENERGY PREDICTED BY IDOCK:   -9.42 KCAL/MOL
REMARK 924 INTRA-LIGAND FREE ENERGY PREDICTED BY IDOCK:   -0.96 KCAL/MOL
REMARK 927      BINDING AFFINITY PREDICTED BY RF-SCORE:    0.00 PKD
ROOT
HETATM    1  C   UNL     1     -12.703   8.803  71.564  1.00  0.00    -0.372 C  
HETATM    2  C   UNL     1     -12.812  10.306  71.346  1.00  0.00    -0.441 C  
ENDROOT
BRANCH   2   3
HETATM    3  N   UNL     1     -12.421  10.649  69.975  1.00  0.00    -0.478 NA 
HETATM    4  H   UNL     1     -13.219  10.547  69.348  1.00  0.00     0.000 HD 
BRANCH   3   5
HETATM    5  C   UNL     1     -11.805  11.993  69.803  1.00  0.00    -0.331 C  
HETATM    6  C   UNL     1     -12.642  13.087  70.484  1.00  0.00    -0.220 C  
HETATM    7  C   UNL     1     -11.991  14.467  70.352  1.00  0.00    -0.325 C  
HETATM    8  C   UNL     1     -11.892  14.881  68.858  1.00  0.00    -0.301 C  
HETATM    9  N   UNL     1     -12.790  15.432  71.135  1.00  0.00    -0.423 NA 
HETATM   10  C   UNL     1     -11.455  12.310  68.321  1.00  0.00    -0.315 C  
HETATM   11  H2  UNL     1     -12.910  15.145  72.107  1.00  0.00     0.000 HD 
HETATM   12  H1  UNL     1     -12.357  16.350  71.048  1.00  0.00     0.000 HD 
HETATM   13  C   UNL     1     -11.178  13.795  68.010  1.00  0.00    -0.267 C  
HETATM   14  H   UNL     1     -11.060  13.279  66.083  1.00  0.00     0.000 HD 
HETATM   15  O   UNL     1     -11.497  13.944  66.602  1.00  0.00    -0.328 OA 
BRANCH   8  16
HETATM   16  O   UNL     1     -11.166  16.150  68.776  1.00  0.00    -0.331 OA 
BRANCH  16  17
HETATM   17  C   UNL     1     -10.194  16.212  67.707  1.00  0.00    -0.267 C  
HETATM   18  H1  UNL     1      -7.605  15.479  69.904  1.00  0.00     0.000 HD 
HETATM   19  O   UNL     1     -10.449  17.365  66.895  1.00  0.00    -0.324 OA 
HETATM   20  C   UNL     1      -9.709  18.493  67.176  1.00  0.00    -0.304 C  
HETATM   21  H2  UNL     1      -9.145  14.828  69.836  1.00  0.00     0.000 HD 
HETATM   22  N   UNL     1      -8.566  15.634  69.601  1.00  0.00    -0.175 NA 
HETATM   23  C   UNL     1      -8.428  18.397  67.554  1.00  0.00    -0.260 C  
HETATM   24  C   UNL     1      -8.718  15.974  68.172  1.00  0.00    -0.173 C  
HETATM   25  C   UNL     1      -7.763  17.071  67.692  1.00  0.00    -0.183 C  
BRANCH  20  26
HETATM   26  C   UNL     1     -10.467  19.779  66.940  1.00  0.00    -0.472 C  
HETATM   27  N   UNL     1     -10.198  20.430  65.659  1.00  0.00    -0.452 NA 
HETATM   28  H2  UNL     1     -10.364  19.779  64.892  1.00  0.00     0.000 HD 
HETATM   29  H1  UNL     1     -10.709  21.298  65.500  1.00  0.00     0.000 HD 
ENDBRANCH  20  26
ENDBRANCH  16  17
ENDBRANCH   8  16
BRANCH  10  30
HETATM   30  O   UNL     1     -10.446  11.408  67.744  1.00  0.00    -0.177 OA 
BRANCH  30  31
HETATM   31  C   UNL     1     -10.856  10.606  66.620  1.00  0.00    -0.131 C  
HETATM   32  O   UNL     1     -10.973   8.650  68.104  1.00  0.00    -0.462 OA 
HETATM   33  C   UNL     1      -8.609   9.381  65.185  1.00  0.00    -0.167 C  
HETATM   34  C   UNL     1     -10.646   9.055  66.764  1.00  0.00    -0.131 C  
HETATM   35  O   UNL     1     -10.243  11.103  65.440  1.00  0.00    -0.248 OA 
HETATM   36  O   UNL     1      -9.205   9.075  63.907  1.00  0.00    -0.377 OA 
HETATM   37  C   UNL     1      -9.251   8.505  66.321  1.00  0.00    -0.207 C  
HETATM   38  H   UNL     1      -9.063   8.154  63.722  1.00  0.00     0.000 HD 
HETATM   39  C   UNL     1      -7.109   9.125  65.033  1.00  0.00    -0.092 C  
HETATM   40  H   UNL     1     -10.846   7.713  68.190  1.00  0.00     0.000 HD 
HETATM   41  C   UNL     1      -8.837  10.858  65.482  1.00  0.00    -0.188 C  
BRANCH  37  42
HETATM   42  N   UNL     1      -9.286   7.091  65.845  1.00  0.00    -0.375 NA 
HETATM   43  H   UNL     1      -9.653   6.872  64.919  1.00  0.00     0.000 HD 
HETATM   44  C   UNL     1      -8.798   6.036  66.700  1.00  0.00    -0.125 C  
ENDBRANCH  37  42
ENDBRANCH  30  31
ENDBRANCH  10  30
ENDBRANCH   3   5
ENDBRANCH   2   3
TORSDOF 8
ENDMDL
MODEL       46
REMARK 921   NORMALIZED FREE ENERGY PREDICTED BY IDOCK:   -6.55 KCAL/MOL
REMARK 922        TOTAL FREE ENERGY PREDICTED BY IDOCK:  -10.35 KCAL/MOL
REMARK 923 INTER-LIGAND FREE ENERGY PREDICTED BY IDOCK:   -8.91 KCAL/MOL
REMARK 924 INTRA-LIGAND FREE ENERGY PREDICTED BY IDOCK:   -1.45 KCAL/MOL
REMARK 927      BINDING AFFINITY PREDICTED BY RF-SCORE:    0.00 PKD
ROOT
HETATM    1  C   UNL     1     -14.350   7.676  71.907  1.00  0.00    -0.536 C  
HETATM    2  C   UNL     1     -14.283   9.107  71.391  1.00  0.00    -0.058 C  
ENDROOT
BRANCH   2   3
HETATM    3  N   UNL     1     -13.322   9.885  72.179  1.00  0.00    -0.525 NA 
HETATM    4  H   UNL     1     -12.735   9.259  72.731  1.00  0.00     0.000 HD 
BRANCH   3   5
HETATM    5  C   UNL     1     -12.472  10.828  71.402  1.00  0.00    -0.373 C  
HETATM    6  C   UNL     1     -13.143  12.202  71.259  1.00  0.00    -0.210 C  
HETATM    7  C   UNL     1     -12.255  13.194  70.501  1.00  0.00    -0.328 C  
HETATM    8  C   UNL     1     -11.999  12.697  69.052  1.00  0.00    -0.236 C  
HETATM    9  N   UNL     1     -12.916  14.515  70.519  1.00  0.00    -0.492 NA 
HETATM   10  C   UNL     1     -11.987  10.229  70.051  1.00  0.00    -0.197 C  
HETATM   11  H2  UNL     1     -13.140  14.830  71.463  1.00  0.00     0.000 HD 
HETATM   12  H1  UNL     1     -12.325  15.175  70.014  1.00  0.00     0.000 HD 
HETATM   13  C   UNL     1     -11.439  11.250  69.034  1.00  0.00    -0.302 C  
HETATM   14  H   UNL     1     -11.302   9.744  67.728  1.00  0.00     0.000 HD 
HETATM   15  O   UNL     1     -11.645  10.630  67.739  1.00  0.00    -0.501 OA 
BRANCH   8  16
HETATM   16  O   UNL     1     -11.059  13.615  68.406  1.00  0.00    -0.243 OA 
BRANCH  16  17
HETATM   17  C   UNL     1     -11.678  14.573  67.517  1.00  0.00    -0.386 C  
HETATM   18  H1  UNL     1     -10.059  13.196  64.770  1.00  0.00     0.000 HD 
HETATM   19  O   UNL     1     -11.608  15.881  68.099  1.00  0.00    -0.329 OA 
HETATM   20  C   UNL     1     -10.566  16.684  67.690  1.00  0.00    -0.321 C  
HETATM   21  H2  UNL     1     -10.765  12.421  66.073  1.00  0.00     0.000 HD 
HETATM   22  N   UNL     1     -10.344  13.289  65.744  1.00  0.00    -0.283 NA 
HETATM   23  C   UNL     1     -10.136  16.656  66.423  1.00  0.00    -0.325 C  
HETATM   24  C   UNL     1     -11.240  14.430  66.020  1.00  0.00    -0.333 C  
HETATM   25  C   UNL     1     -10.761  15.754  65.416  1.00  0.00    -0.420 C  
BRANCH  20  26
HETATM   26  C   UNL     1     -10.055  17.600  68.777  1.00  0.00    -0.377 C  
HETATM   27  N   UNL     1     -10.659  18.931  68.800  1.00  0.00    -0.333 NA 
HETATM   28  H2  UNL     1     -11.675  18.855  68.853  1.00  0.00     0.000 HD 
HETATM   29  H1  UNL     1     -10.314  19.550  69.534  1.00  0.00     0.000 HD 
ENDBRANCH  20  26
ENDBRANCH  16  17
ENDBRANCH   8  16
BRANCH  10  30
HETATM   30  O   UNL     1     -11.120   9.050  70.203  1.00  0.00    -0.239 OA 
BRANCH  30  31
HETATM   31  C   UNL     1      -9.724   9.297  70.456  1.00  0.00    -0.260 C  
HETATM   32  O   UNL     1      -9.189   8.297  68.276  1.00  0.00    -0.135 OA 
HETATM   33  C   UNL     1      -8.376   7.070  71.807  1.00  0.00    -0.110 C  
HETATM   34  C   UNL     1      -8.707   8.435  69.623  1.00  0.00    -0.133 C  
HETATM   35  O   UNL     1      -9.473   9.190  71.849  1.00  0.00    -0.332 OA 
HETATM   36  O   UNL     1      -7.211   7.719  72.359  1.00  0.00    -0.072 OA 
HETATM   37  C   UNL     1      -8.311   7.054  70.237  1.00  0.00    -0.133 C  
HETATM   38  H   UNL     1      -6.439   7.244  72.073  1.00  0.00     0.000 HD 
HETATM   39  C   UNL     1      -8.405   5.660  72.401  1.00  0.00    -0.115 C  
HETATM   40  H   UNL     1      -8.574   7.776  67.773  1.00  0.00     0.000 HD 
HETATM   41  C   UNL     1      -9.613   7.831  72.264  1.00  0.00    -0.176 C  
BRANCH  37  42
HETATM   42  N   UNL     1      -6.952   6.586  69.839  1.00  0.00    -0.064 NA 
HETATM   43  H   UNL     1      -6.687   5.610  69.969  1.00  0.00     0.000 HD 
HETATM   44  C   UNL     1      -6.011   7.520  69.270  1.00  0.00    -0.030 C  
ENDBRANCH  37  42
ENDBRANCH  30  31
ENDBRANCH  10  30
ENDBRANCH   3   5
ENDBRANCH   2   3
TORSDOF 8
ENDMDL
MODEL       47
REMARK 921   NORMALIZED FREE ENERGY PREDICTED BY IDOCK:   -6.52 KCAL/MOL
REMARK 922        TOTAL FREE ENERGY PREDICTED BY IDOCK:  -10.32 KCAL/MOL
REMARK 923 INTER-LIGAND FREE ENERGY PREDICTED BY IDOCK:   -8.97 KCAL/MOL
REMARK 924 INTRA-LIGAND FREE ENERGY PREDICTED BY IDOCK:   -1.35 KCAL/MOL
REMARK 927      BINDING AFFINITY PREDICTED BY RF-SCORE:    0.00 PKD
ROOT
HETATM    1  C   UNL     1     -13.574  13.679  72.504  1.00  0.00    -0.675 C  
HETATM    2  C   UNL     1     -13.389  13.629  70.993  1.00  0.00    -0.041 C  
ENDROOT
BRANCH   2   3
HETATM    3  N   UNL     1     -12.129  12.959  70.659  1.00  0.00    -0.508 NA 
HETATM    4  H   UNL     1     -11.441  13.122  71.394  1.00  0.00     0.000 HD 
BRANCH   3   5
HETATM    5  C   UNL     1     -12.235  11.502  70.373  1.00  0.00    -0.355 C  
HETATM    6  C   UNL     1     -11.942  10.661  71.625  1.00  0.00     0.029 C  
HETATM    7  C   UNL     1     -12.096   9.161  71.352  1.00  0.00    -0.337 C  
HETATM    8  C   UNL     1     -11.070   8.696  70.281  1.00  0.00    -0.217 C  
HETATM    9  N   UNL     1     -11.921   8.438  72.628  1.00  0.00    -0.467 NA 
HETATM   10  C   UNL     1     -11.411  11.070  69.126  1.00  0.00    -0.280 C  
HETATM   11  H2  UNL     1     -12.552   8.771  73.358  1.00  0.00     0.000 HD 
HETATM   12  H1  UNL     1     -12.023   7.440  72.446  1.00  0.00     0.000 HD 
HETATM   13  C   UNL     1     -11.160   9.555  68.992  1.00  0.00    -0.027 C  
HETATM   14  H   UNL     1      -9.994   9.975  67.425  1.00  0.00     0.000 HD 
HETATM   15  O   UNL     1      -9.940   9.449  68.213  1.00  0.00    -0.162 OA 
BRANCH   8  16
HETATM   16  O   UNL     1     -11.329   7.288  69.973  1.00  0.00    -0.247 OA 
BRANCH  16  17
HETATM   17  C   UNL     1     -10.207   6.408  70.220  1.00  0.00    -0.195 C  
HETATM   18  H1  UNL     1     -11.797   5.015  72.976  1.00  0.00     0.000 HD 
HETATM   19  O   UNL     1      -8.985   7.148  70.106  1.00  0.00    -0.145 OA 
HETATM   20  C   UNL     1      -8.438   7.621  71.279  1.00  0.00    -0.115 C  
HETATM   21  H2  UNL     1     -12.442   5.441  71.492  1.00  0.00     0.000 HD 
HETATM   22  N   UNL     1     -11.686   5.610  72.155  1.00  0.00    -0.160 NA 
HETATM   23  C   UNL     1      -8.506   6.901  72.406  1.00  0.00    -0.120 C  
HETATM   24  C   UNL     1     -10.378   5.495  71.480  1.00  0.00    -0.222 C  
HETATM   25  C   UNL     1      -9.180   5.573  72.433  1.00  0.00    -0.153 C  
BRANCH  20  26
HETATM   26  C   UNL     1      -7.726   8.944  71.117  1.00  0.00    -0.129 C  
HETATM   27  N   UNL     1      -7.441   9.328  69.736  1.00  0.00    -0.067 NA 
HETATM   28  H2  UNL     1      -8.299   9.320  69.184  1.00  0.00     0.000 HD 
HETATM   29  H1  UNL     1      -6.961  10.222  69.627  1.00  0.00     0.000 HD 
ENDBRANCH  20  26
ENDBRANCH  16  17
ENDBRANCH   8  16
BRANCH  10  30
HETATM   30  O   UNL     1     -11.867  11.688  67.872  1.00  0.00    -0.543 OA 
BRANCH  30  31
HETATM   31  C   UNL     1     -10.984  12.646  67.259  1.00  0.00    -0.256 C  
HETATM   32  O   UNL     1     -12.852  14.239  67.142  1.00  0.00    -0.309 OA 
HETATM   33  C   UNL     1     -10.943  12.483  64.330  1.00  0.00    -0.360 C  
HETATM   34  C   UNL     1     -11.673  13.801  66.445  1.00  0.00    -0.379 C  
HETATM   35  O   UNL     1     -10.022  11.962  66.470  1.00  0.00    -0.197 OA 
HETATM   36  O   UNL     1      -9.701  13.145  64.013  1.00  0.00    -0.671 OA 
HETATM   37  C   UNL     1     -11.974  13.499  64.941  1.00  0.00    -0.379 C  
HETATM   38  H   UNL     1      -9.880  13.837  63.387  1.00  0.00     0.000 HD 
HETATM   39  C   UNL     1     -11.445  11.862  63.025  1.00  0.00    -0.034 C  
HETATM   40  H   UNL     1     -13.268  14.937  66.650  1.00  0.00     0.000 HD 
HETATM   41  C   UNL     1     -10.656  11.373  65.334  1.00  0.00    -0.275 C  
BRANCH  37  42
HETATM   42  N   UNL     1     -11.989  14.714  64.075  1.00  0.00    -0.801 NA 
HETATM   43  H   UNL     1     -12.268  14.642  63.097  1.00  0.00     0.000 HD 
HETATM   44  C   UNL     1     -11.606  15.990  64.626  1.00  0.00    -0.169 C  
ENDBRANCH  37  42
ENDBRANCH  30  31
ENDBRANCH  10  30
ENDBRANCH   3   5
ENDBRANCH   2   3
TORSDOF 8
ENDMDL
MODEL       48
REMARK 921   NORMALIZED FREE ENERGY PREDICTED BY IDOCK:   -6.51 KCAL/MOL
REMARK 922        TOTAL FREE ENERGY PREDICTED BY IDOCK:  -10.30 KCAL/MOL
REMARK 923 INTER-LIGAND FREE ENERGY PREDICTED BY IDOCK:   -8.68 KCAL/MOL
REMARK 924 INTRA-LIGAND FREE ENERGY PREDICTED BY IDOCK:   -1.62 KCAL/MOL
REMARK 927      BINDING AFFINITY PREDICTED BY RF-SCORE:    0.00 PKD
ROOT
HETATM    1  C   UNL     1      -9.126   9.678  64.361  1.00  0.00    -0.279 C  
HETATM    2  C   UNL     1      -8.921   8.761  65.559  1.00  0.00    -0.181 C  
ENDROOT
BRANCH   2   3
HETATM    3  N   UNL     1      -9.964   8.996  66.561  1.00  0.00    -0.269 NA 
HETATM    4  H   UNL     1     -10.722   8.325  66.440  1.00  0.00     0.000 HD 
BRANCH   3   5
HETATM    5  C   UNL     1      -9.504   8.996  67.978  1.00  0.00    -0.142 C  
HETATM    6  C   UNL     1      -9.413   7.569  68.539  1.00  0.00    -0.146 C  
HETATM    7  C   UNL     1      -8.895   7.557  69.980  1.00  0.00    -0.144 C  
HETATM    8  C   UNL     1      -9.874   8.317  70.917  1.00  0.00    -0.182 C  
HETATM    9  N   UNL     1      -8.720   6.150  70.397  1.00  0.00    -0.140 NA 
HETATM   10  C   UNL     1     -10.321   9.968  68.877  1.00  0.00    -0.202 C  
HETATM   11  H2  UNL     1      -8.122   5.623  69.760  1.00  0.00     0.000 HD 
HETATM   12  H1  UNL     1      -8.375   6.141  71.356  1.00  0.00     0.000 HD 
HETATM   13  C   UNL     1     -10.169   9.748  70.395  1.00  0.00    -0.281 C  
HETATM   14  H   UNL     1     -11.578  11.142  70.650  1.00  0.00     0.000 HD 
HETATM   15  O   UNL     1     -11.397  10.266  70.969  1.00  0.00    -0.331 OA 
BRANCH   8  16
HETATM   16  O   UNL     1      -9.284   8.374  72.256  1.00  0.00    -0.213 OA 
BRANCH  16  17
HETATM   17  C   UNL     1     -10.109   7.798  73.295  1.00  0.00    -0.310 C  
HETATM   18  H1  UNL     1      -7.862   5.187  73.747  1.00  0.00     0.000 HD 
HETATM   19  O   UNL     1     -11.480   7.806  72.878  1.00  0.00    -0.378 OA 
HETATM   20  C   UNL     1     -11.961   6.642  72.320  1.00  0.00    -0.222 C  
HETATM   21  H2  UNL     1      -7.552   6.810  73.484  1.00  0.00     0.000 HD 
HETATM   22  N   UNL     1      -8.228   6.057  73.361  1.00  0.00    -0.114 NA 
HETATM   23  C   UNL     1     -11.564   5.447  72.776  1.00  0.00    -0.293 C  
HETATM   24  C   UNL     1      -9.547   6.462  73.888  1.00  0.00    -0.184 C  
HETATM   25  C   UNL     1     -10.585   5.335  73.893  1.00  0.00    -0.335 C  
BRANCH  20  26
HETATM   26  C   UNL     1     -12.994   6.877  71.242  1.00  0.00    -0.244 C  
HETATM   27  N   UNL     1     -13.672   8.170  71.306  1.00  0.00    -0.568 NA 
HETATM   28  H2  UNL     1     -12.988   8.927  71.310  1.00  0.00     0.000 HD 
HETATM   29  H1  UNL     1     -14.369   8.329  70.579  1.00  0.00     0.000 HD 
ENDBRANCH  20  26
ENDBRANCH  16  17
ENDBRANCH   8  16
BRANCH  10  30
HETATM   30  O   UNL     1     -10.196  11.381  68.488  1.00  0.00    -0.195 OA 
BRANCH  30  31
HETATM   31  C   UNL     1     -11.412  12.149  68.426  1.00  0.00    -0.304 C  
HETATM   32  O   UNL     1     -11.590  11.608  66.036  1.00  0.00    -0.362 OA 
HETATM   33  C   UNL     1     -10.972  14.971  67.752  1.00  0.00    -0.298 C  
HETATM   34  C   UNL     1     -11.846  12.644  66.999  1.00  0.00    -0.345 C  
HETATM   35  O   UNL     1     -11.333  13.229  69.345  1.00  0.00    -0.259 OA 
HETATM   36  O   UNL     1     -12.193  15.581  68.219  1.00  0.00    -0.462 OA 
HETATM   37  C   UNL     1     -11.258  14.016  66.537  1.00  0.00    -0.322 C  
HETATM   38  H   UNL     1     -12.574  16.077  67.503  1.00  0.00     0.000 HD 
HETATM   39  C   UNL     1     -10.032  16.119  67.380  1.00  0.00    -0.247 C  
HETATM   40  H   UNL     1     -11.852  11.907  65.173  1.00  0.00     0.000 HD 
HETATM   41  C   UNL     1     -10.362  14.176  68.900  1.00  0.00    -0.199 C  
BRANCH  37  42
HETATM   42  N   UNL     1     -12.127  14.750  65.572  1.00  0.00    -0.206 NA 
HETATM   43  H   UNL     1     -12.831  15.406  65.913  1.00  0.00     0.000 HD 
HETATM   44  C   UNL     1     -11.971  14.528  64.156  1.00  0.00    -0.321 C  
ENDBRANCH  37  42
ENDBRANCH  30  31
ENDBRANCH  10  30
ENDBRANCH   3   5
ENDBRANCH   2   3
TORSDOF 8
ENDMDL
MODEL       49
REMARK 921   NORMALIZED FREE ENERGY PREDICTED BY IDOCK:   -6.50 KCAL/MOL
REMARK 922        TOTAL FREE ENERGY PREDICTED BY IDOCK:  -10.28 KCAL/MOL
REMARK 923 INTER-LIGAND FREE ENERGY PREDICTED BY IDOCK:   -8.81 KCAL/MOL
REMARK 924 INTRA-LIGAND FREE ENERGY PREDICTED BY IDOCK:   -1.47 KCAL/MOL
REMARK 927      BINDING AFFINITY PREDICTED BY RF-SCORE:    0.00 PKD
ROOT
HETATM    1  C   UNL     1     -12.048   9.826  71.579  1.00  0.00    -0.493 C  
HETATM    2  C   UNL     1     -13.139  10.268  70.613  1.00  0.00    -0.226 C  
ENDROOT
BRANCH   2   3
HETATM    3  N   UNL     1     -12.556  10.601  69.310  1.00  0.00    -0.683 NA 
HETATM    4  H   UNL     1     -13.296  10.781  68.632  1.00  0.00     0.000 HD 
BRANCH   3   5
HETATM    5  C   UNL     1     -11.583  11.729  69.314  1.00  0.00    -0.315 C  
HETATM    6  C   UNL     1     -12.266  13.062  68.973  1.00  0.00    -0.086 C  
HETATM    7  C   UNL     1     -11.282  14.234  69.020  1.00  0.00    -0.266 C  
HETATM    8  C   UNL     1     -10.164  14.050  67.958  1.00  0.00    -0.238 C  
HETATM    9  N   UNL     1     -12.040  15.484  68.806  1.00  0.00    -0.584 NA 
HETATM   10  C   UNL     1     -10.320  11.438  68.453  1.00  0.00    -0.195 C  
HETATM   11  H2  UNL     1     -12.813  15.593  69.463  1.00  0.00     0.000 HD 
HETATM   12  H1  UNL     1     -11.385  16.265  68.838  1.00  0.00     0.000 HD 
HETATM   13  C   UNL     1      -9.465  12.671  68.097  1.00  0.00    -0.218 C  
HETATM   14  H   UNL     1      -8.358  11.464  66.952  1.00  0.00     0.000 HD 
HETATM   15  O   UNL     1      -8.786  12.308  66.867  1.00  0.00    -0.196 OA 
BRANCH   8  16
HETATM   16  O   UNL     1      -9.190  15.132  68.117  1.00  0.00    -0.179 OA 
BRANCH  16  17
HETATM   17  C   UNL     1      -8.970  15.916  66.921  1.00  0.00    -0.231 C  
HETATM   18  H1  UNL     1     -10.359  18.730  68.410  1.00  0.00     0.000 HD 
HETATM   19  O   UNL     1      -9.369  15.158  65.773  1.00  0.00    -0.310 OA 
HETATM   20  C   UNL     1     -10.637  15.395  65.287  1.00  0.00    -0.428 C  
HETATM   21  H2  UNL     1      -9.334  17.586  69.073  1.00  0.00     0.000 HD 
HETATM   22  N   UNL     1     -10.024  17.769  68.344  1.00  0.00    -0.341 NA 
HETATM   23  C   UNL     1     -11.157  16.629  65.302  1.00  0.00    -0.036 C  
HETATM   24  C   UNL     1      -9.485  17.391  67.022  1.00  0.00    -0.266 C  
HETATM   25  C   UNL     1     -10.390  17.782  65.850  1.00  0.00    -0.257 C  
BRANCH  20  26
HETATM   26  C   UNL     1     -11.292  14.166  64.700  1.00  0.00    -0.371 C  
HETATM   27  N   UNL     1     -12.311  14.433  63.687  1.00  0.00    -1.106 NA 
HETATM   28  H2  UNL     1     -11.924  15.015  62.943  1.00  0.00     0.000 HD 
HETATM   29  H1  UNL     1     -12.754  13.604  63.290  1.00  0.00     0.000 HD 
ENDBRANCH  20  26
ENDBRANCH  16  17
ENDBRANCH   8  16
BRANCH  10  30
HETATM   30  O   UNL     1      -9.518  10.307  68.941  1.00  0.00    -0.168 OA 
BRANCH  30  31
HETATM   31  C   UNL     1      -9.277   9.231  68.015  1.00  0.00    -0.130 C  
HETATM   32  O   UNL     1     -11.160   8.003  69.008  1.00  0.00    -0.426 OA 
HETATM   33  C   UNL     1      -7.418   7.206  69.041  1.00  0.00    -0.094 C  
HETATM   34  C   UNL     1      -9.862   7.828  68.417  1.00  0.00    -0.168 C  
HETATM   35  O   UNL     1      -7.887   9.151  67.738  1.00  0.00    -0.099 OA 
HETATM   36  O   UNL     1      -6.985   6.559  67.827  1.00  0.00    -0.076 OA 
HETATM   37  C   UNL     1      -8.942   6.928  69.304  1.00  0.00    -0.137 C  
HETATM   38  H   UNL     1      -7.131   5.624  67.916  1.00  0.00     0.000 HD 
HETATM   39  C   UNL     1      -6.528   6.663  70.160  1.00  0.00    -0.040 C  
HETATM   40  H   UNL     1     -11.513   7.155  69.251  1.00  0.00     0.000 HD 
HETATM   41  C   UNL     1      -7.185   8.705  68.898  1.00  0.00    -0.077 C  
BRANCH  37  42
HETATM   42  N   UNL     1      -9.179   5.466  69.126  1.00  0.00    -0.114 NA 
HETATM   43  H   UNL     1      -8.781   4.977  68.324  1.00  0.00     0.000 HD 
HETATM   44  C   UNL     1      -9.973   4.746  70.091  1.00  0.00    -0.251 C  
ENDBRANCH  37  42
ENDBRANCH  30  31
ENDBRANCH  10  30
ENDBRANCH   3   5
ENDBRANCH   2   3
TORSDOF 8
ENDMDL
MODEL       50
REMARK 921   NORMALIZED FREE ENERGY PREDICTED BY IDOCK:   -6.48 KCAL/MOL
REMARK 922        TOTAL FREE ENERGY PREDICTED BY IDOCK:  -10.25 KCAL/MOL
REMARK 923 INTER-LIGAND FREE ENERGY PREDICTED BY IDOCK:   -8.94 KCAL/MOL
REMARK 924 INTRA-LIGAND FREE ENERGY PREDICTED BY IDOCK:   -1.30 KCAL/MOL
REMARK 927      BINDING AFFINITY PREDICTED BY RF-SCORE:    0.00 PKD
ROOT
HETATM    1  C   UNL     1      -7.740   6.820  64.427  1.00  0.00    -0.109 C  
HETATM    2  C   UNL     1      -7.966   6.941  65.928  1.00  0.00    -0.112 C  
ENDROOT
BRANCH   2   3
HETATM    3  N   UNL     1      -7.953   8.350  66.331  1.00  0.00    -0.098 NA 
HETATM    4  H   UNL     1      -7.161   8.829  65.901  1.00  0.00     0.000 HD 
BRANCH   3   5
HETATM    5  C   UNL     1      -9.210   9.103  66.065  1.00  0.00    -0.215 C  
HETATM    6  C   UNL     1      -8.954  10.330  65.177  1.00  0.00    -0.220 C  
HETATM    7  C   UNL     1     -10.249  11.084  64.861  1.00  0.00    -0.311 C  
HETATM    8  C   UNL     1     -10.891  11.633  66.164  1.00  0.00    -0.294 C  
HETATM    9  N   UNL     1      -9.933  12.167  63.907  1.00  0.00    -0.529 NA 
HETATM   10  C   UNL     1     -10.002   9.429  67.364  1.00  0.00    -0.199 C  
HETATM   11  H2  UNL     1      -9.461  11.827  63.069  1.00  0.00     0.000 HD 
HETATM   12  H1  UNL     1     -10.794  12.668  63.696  1.00  0.00     0.000 HD 
HETATM   13  C   UNL     1     -11.088  10.514  67.221  1.00  0.00    -0.213 C  
HETATM   14  H   UNL     1     -11.349  10.391  69.198  1.00  0.00     0.000 HD 
HETATM   15  O   UNL     1     -11.228  11.076  68.551  1.00  0.00    -0.224 OA 
BRANCH   8  16
HETATM   16  O   UNL     1     -12.177  12.246  65.825  1.00  0.00    -0.622 OA 
BRANCH  16  17
HETATM   17  C   UNL     1     -12.260  13.659  66.121  1.00  0.00    -0.444 C  
HETATM   18  H1  UNL     1     -12.587  14.431  62.750  1.00  0.00     0.000 HD 
HETATM   19  O   UNL     1     -11.252  14.008  67.078  1.00  0.00    -0.297 OA 
HETATM   20  C   UNL     1     -10.078  14.527  66.578  1.00  0.00    -0.274 C  
HETATM   21  H2  UNL     1     -13.274  13.174  63.614  1.00  0.00     0.000 HD 
HETATM   22  N   UNL     1     -12.502  13.839  63.575  1.00  0.00    -0.813 NA 
HETATM   23  C   UNL     1     -10.087  15.339  65.513  1.00  0.00    -0.408 C  
HETATM   24  C   UNL     1     -12.391  14.569  64.853  1.00  0.00    -0.370 C  
HETATM   25  C   UNL     1     -11.360  15.703  64.831  1.00  0.00    -0.319 C  
BRANCH  20  26
HETATM   26  C   UNL     1      -8.861  14.143  67.386  1.00  0.00    -0.206 C  
HETATM   27  N   UNL     1      -9.144  13.434  68.633  1.00  0.00    -0.377 NA 
HETATM   28  H2  UNL     1      -9.718  12.611  68.447  1.00  0.00     0.000 HD 
HETATM   29  H1  UNL     1      -8.323  13.174  69.179  1.00  0.00     0.000 HD 
ENDBRANCH  20  26
ENDBRANCH  16  17
ENDBRANCH   8  16
BRANCH  10  30
HETATM   30  O   UNL     1     -10.475   8.237  68.085  1.00  0.00    -0.211 OA 
BRANCH  30  31
HETATM   31  C   UNL     1     -10.368   8.259  69.521  1.00  0.00    -0.219 C  
HETATM   32  O   UNL     1      -7.930   8.474  69.300  1.00  0.00    -0.107 OA 
HETATM   33  C   UNL     1     -10.025   5.596  70.701  1.00  0.00    -0.200 C  
HETATM   34  C   UNL     1      -8.961   7.891  70.115  1.00  0.00    -0.151 C  
HETATM   35  O   UNL     1     -11.393   7.451  70.080  1.00  0.00    -0.255 OA 
HETATM   36  O   UNL     1     -10.425   5.824  72.069  1.00  0.00    -0.205 OA 
HETATM   37  C   UNL     1      -8.698   6.372  70.374  1.00  0.00    -0.147 C  
HETATM   38  H   UNL     1      -9.727   5.524  72.640  1.00  0.00     0.000 HD 
HETATM   39  C   UNL     1      -9.864   4.082  70.546  1.00  0.00    -0.214 C  
HETATM   40  H   UNL     1      -7.080   8.252  69.659  1.00  0.00     0.000 HD 
HETATM   41  C   UNL     1     -11.143   6.077  69.786  1.00  0.00    -0.406 C  
BRANCH  37  42
HETATM   42  N   UNL     1      -7.729   6.109  71.477  1.00  0.00    -0.099 NA 
HETATM   43  H   UNL     1      -7.367   5.167  71.627  1.00  0.00     0.000 HD 
HETATM   44  C   UNL     1      -7.306   7.191  72.332  1.00  0.00    -0.079 C  
ENDBRANCH  37  42
ENDBRANCH  30  31
ENDBRANCH  10  30
ENDBRANCH   3   5
ENDBRANCH   2   3
TORSDOF 8
ENDMDL
MODEL       51
REMARK 921   NORMALIZED FREE ENERGY PREDICTED BY IDOCK:   -6.46 KCAL/MOL
REMARK 922        TOTAL FREE ENERGY PREDICTED BY IDOCK:  -10.22 KCAL/MOL
REMARK 923 INTER-LIGAND FREE ENERGY PREDICTED BY IDOCK:   -9.16 KCAL/MOL
REMARK 924 INTRA-LIGAND FREE ENERGY PREDICTED BY IDOCK:   -1.06 KCAL/MOL
REMARK 927      BINDING AFFINITY PREDICTED BY RF-SCORE:    0.00 PKD
ROOT
HETATM    1  C   UNL     1     -12.331  15.218  71.859  1.00  0.00    -0.427 C  
HETATM    2  C   UNL     1     -12.966  14.882  70.517  1.00  0.00    -0.292 C  
ENDROOT
BRANCH   2   3
HETATM    3  N   UNL     1     -12.058  15.242  69.423  1.00  0.00    -0.500 NA 
HETATM    4  H   UNL     1     -11.212  15.670  69.799  1.00  0.00     0.000 HD 
BRANCH   3   5
HETATM    5  C   UNL     1     -11.702  14.133  68.496  1.00  0.00    -0.345 C  
HETATM    6  C   UNL     1     -11.978  12.761  69.128  1.00  0.00    -0.296 C  
HETATM    7  C   UNL     1     -11.658  11.615  68.163  1.00  0.00    -0.319 C  
HETATM    8  C   UNL     1     -10.148  11.615  67.800  1.00  0.00    -0.187 C  
HETATM    9  N   UNL     1     -12.069  10.346  68.799  1.00  0.00    -0.728 NA 
HETATM   10  C   UNL     1     -10.265  14.273  67.915  1.00  0.00    -0.237 C  
HETATM   11  H2  UNL     1     -13.046  10.352  69.093  1.00  0.00     0.000 HD 
HETATM   12  H1  UNL     1     -11.856   9.583  68.157  1.00  0.00     0.000 HD 
HETATM   13  C   UNL     1      -9.688  12.998  67.267  1.00  0.00    -0.225 C  
HETATM   14  H   UNL     1      -7.967  13.991  67.053  1.00  0.00     0.000 HD 
HETATM   15  O   UNL     1      -8.249  13.144  67.379  1.00  0.00    -0.171 OA 
BRANCH   8  16
HETATM   16  O   UNL     1      -9.913  10.577  66.794  1.00  0.00    -0.189 OA 
BRANCH  16  17
HETATM   17  C   UNL     1      -8.906   9.607  67.164  1.00  0.00    -0.132 C  
HETATM   18  H1  UNL     1      -7.203  10.113  64.178  1.00  0.00     0.000 HD 
HETATM   19  O   UNL     1      -9.540   8.442  67.706  1.00  0.00    -0.149 OA 
HETATM   20  C   UNL     1      -9.749   7.393  66.838  1.00  0.00    -0.205 C  
HETATM   21  H2  UNL     1      -7.939  11.238  65.175  1.00  0.00     0.000 HD 
HETATM   22  N   UNL     1      -7.920  10.259  64.889  1.00  0.00    -0.153 NA 
HETATM   23  C   UNL     1      -8.853   7.101  65.887  1.00  0.00    -0.128 C  
HETATM   24  C   UNL     1      -7.806   9.383  66.072  1.00  0.00    -0.099 C  
HETATM   25  C   UNL     1      -7.607   7.902  65.729  1.00  0.00    -0.083 C  
BRANCH  20  26
HETATM   26  C   UNL     1     -11.010   6.614  67.133  1.00  0.00    -0.408 C  
HETATM   27  N   UNL     1     -11.363   6.521  68.548  1.00  0.00    -0.578 NA 
HETATM   28  H2  UNL     1     -11.421   7.453  68.958  1.00  0.00     0.000 HD 
HETATM   29  H1  UNL     1     -12.214   5.995  68.748  1.00  0.00     0.000 HD 
ENDBRANCH  20  26
ENDBRANCH  16  17
ENDBRANCH   8  16
BRANCH  10  30
HETATM   30  O   UNL     1     -10.076  15.472  67.085  1.00  0.00    -0.246 OA 
BRANCH  30  31
HETATM   31  C   UNL     1     -10.125  16.744  67.758  1.00  0.00    -0.281 C  
HETATM   32  O   UNL     1     -10.193  17.860  65.570  1.00  0.00    -0.576 OA 
HETATM   33  C   UNL     1      -7.475  17.897  68.261  1.00  0.00    -0.260 C  
HETATM   34  C   UNL     1      -9.690  17.993  66.910  1.00  0.00    -0.314 C  
HETATM   35  O   UNL     1      -9.391  16.663  68.971  1.00  0.00    -0.260 OA 
HETATM   36  O   UNL     1      -7.758  18.843  69.313  1.00  0.00    -0.190 OA 
HETATM   37  C   UNL     1      -8.165  18.337  66.920  1.00  0.00    -0.247 C  
HETATM   38  H   UNL     1      -7.432  19.695  69.047  1.00  0.00     0.000 HD 
HETATM   39  C   UNL     1      -5.951  17.835  68.136  1.00  0.00    -0.165 C  
HETATM   40  H   UNL     1      -9.931  18.615  65.057  1.00  0.00     0.000 HD 
HETATM   41  C   UNL     1      -7.998  16.532  68.688  1.00  0.00    -0.232 C  
BRANCH  37  42
HETATM   42  N   UNL     1      -7.873  19.783  66.705  1.00  0.00    -0.278 NA 
HETATM   43  H   UNL     1      -8.131  20.469  67.415  1.00  0.00     0.000 HD 
HETATM   44  C   UNL     1      -7.223  20.210  65.490  1.00  0.00    -0.258 C  
ENDBRANCH  37  42
ENDBRANCH  30  31
ENDBRANCH  10  30
ENDBRANCH   3   5
ENDBRANCH   2   3
TORSDOF 8
ENDMDL
MODEL       52
REMARK 921   NORMALIZED FREE ENERGY PREDICTED BY IDOCK:   -6.43 KCAL/MOL
REMARK 922        TOTAL FREE ENERGY PREDICTED BY IDOCK:  -10.18 KCAL/MOL
REMARK 923 INTER-LIGAND FREE ENERGY PREDICTED BY IDOCK:   -9.29 KCAL/MOL
REMARK 924 INTRA-LIGAND FREE ENERGY PREDICTED BY IDOCK:   -0.89 KCAL/MOL
REMARK 927      BINDING AFFINITY PREDICTED BY RF-SCORE:    0.00 PKD
ROOT
HETATM    1  C   UNL     1      -5.254  10.734  65.790  1.00  0.00    -0.122 C  
HETATM    2  C   UNL     1      -6.126  10.219  64.653  1.00  0.00    -0.125 C  
ENDROOT
BRANCH   2   3
HETATM    3  N   UNL     1      -7.534  10.538  64.909  1.00  0.00    -0.332 NA 
HETATM    4  H   UNL     1      -8.106  10.255  64.113  1.00  0.00     0.000 HD 
BRANCH   3   5
HETATM    5  C   UNL     1      -8.098   9.979  66.168  1.00  0.00    -0.122 C  
HETATM    6  C   UNL     1      -8.252   8.453  66.086  1.00  0.00    -0.113 C  
HETATM    7  C   UNL     1      -8.788   7.864  67.395  1.00  0.00    -0.127 C  
HETATM    8  C   UNL     1     -10.208   8.416  67.698  1.00  0.00    -0.236 C  
HETATM    9  N   UNL     1      -8.787   6.392  67.274  1.00  0.00    -0.109 NA 
HETATM   10  C   UNL     1      -9.392  10.712  66.625  1.00  0.00    -0.165 C  
HETATM   11  H2  UNL     1      -7.871   6.019  67.021  1.00  0.00     0.000 HD 
HETATM   12  H1  UNL     1      -9.143   5.999  68.145  1.00  0.00     0.000 HD 
HETATM   13  C   UNL     1     -10.235   9.967  67.680  1.00  0.00    -0.208 C  
HETATM   14  H   UNL     1     -11.603  11.409  67.478  1.00  0.00     0.000 HD 
HETATM   15  O   UNL     1     -11.586  10.460  67.489  1.00  0.00    -0.343 OA 
BRANCH   8  16
HETATM   16  O   UNL     1     -10.631   7.914  69.007  1.00  0.00    -0.219 OA 
BRANCH  16  17
HETATM   17  C   UNL     1     -10.276   8.772  70.116  1.00  0.00    -0.190 C  
HETATM   18  H1  UNL     1      -7.918   6.483  71.242  1.00  0.00     0.000 HD 
HETATM   19  O   UNL     1     -11.468   9.281  70.727  1.00  0.00    -0.268 OA 
HETATM   20  C   UNL     1     -11.929   8.606  71.837  1.00  0.00    -0.356 C  
HETATM   21  H2  UNL     1      -8.268   6.949  69.673  1.00  0.00     0.000 HD 
HETATM   22  N   UNL     1      -8.629   6.875  70.624  1.00  0.00    -0.140 NA 
HETATM   23  C   UNL     1     -11.075   8.079  72.723  1.00  0.00    -0.448 C  
HETATM   24  C   UNL     1      -9.184   8.170  71.064  1.00  0.00    -0.152 C  
HETATM   25  C   UNL     1      -9.602   8.197  72.538  1.00  0.00    -0.347 C  
BRANCH  20  26
HETATM   26  C   UNL     1     -13.436   8.606  71.954  1.00  0.00    -0.397 C  
HETATM   27  N   UNL     1     -13.956   9.047  73.246  1.00  0.00    -1.199 NA 
HETATM   28  H2  UNL     1     -13.585   9.968  73.479  1.00  0.00     0.000 HD 
HETATM   29  H1  UNL     1     -14.973   9.047  73.325  1.00  0.00     0.000 HD 
ENDBRANCH  20  26
ENDBRANCH  16  17
ENDBRANCH   8  16
BRANCH  10  30
HETATM   30  O   UNL     1      -9.184  12.130  66.957  1.00  0.00    -0.189 OA 
BRANCH  30  31
HETATM   31  C   UNL     1     -10.351  12.974  66.963  1.00  0.00    -0.247 C  
HETATM   32  O   UNL     1     -10.211  13.124  64.513  1.00  0.00    -0.505 OA 
HETATM   33  C   UNL     1      -9.716  15.831  67.171  1.00  0.00    -0.223 C  
HETATM   34  C   UNL     1     -10.561  13.872  65.690  1.00  0.00    -0.301 C  
HETATM   35  O   UNL     1     -10.362  13.752  68.150  1.00  0.00    -0.238 OA 
HETATM   36  O   UNL     1     -10.968  16.380  67.634  1.00  0.00    -0.308 OA 
HETATM   37  C   UNL     1      -9.863  15.271  65.710  1.00  0.00    -0.361 C  
HETATM   38  H   UNL     1     -11.226  17.080  67.045  1.00  0.00     0.000 HD 
HETATM   39  C   UNL     1      -8.691  16.964  67.257  1.00  0.00    -0.207 C  
HETATM   40  H   UNL     1     -10.339  13.666  63.744  1.00  0.00     0.000 HD 
HETATM   41  C   UNL     1      -9.303  14.709  68.115  1.00  0.00    -0.197 C  
BRANCH  37  42
HETATM   42  N   UNL     1     -10.561  16.303  64.891  1.00  0.00    -0.664 NA 
HETATM   43  H   UNL     1     -10.175  17.244  64.816  1.00  0.00     0.000 HD 
HETATM   44  C   UNL     1     -11.785  15.967  64.206  1.00  0.00    -0.132 C  
ENDBRANCH  37  42
ENDBRANCH  30  31
ENDBRANCH  10  30
ENDBRANCH   3   5
ENDBRANCH   2   3
TORSDOF 8
ENDMDL
MODEL       53
REMARK 921   NORMALIZED FREE ENERGY PREDICTED BY IDOCK:   -6.34 KCAL/MOL
REMARK 922        TOTAL FREE ENERGY PREDICTED BY IDOCK:  -10.04 KCAL/MOL
REMARK 923 INTER-LIGAND FREE ENERGY PREDICTED BY IDOCK:   -8.33 KCAL/MOL
REMARK 924 INTRA-LIGAND FREE ENERGY PREDICTED BY IDOCK:   -1.72 KCAL/MOL
REMARK 927      BINDING AFFINITY PREDICTED BY RF-SCORE:    0.00 PKD
ROOT
HETATM    1  C   UNL     1      -8.262   8.254  64.436  1.00  0.00    -0.130 C  
HETATM    2  C   UNL     1      -9.283   9.234  64.998  1.00  0.00    -0.178 C  
ENDROOT
BRANCH   2   3
HETATM    3  N   UNL     1     -10.071   8.594  66.056  1.00  0.00    -0.421 NA 
HETATM    4  H   UNL     1     -10.085   7.583  65.918  1.00  0.00     0.000 HD 
BRANCH   3   5
HETATM    5  C   UNL     1      -9.651   8.912  67.448  1.00  0.00    -0.157 C  
HETATM    6  C   UNL     1      -9.253   7.645  68.219  1.00  0.00    -0.139 C  
HETATM    7  C   UNL     1      -8.774   7.969  69.638  1.00  0.00    -0.133 C  
HETATM    8  C   UNL     1      -9.918   8.621  70.462  1.00  0.00    -0.189 C  
HETATM    9  N   UNL     1      -8.295   6.718  70.262  1.00  0.00    -0.132 NA 
HETATM   10  C   UNL     1     -10.684   9.800  68.201  1.00  0.00    -0.233 C  
HETATM   11  H2  UNL     1      -7.582   6.249  69.704  1.00  0.00     0.000 HD 
HETATM   12  H1  UNL     1      -7.977   6.933  71.206  1.00  0.00     0.000 HD 
HETATM   13  C   UNL     1     -10.517   9.853  69.733  1.00  0.00    -0.261 C  
HETATM   14  H   UNL     1     -12.208  10.916  69.792  1.00  0.00     0.000 HD 
HETATM   15  O   UNL     1     -11.841  10.162  70.238  1.00  0.00    -0.266 OA 
BRANCH   8  16
HETATM   16  O   UNL     1      -9.383   9.013  71.768  1.00  0.00    -0.303 OA 
BRANCH  16  17
HETATM   17  C   UNL     1     -10.062   8.412  72.894  1.00  0.00    -0.110 C  
HETATM   18  H1  UNL     1      -7.289   6.452  73.627  1.00  0.00     0.000 HD 
HETATM   19  O   UNL     1     -11.398   8.058  72.514  1.00  0.00    -0.353 OA 
HETATM   20  C   UNL     1     -11.604   6.752  72.126  1.00  0.00    -0.288 C  
HETATM   21  H2  UNL     1      -7.350   8.054  73.146  1.00  0.00     0.000 HD 
HETATM   22  N   UNL     1      -7.840   7.159  73.139  1.00  0.00    -0.095 NA 
HETATM   23  C   UNL     1     -10.950   5.748  72.725  1.00  0.00    -0.314 C  
HETATM   24  C   UNL     1      -9.218   7.326  73.643  1.00  0.00    -0.219 C  
HETATM   25  C   UNL     1      -9.976   6.007  73.821  1.00  0.00    -0.212 C  
BRANCH  20  26
HETATM   26  C   UNL     1     -12.657   6.605  71.053  1.00  0.00    -0.090 C  
HETATM   27  N   UNL     1     -13.682   7.648  71.045  1.00  0.00    -0.616 NA 
HETATM   28  H2  UNL     1     -13.246   8.568  70.987  1.00  0.00     0.000 HD 
HETATM   29  H1  UNL     1     -14.393   7.549  70.321  1.00  0.00     0.000 HD 
ENDBRANCH  20  26
ENDBRANCH  16  17
ENDBRANCH   8  16
BRANCH  10  30
HETATM   30  O   UNL     1     -10.872  11.129  67.599  1.00  0.00    -0.212 OA 
BRANCH  30  31
HETATM   31  C   UNL     1      -9.751  12.033  67.653  1.00  0.00    -0.187 C  
HETATM   32  O   UNL     1     -10.813  13.179  69.550  1.00  0.00    -0.454 OA 
HETATM   33  C   UNL     1     -10.112  14.432  66.003  1.00  0.00    -0.322 C  
HETATM   34  C   UNL     1     -10.001  13.401  68.385  1.00  0.00    -0.231 C  
HETATM   35  O   UNL     1      -9.246  12.233  66.342  1.00  0.00    -0.227 OA 
HETATM   36  O   UNL     1      -8.753  14.887  65.841  1.00  0.00    -0.352 OA 
HETATM   37  C   UNL     1     -10.566  14.561  67.502  1.00  0.00    -0.262 C  
HETATM   38  H   UNL     1      -8.706  15.796  66.114  1.00  0.00     0.000 HD 
HETATM   39  C   UNL     1     -10.967  15.283  65.063  1.00  0.00    -0.450 C  
HETATM   40  H   UNL     1     -10.963  14.007  69.992  1.00  0.00     0.000 HD 
HETATM   41  C   UNL     1     -10.187  12.974  65.566  1.00  0.00    -0.285 C  
BRANCH  37  42
HETATM   42  N   UNL     1     -10.185  15.921  67.981  1.00  0.00    -0.234 NA 
HETATM   43  H   UNL     1      -9.255  16.292  67.783  1.00  0.00     0.000 HD 
HETATM   44  C   UNL     1     -11.135  16.711  68.725  1.00  0.00    -0.270 C  
ENDBRANCH  37  42
ENDBRANCH  30  31
ENDBRANCH  10  30
ENDBRANCH   3   5
ENDBRANCH   2   3
TORSDOF 8
ENDMDL
MODEL       54
REMARK 921   NORMALIZED FREE ENERGY PREDICTED BY IDOCK:   -6.32 KCAL/MOL
REMARK 922        TOTAL FREE ENERGY PREDICTED BY IDOCK:  -10.02 KCAL/MOL
REMARK 923 INTER-LIGAND FREE ENERGY PREDICTED BY IDOCK:   -9.18 KCAL/MOL
REMARK 924 INTRA-LIGAND FREE ENERGY PREDICTED BY IDOCK:   -0.84 KCAL/MOL
REMARK 927      BINDING AFFINITY PREDICTED BY RF-SCORE:    0.00 PKD
ROOT
HETATM    1  C   UNL     1     -13.670   9.429  72.267  1.00  0.00    -0.495 C  
HETATM    2  C   UNL     1     -13.222  10.831  71.881  1.00  0.00    -0.419 C  
ENDROOT
BRANCH   2   3
HETATM    3  N   UNL     1     -12.479  10.796  70.617  1.00  0.00    -0.344 NA 
HETATM    4  H   UNL     1     -13.051  10.371  69.888  1.00  0.00     0.000 HD 
BRANCH   3   5
HETATM    5  C   UNL     1     -11.947  12.106  70.151  1.00  0.00    -0.314 C  
HETATM    6  C   UNL     1     -12.532  13.272  70.962  1.00  0.00    -0.422 C  
HETATM    7  C   UNL     1     -11.954  14.620  70.520  1.00  0.00    -0.310 C  
HETATM    8  C   UNL     1     -12.324  14.910  69.039  1.00  0.00    -0.034 C  
HETATM    9  N   UNL     1     -12.470  15.665  71.428  1.00  0.00    -0.410 NA 
HETATM   10  C   UNL     1     -12.075  12.294  68.611  1.00  0.00    -0.088 C  
HETATM   11  H2  UNL     1     -12.282  15.460  72.410  1.00  0.00     0.000 HD 
HETATM   12  H1  UNL     1     -12.086  16.562  71.134  1.00  0.00     0.000 HD 
HETATM   13  C   UNL     1     -11.909  13.741  68.107  1.00  0.00    -0.376 C  
HETATM   14  H   UNL     1     -12.395  13.070  66.289  1.00  0.00     0.000 HD 
HETATM   15  O   UNL     1     -12.649  13.786  66.860  1.00  0.00    -0.252 OA 
BRANCH   8  16
HETATM   16  O   UNL     1     -11.660  16.149  68.630  1.00  0.00    -0.376 OA 
BRANCH  16  17
HETATM   17  C   UNL     1     -10.269  15.987  68.266  1.00  0.00    -0.237 C  
HETATM   18  H1  UNL     1      -9.558  19.257  69.195  1.00  0.00     0.000 HD 
HETATM   19  O   UNL     1     -10.181  15.322  67.000  1.00  0.00    -0.252 OA 
HETATM   20  C   UNL     1     -10.027  16.125  65.891  1.00  0.00    -0.356 C  
HETATM   21  H2  UNL     1     -10.543  18.138  69.954  1.00  0.00     0.000 HD 
HETATM   22  N   UNL     1     -10.121  18.417  69.068  1.00  0.00    -0.340 NA 
HETATM   23  C   UNL     1      -9.282  17.237  65.947  1.00  0.00    -0.005 C  
HETATM   24  C   UNL     1      -9.404  17.278  68.461  1.00  0.00    -0.276 C  
HETATM   25  C   UNL     1      -8.604  17.647  67.208  1.00  0.00    -0.238 C  
BRANCH  20  26
HETATM   26  C   UNL     1     -10.705  15.577  64.656  1.00  0.00    -0.165 C  
HETATM   27  N   UNL     1     -11.570  16.523  63.955  1.00  0.00    -1.578 NA 
HETATM   28  H2  UNL     1     -11.051  17.370  63.724  1.00  0.00     0.000 HD 
HETATM   29  H1  UNL     1     -12.028  16.154  63.121  1.00  0.00     0.000 HD 
ENDBRANCH  20  26
ENDBRANCH  16  17
ENDBRANCH   8  16
BRANCH  10  30
HETATM   30  O   UNL     1     -11.295  11.323  67.829  1.00  0.00    -0.265 OA 
BRANCH  30  31
HETATM   31  C   UNL     1     -10.027  10.914  68.377  1.00  0.00    -0.178 C  
HETATM   32  O   UNL     1      -8.900  12.430  66.804  1.00  0.00    -0.207 OA 
HETATM   33  C   UNL     1      -8.852   8.609  66.994  1.00  0.00    -0.132 C  
HETATM   34  C   UNL     1      -8.769  11.161  67.467  1.00  0.00    -0.129 C  
HETATM   35  O   UNL     1     -10.108   9.558  68.788  1.00  0.00    -0.175 OA 
HETATM   36  O   UNL     1      -7.914   8.121  67.975  1.00  0.00    -0.123 OA 
HETATM   37  C   UNL     1      -8.412  10.020  66.460  1.00  0.00    -0.126 C  
HETATM   38  H   UNL     1      -7.058   8.058  67.568  1.00  0.00     0.000 HD 
HETATM   39  C   UNL     1      -8.899   7.558  65.883  1.00  0.00    -0.157 C  
HETATM   40  H   UNL     1      -8.140  12.579  66.254  1.00  0.00     0.000 HD 
HETATM   41  C   UNL     1     -10.225   8.709  67.646  1.00  0.00    -0.239 C  
BRANCH  37  42
HETATM   42  N   UNL     1      -6.962   9.950  66.119  1.00  0.00    -0.097 NA 
HETATM   43  H   UNL     1      -6.643   9.354  65.355  1.00  0.00     0.000 HD 
HETATM   44  C   UNL     1      -6.011  10.728  66.875  1.00  0.00    -0.069 C  
ENDBRANCH  37  42
ENDBRANCH  30  31
ENDBRANCH  10  30
ENDBRANCH   3   5
ENDBRANCH   2   3
TORSDOF 8
ENDMDL
MODEL       55
REMARK 921   NORMALIZED FREE ENERGY PREDICTED BY IDOCK:   -6.29 KCAL/MOL
REMARK 922        TOTAL FREE ENERGY PREDICTED BY IDOCK:   -9.97 KCAL/MOL
REMARK 923 INTER-LIGAND FREE ENERGY PREDICTED BY IDOCK:   -9.24 KCAL/MOL
REMARK 924 INTRA-LIGAND FREE ENERGY PREDICTED BY IDOCK:   -0.73 KCAL/MOL
REMARK 927      BINDING AFFINITY PREDICTED BY RF-SCORE:    0.00 PKD
ROOT
HETATM    1  C   UNL     1     -12.572   9.769  71.703  1.00  0.00    -0.509 C  
HETATM    2  C   UNL     1     -12.674  11.171  71.117  1.00  0.00    -0.408 C  
ENDROOT
BRANCH   2   3
HETATM    3  N   UNL     1     -12.065  11.208  69.784  1.00  0.00    -0.337 NA 
HETATM    4  H   UNL     1     -12.739  10.899  69.084  1.00  0.00     0.000 HD 
BRANCH   3   5
HETATM    5  C   UNL     1     -11.478  12.517  69.384  1.00  0.00    -0.263 C  
HETATM    6  C   UNL     1     -12.353  13.691  69.849  1.00  0.00    -0.310 C  
HETATM    7  C   UNL     1     -11.733  15.043  69.484  1.00  0.00    -0.322 C  
HETATM    8  C   UNL     1     -11.618  15.188  67.941  1.00  0.00    -0.311 C  
HETATM    9  N   UNL     1     -12.568  16.109  70.073  1.00  0.00    -0.490 NA 
HETATM   10  C   UNL     1     -11.110  12.576  67.874  1.00  0.00    -0.245 C  
HETATM   11  H2  UNL     1     -12.698  15.996  71.079  1.00  0.00     0.000 HD 
HETATM   12  H1  UNL     1     -12.156  17.009  69.830  1.00  0.00     0.000 HD 
HETATM   13  C   UNL     1     -10.864  13.989  67.309  1.00  0.00    -0.284 C  
HETATM   14  H   UNL     1     -10.699  13.144  65.506  1.00  0.00     0.000 HD 
HETATM   15  O   UNL     1     -11.161  13.878  65.893  1.00  0.00    -0.290 OA 
BRANCH   8  16
HETATM   16  O   UNL     1     -10.920  16.442  67.645  1.00  0.00    -0.308 OA 
BRANCH  16  17
HETATM   17  C   UNL     1     -10.255  17.036  68.784  1.00  0.00    -0.317 C  
HETATM   18  H1  UNL     1     -10.738  20.229  67.504  1.00  0.00     0.000 HD 
HETATM   19  O   UNL     1      -9.058  16.304  69.075  1.00  0.00    -0.244 OA 
HETATM   20  C   UNL     1      -7.886  16.807  68.555  1.00  0.00    -0.229 C  
HETATM   21  H2  UNL     1     -11.790  18.928  67.512  1.00  0.00     0.000 HD 
HETATM   22  N   UNL     1     -10.811  19.213  67.550  1.00  0.00    -0.459 NA 
HETATM   23  C   UNL     1      -7.681  18.128  68.478  1.00  0.00    -0.307 C  
HETATM   24  C   UNL     1     -10.143  18.596  68.713  1.00  0.00    -0.353 C  
HETATM   25  C   UNL     1      -8.713  19.096  68.942  1.00  0.00    -0.319 C  
BRANCH  20  26
HETATM   26  C   UNL     1      -6.890  15.735  68.178  1.00  0.00    -0.120 C  
HETATM   27  N   UNL     1      -7.253  14.938  67.008  1.00  0.00    -0.333 NA 
HETATM   28  H2  UNL     1      -7.434  15.546  66.210  1.00  0.00     0.000 HD 
HETATM   29  H1  UNL     1      -6.581  14.214  66.753  1.00  0.00     0.000 HD 
ENDBRANCH  20  26
ENDBRANCH  16  17
ENDBRANCH   8  16
BRANCH  10  30
HETATM   30  O   UNL     1     -10.070  11.613  67.480  1.00  0.00    -0.188 OA 
BRANCH  30  31
HETATM   31  C   UNL     1     -10.439  10.619  66.505  1.00  0.00    -0.224 C  
HETATM   32  O   UNL     1     -10.921   9.053  68.336  1.00  0.00    -0.451 OA 
HETATM   33  C   UNL     1      -8.193   8.933  65.657  1.00  0.00    -0.125 C  
HETATM   34  C   UNL     1     -10.411   9.126  66.995  1.00  0.00    -0.263 C  
HETATM   35  O   UNL     1      -9.653  10.794  65.336  1.00  0.00    -0.196 OA 
HETATM   36  O   UNL     1      -8.676   8.402  64.406  1.00  0.00    -0.399 OA 
HETATM   37  C   UNL     1      -9.043   8.382  66.859  1.00  0.00    -0.148 C  
HETATM   38  H   UNL     1      -8.613   7.454  64.436  1.00  0.00     0.000 HD 
HETATM   39  C   UNL     1      -6.720   8.530  65.756  1.00  0.00    -0.063 C  
HETATM   40  H   UNL     1     -10.904   8.150  68.632  1.00  0.00     0.000 HD 
HETATM   41  C   UNL     1      -8.294  10.452  65.608  1.00  0.00    -0.163 C  
BRANCH  37  42
HETATM   42  N   UNL     1      -9.175   6.906  66.688  1.00  0.00    -0.153 NA 
HETATM   43  H   UNL     1      -9.746   6.527  65.933  1.00  0.00     0.000 HD 
HETATM   44  C   UNL     1      -8.493   6.016  67.596  1.00  0.00    -0.107 C  
ENDBRANCH  37  42
ENDBRANCH  30  31
ENDBRANCH  10  30
ENDBRANCH   3   5
ENDBRANCH   2   3
TORSDOF 8
ENDMDL
MODEL       56
REMARK 921   NORMALIZED FREE ENERGY PREDICTED BY IDOCK:   -6.27 KCAL/MOL
REMARK 922        TOTAL FREE ENERGY PREDICTED BY IDOCK:   -9.94 KCAL/MOL
REMARK 923 INTER-LIGAND FREE ENERGY PREDICTED BY IDOCK:   -9.35 KCAL/MOL
REMARK 924 INTRA-LIGAND FREE ENERGY PREDICTED BY IDOCK:   -0.59 KCAL/MOL
REMARK 927      BINDING AFFINITY PREDICTED BY RF-SCORE:    0.00 PKD
ROOT
HETATM    1  C   UNL     1     -12.898  15.835  72.175  1.00  0.00    -0.510 C  
HETATM    2  C   UNL     1     -13.397  15.196  70.886  1.00  0.00    -0.408 C  
ENDROOT
BRANCH   2   3
HETATM    3  N   UNL     1     -12.292  15.046  69.935  1.00  0.00    -0.483 NA 
HETATM    4  H   UNL     1     -11.416  15.341  70.367  1.00  0.00     0.000 HD 
BRANCH   3   5
HETATM    5  C   UNL     1     -12.137  13.688  69.343  1.00  0.00    -0.314 C  
HETATM    6  C   UNL     1     -12.493  12.590  70.356  1.00  0.00    -0.215 C  
HETATM    7  C   UNL     1     -12.382  11.191  69.742  1.00  0.00    -0.246 C  
HETATM    8  C   UNL     1     -10.919  10.904  69.306  1.00  0.00    -0.244 C  
HETATM    9  N   UNL     1     -12.860  10.209  70.737  1.00  0.00    -0.488 NA 
HETATM   10  C   UNL     1     -10.753  13.482  68.663  1.00  0.00    -0.253 C  
HETATM   11  H2  UNL     1     -13.800  10.417  71.074  1.00  0.00     0.000 HD 
HETATM   12  H1  UNL     1     -12.786   9.278  70.328  1.00  0.00     0.000 HD 
HETATM   13  C   UNL     1     -10.371  12.016  68.373  1.00  0.00    -0.214 C  
HETATM   14  H   UNL     1      -8.585  12.690  67.784  1.00  0.00     0.000 HD 
HETATM   15  O   UNL     1      -8.921  12.009  68.354  1.00  0.00    -0.183 OA 
BRANCH   8  16
HETATM   16  O   UNL     1     -10.885   9.607  68.626  1.00  0.00    -0.219 OA 
BRANCH  16  17
HETATM   17  C   UNL     1      -9.835   8.723  69.082  1.00  0.00    -0.181 C  
HETATM   18  H1  UNL     1      -9.477   7.369  65.904  1.00  0.00     0.000 HD 
HETATM   19  O   UNL     1     -10.219   8.127  70.328  1.00  0.00    -0.195 OA 
HETATM   20  C   UNL     1     -10.783   6.871  70.263  1.00  0.00    -0.242 C  
HETATM   21  H2  UNL     1      -9.723   8.964  66.348  1.00  0.00     0.000 HD 
HETATM   22  N   UNL     1      -9.841   7.990  66.626  1.00  0.00    -0.246 NA 
HETATM   23  C   UNL     1     -10.355   5.973  69.366  1.00  0.00    -0.298 C  
HETATM   24  C   UNL     1      -9.276   7.770  67.973  1.00  0.00    -0.138 C  
HETATM   25  C   UNL     1      -9.264   6.301  68.407  1.00  0.00    -0.112 C  
BRANCH  20  26
HETATM   26  C   UNL     1     -11.833   6.631  71.323  1.00  0.00    -0.350 C  
HETATM   27  N   UNL     1     -13.094   7.341  71.118  1.00  0.00    -0.568 NA 
HETATM   28  H2  UNL     1     -13.471   7.128  70.195  1.00  0.00     0.000 HD 
HETATM   29  H1  UNL     1     -13.802   7.179  71.834  1.00  0.00     0.000 HD 
ENDBRANCH  20  26
ENDBRANCH  16  17
ENDBRANCH   8  16
BRANCH  10  30
HETATM   30  O   UNL     1     -10.519  14.372  67.515  1.00  0.00    -0.250 OA 
BRANCH  30  31
HETATM   31  C   UNL     1     -10.366  15.775  67.800  1.00  0.00    -0.275 C  
HETATM   32  O   UNL     1     -10.308  16.222  65.384  1.00  0.00    -0.499 OA 
HETATM   33  C   UNL     1      -7.564  16.617  68.021  1.00  0.00    -0.166 C  
HETATM   34  C   UNL     1      -9.766  16.654  66.643  1.00  0.00    -0.266 C  
HETATM   35  O   UNL     1      -9.629  15.932  69.003  1.00  0.00    -0.217 OA 
HETATM   36  O   UNL     1      -7.683  17.853  68.755  1.00  0.00    -0.288 OA 
HETATM   37  C   UNL     1      -8.207  16.756  66.593  1.00  0.00    -0.261 C  
HETATM   38  H   UNL     1      -7.239  18.537  68.267  1.00  0.00     0.000 HD 
HETATM   39  C   UNL     1      -6.069  16.297  67.955  1.00  0.00    -0.140 C  
HETATM   40  H   UNL     1      -9.946  16.754  64.685  1.00  0.00     0.000 HD 
HETATM   41  C   UNL     1      -8.276  15.522  68.803  1.00  0.00    -0.177 C  
BRANCH  37  42
HETATM   42  N   UNL     1      -7.706  18.023  65.986  1.00  0.00    -0.492 NA 
HETATM   43  H   UNL     1      -8.322  18.832  65.908  1.00  0.00     0.000 HD 
HETATM   44  C   UNL     1      -6.348  18.099  65.507  1.00  0.00    -0.214 C  
ENDBRANCH  37  42
ENDBRANCH  30  31
ENDBRANCH  10  30
ENDBRANCH   3   5
ENDBRANCH   2   3
TORSDOF 8
ENDMDL
MODEL       57
REMARK 921   NORMALIZED FREE ENERGY PREDICTED BY IDOCK:   -6.27 KCAL/MOL
REMARK 922        TOTAL FREE ENERGY PREDICTED BY IDOCK:   -9.94 KCAL/MOL
REMARK 923 INTER-LIGAND FREE ENERGY PREDICTED BY IDOCK:   -8.77 KCAL/MOL
REMARK 924 INTRA-LIGAND FREE ENERGY PREDICTED BY IDOCK:   -1.17 KCAL/MOL
REMARK 927      BINDING AFFINITY PREDICTED BY RF-SCORE:    0.00 PKD
ROOT
HETATM    1  C   UNL     1     -12.780  11.864  63.334  1.00  0.00    -0.496 C  
HETATM    2  C   UNL     1     -11.966  13.112  63.648  1.00  0.00    -0.514 C  
ENDROOT
BRANCH   2   3
HETATM    3  N   UNL     1     -10.533  12.826  63.529  1.00  0.00    -0.516 NA 
HETATM    4  H   UNL     1     -10.014  13.693  63.391  1.00  0.00     0.000 HD 
BRANCH   3   5
HETATM    5  C   UNL     1      -9.940  12.050  64.653  1.00  0.00    -0.214 C  
HETATM    6  C   UNL     1      -9.630  10.605  64.236  1.00  0.00    -0.350 C  
HETATM    7  C   UNL     1      -8.976   9.812  65.372  1.00  0.00    -0.190 C  
HETATM    8  C   UNL     1      -9.940   9.704  66.585  1.00  0.00    -0.236 C  
HETATM    9  N   UNL     1      -8.598   8.482  64.851  1.00  0.00    -0.328 NA 
HETATM   10  C   UNL     1     -10.773  12.155  65.963  1.00  0.00    -0.273 C  
HETATM   11  H2  UNL     1      -8.008   8.538  64.021  1.00  0.00     0.000 HD 
HETATM   12  H1  UNL     1      -8.163   7.955  65.607  1.00  0.00     0.000 HD 
HETATM   13  C   UNL     1     -10.449  11.098  67.038  1.00  0.00    -0.235 C  
HETATM   14  H   UNL     1     -11.979  11.831  68.094  1.00  0.00     0.000 HD 
HETATM   15  O   UNL     1     -11.667  10.977  67.817  1.00  0.00    -0.573 OA 
BRANCH   8  16
HETATM   16  O   UNL     1      -9.233   9.039  67.681  1.00  0.00    -0.135 OA 
BRANCH  16  17
HETATM   17  C   UNL     1      -8.329   9.897  68.414  1.00  0.00    -0.107 C  
HETATM   18  H1  UNL     1      -5.573   8.459  66.866  1.00  0.00     0.000 HD 
HETATM   19  O   UNL     1      -8.725   9.944  69.791  1.00  0.00    -0.194 OA 
HETATM   20  C   UNL     1      -8.070   9.089  70.650  1.00  0.00    -0.162 C  
HETATM   21  H2  UNL     1      -7.053   8.875  66.206  1.00  0.00     0.000 HD 
HETATM   22  N   UNL     1      -6.559   8.628  67.064  1.00  0.00    -0.058 NA 
HETATM   23  C   UNL     1      -6.767   8.823  70.493  1.00  0.00    -0.044 C  
HETATM   24  C   UNL     1      -6.815   9.637  68.111  1.00  0.00    -0.069 C  
HETATM   25  C   UNL     1      -5.985   9.435  69.382  1.00  0.00    -0.034 C  
BRANCH  20  26
HETATM   26  C   UNL     1      -8.945   8.581  71.772  1.00  0.00    -0.220 C  
HETATM   27  N   UNL     1     -10.377   8.815  71.594  1.00  0.00    -0.292 NA 
HETATM   28  H2  UNL     1     -10.688   8.429  70.703  1.00  0.00     0.000 HD 
HETATM   29  H1  UNL     1     -10.968   8.472  72.351  1.00  0.00     0.000 HD 
ENDBRANCH  20  26
ENDBRANCH  16  17
ENDBRANCH   8  16
BRANCH  10  30
HETATM   30  O   UNL     1     -10.851  13.519  66.508  1.00  0.00    -0.281 OA 
BRANCH  30  31
HETATM   31  C   UNL     1     -10.123  13.778  67.723  1.00  0.00    -0.245 C  
HETATM   32  O   UNL     1     -12.219  13.553  68.985  1.00  0.00    -0.320 OA 
HETATM   33  C   UNL     1     -10.007  16.624  68.425  1.00  0.00    -0.255 C  
HETATM   34  C   UNL     1     -10.975  14.271  68.948  1.00  0.00    -0.257 C  
HETATM   35  O   UNL     1      -9.051  14.667  67.448  1.00  0.00    -0.183 OA 
HETATM   36  O   UNL     1      -8.882  16.661  69.328  1.00  0.00    -0.180 OA 
HETATM   37  C   UNL     1     -11.197  15.814  69.056  1.00  0.00    -0.319 C  
HETATM   38  H   UNL     1      -9.159  17.074  70.138  1.00  0.00     0.000 HD 
HETATM   39  C   UNL     1     -10.381  18.080  68.143  1.00  0.00    -0.398 C  
HETATM   40  H   UNL     1     -12.734  13.851  69.726  1.00  0.00     0.000 HD 
HETATM   41  C   UNL     1      -9.562  15.961  67.128  1.00  0.00    -0.218 C  
BRANCH  37  42
HETATM   42  N   UNL     1     -11.392  16.298  70.453  1.00  0.00    -0.459 NA 
HETATM   43  H   UNL     1     -11.429  17.299  70.648  1.00  0.00     0.000 HD 
HETATM   44  C   UNL     1     -11.526  15.346  71.528  1.00  0.00    -0.413 C  
ENDBRANCH  37  42
ENDBRANCH  30  31
ENDBRANCH  10  30
ENDBRANCH   3   5
ENDBRANCH   2   3
TORSDOF 8
ENDMDL
MODEL       58
REMARK 921   NORMALIZED FREE ENERGY PREDICTED BY IDOCK:   -6.26 KCAL/MOL
REMARK 922        TOTAL FREE ENERGY PREDICTED BY IDOCK:   -9.93 KCAL/MOL
REMARK 923 INTER-LIGAND FREE ENERGY PREDICTED BY IDOCK:   -9.31 KCAL/MOL
REMARK 924 INTRA-LIGAND FREE ENERGY PREDICTED BY IDOCK:   -0.62 KCAL/MOL
REMARK 927      BINDING AFFINITY PREDICTED BY RF-SCORE:    0.00 PKD
ROOT
HETATM    1  C   UNL     1     -14.126   7.416  71.758  1.00  0.00    -0.510 C  
HETATM    2  C   UNL     1     -14.357   8.912  71.593  1.00  0.00    -0.237 C  
ENDROOT
BRANCH   2   3
HETATM    3  N   UNL     1     -13.421   9.664  72.434  1.00  0.00    -0.625 NA 
HETATM    4  H   UNL     1     -12.773   9.025  72.894  1.00  0.00     0.000 HD 
BRANCH   3   5
HETATM    5  C   UNL     1     -12.666  10.745  71.743  1.00  0.00    -0.359 C  
HETATM    6  C   UNL     1     -13.402  12.091  71.832  1.00  0.00    -0.408 C  
HETATM    7  C   UNL     1     -12.610  13.218  71.164  1.00  0.00    -0.325 C  
HETATM    8  C   UNL     1     -12.433  12.934  69.647  1.00  0.00     0.142 C  
HETATM    9  N   UNL     1     -13.323  14.490  71.403  1.00  0.00    -0.343 NA 
HETATM   10  C   UNL     1     -12.250  10.358  70.295  1.00  0.00    -0.269 C  
HETATM   11  H2  UNL     1     -13.495  14.664  72.393  1.00  0.00     0.000 HD 
HETATM   12  H1  UNL     1     -12.796  15.241  70.959  1.00  0.00     0.000 HD 
HETATM   13  C   UNL     1     -11.815  11.533  69.396  1.00  0.00    -0.350 C  
HETATM   14  H   UNL     1     -11.704  10.225  67.889  1.00  0.00     0.000 HD 
HETATM   15  O   UNL     1     -12.082  11.083  68.043  1.00  0.00    -0.615 OA 
BRANCH   8  16
HETATM   16  O   UNL     1     -11.578  13.977  69.076  1.00  0.00    -0.262 OA 
BRANCH  16  17
HETATM   17  C   UNL     1     -10.630  13.500  68.094  1.00  0.00    -0.245 C  
HETATM   18  H1  UNL     1      -8.157  15.600  69.336  1.00  0.00     0.000 HD 
HETATM   19  O   UNL     1     -11.262  13.437  66.810  1.00  0.00    -0.296 OA 
HETATM   20  C   UNL     1     -11.069  14.516  65.974  1.00  0.00    -0.329 C  
HETATM   21  H2  UNL     1      -9.290  14.697  70.174  1.00  0.00     0.000 HD 
HETATM   22  N   UNL     1      -9.071  15.149  69.286  1.00  0.00    -0.219 NA 
HETATM   23  C   UNL     1      -9.895  15.160  65.945  1.00  0.00    -0.372 C  
HETATM   24  C   UNL     1      -9.228  14.193  68.172  1.00  0.00    -0.194 C  
HETATM   25  C   UNL     1      -8.763  14.738  66.818  1.00  0.00    -0.255 C  
BRANCH  20  26
HETATM   26  C   UNL     1     -12.260  14.811  65.093  1.00  0.00    -0.202 C  
HETATM   27  N   UNL     1     -12.230  14.173  63.778  1.00  0.00    -0.991 NA 
HETATM   28  H2  UNL     1     -12.108  13.165  63.879  1.00  0.00     0.000 HD 
HETATM   29  H1  UNL     1     -13.034  14.372  63.183  1.00  0.00     0.000 HD 
ENDBRANCH  20  26
ENDBRANCH  16  17
ENDBRANCH   8  16
BRANCH  10  30
HETATM   30  O   UNL     1     -11.326   9.215  70.229  1.00  0.00    -0.250 OA 
BRANCH  30  31
HETATM   31  C   UNL     1     -10.328   9.125  71.264  1.00  0.00    -0.334 C  
HETATM   32  O   UNL     1      -8.648   9.937  69.664  1.00  0.00    -0.166 OA 
HETATM   33  C   UNL     1      -8.980   6.521  71.354  1.00  0.00    -0.140 C  
HETATM   34  C   UNL     1      -8.835   9.049  70.779  1.00  0.00    -0.234 C  
HETATM   35  O   UNL     1     -10.645   8.046  72.130  1.00  0.00    -0.233 OA 
HETATM   36  O   UNL     1      -8.436   6.515  72.690  1.00  0.00    -0.121 OA 
HETATM   37  C   UNL     1      -8.281   7.620  70.475  1.00  0.00    -0.121 C  
HETATM   38  H   UNL     1      -7.504   6.337  72.635  1.00  0.00     0.000 HD 
HETATM   39  C   UNL     1      -8.769   5.112  70.797  1.00  0.00    -0.142 C  
HETATM   40  H   UNL     1      -7.745   9.891  69.372  1.00  0.00     0.000 HD 
HETATM   41  C   UNL     1     -10.474   6.805  71.444  1.00  0.00    -0.215 C  
BRANCH  37  42
HETATM   42  N   UNL     1      -6.807   7.492  70.668  1.00  0.00    -0.047 NA 
HETATM   43  H   UNL     1      -6.320   6.653  70.351  1.00  0.00     0.000 HD 
HETATM   44  C   UNL     1      -6.073   8.558  71.304  1.00  0.00    -0.042 C  
ENDBRANCH  37  42
ENDBRANCH  30  31
ENDBRANCH  10  30
ENDBRANCH   3   5
ENDBRANCH   2   3
TORSDOF 8
ENDMDL
MODEL       59
REMARK 921   NORMALIZED FREE ENERGY PREDICTED BY IDOCK:   -6.23 KCAL/MOL
REMARK 922        TOTAL FREE ENERGY PREDICTED BY IDOCK:   -9.88 KCAL/MOL
REMARK 923 INTER-LIGAND FREE ENERGY PREDICTED BY IDOCK:   -8.14 KCAL/MOL
REMARK 924 INTRA-LIGAND FREE ENERGY PREDICTED BY IDOCK:   -1.74 KCAL/MOL
REMARK 927      BINDING AFFINITY PREDICTED BY RF-SCORE:    0.00 PKD
ROOT
HETATM    1  C   UNL     1     -11.580   5.153  72.881  1.00  0.00    -0.282 C  
HETATM    2  C   UNL     1     -11.185   6.618  72.761  1.00  0.00    -0.227 C  
ENDROOT
BRANCH   2   3
HETATM    3  N   UNL     1     -12.043   7.296  71.785  1.00  0.00    -0.305 NA 
HETATM    4  H   UNL     1     -12.941   7.529  72.211  1.00  0.00     0.000 HD 
BRANCH   3   5
HETATM    5  C   UNL     1     -11.454   8.505  71.145  1.00  0.00    -0.276 C  
HETATM    6  C   UNL     1     -12.369   9.729  71.306  1.00  0.00    -0.465 C  
HETATM    7  C   UNL     1     -11.749  10.987  70.692  1.00  0.00    -0.269 C  
HETATM    8  C   UNL     1     -11.554  10.806  69.162  1.00  0.00    -0.305 C  
HETATM    9  N   UNL     1     -12.628  12.134  71.000  1.00  0.00    -0.330 NA 
HETATM   10  C   UNL     1     -11.007   8.252  69.677  1.00  0.00    -0.086 C  
HETATM   11  H2  UNL     1     -12.810  12.233  71.999  1.00  0.00     0.000 HD 
HETATM   12  H1  UNL     1     -12.216  12.972  70.591  1.00  0.00     0.000 HD 
HETATM   13  C   UNL     1     -10.751   9.519  68.836  1.00  0.00    -0.195 C  
HETATM   14  H   UNL     1     -10.480   8.315  67.264  1.00  0.00     0.000 HD 
HETATM   15  O   UNL     1     -10.971   9.104  67.464  1.00  0.00    -0.176 OA 
BRANCH   8  16
HETATM   16  O   UNL     1     -10.859  11.985  68.640  1.00  0.00    -0.219 OA 
BRANCH  16  17
HETATM   17  C   UNL     1     -11.696  12.875  67.865  1.00  0.00    -0.357 C  
HETATM   18  H1  UNL     1      -9.306  13.069  65.352  1.00  0.00     0.000 HD 
HETATM   19  O   UNL     1     -12.250  13.879  68.724  1.00  0.00    -0.348 OA 
HETATM   20  C   UNL     1     -11.589  15.087  68.768  1.00  0.00    -0.335 C  
HETATM   21  H2  UNL     1      -9.794  11.738  66.240  1.00  0.00     0.000 HD 
HETATM   22  N   UNL     1      -9.730  12.756  66.225  1.00  0.00    -0.263 NA 
HETATM   23  C   UNL     1     -11.023  15.599  67.668  1.00  0.00    -0.315 C  
HETATM   24  C   UNL     1     -11.045  13.356  66.525  1.00  0.00    -0.297 C  
HETATM   25  C   UNL     1     -11.081  14.880  66.365  1.00  0.00    -0.342 C  
BRANCH  20  26
HETATM   26  C   UNL     1     -11.650  15.754  70.122  1.00  0.00    -0.357 C  
HETATM   27  N   UNL     1     -11.256  14.908  71.247  1.00  0.00    -0.559 NA 
HETATM   28  H2  UNL     1     -10.326  14.521  71.087  1.00  0.00     0.000 HD 
HETATM   29  H1  UNL     1     -11.297  15.358  72.162  1.00  0.00     0.000 HD 
ENDBRANCH  20  26
ENDBRANCH  16  17
ENDBRANCH   8  16
BRANCH  10  30
HETATM   30  O   UNL     1      -9.935   7.253  69.548  1.00  0.00    -0.166 OA 
BRANCH  30  31
HETATM   31  C   UNL     1     -10.338   5.893  69.302  1.00  0.00    -0.246 C  
HETATM   32  O   UNL     1      -8.542   5.128  70.794  1.00  0.00    -0.119 OA 
HETATM   33  C   UNL     1      -8.962   4.667  67.020  1.00  0.00    -0.113 C  
HETATM   34  C   UNL     1      -9.260   4.788  69.597  1.00  0.00    -0.122 C  
HETATM   35  O   UNL     1     -10.841   5.784  67.979  1.00  0.00    -0.242 OA 
HETATM   36  O   UNL     1      -9.842   3.571  66.696  1.00  0.00    -0.406 OA 
HETATM   37  C   UNL     1      -8.289   4.442  68.422  1.00  0.00    -0.089 C  
HETATM   38  H   UNL     1      -9.333   2.769  66.684  1.00  0.00     0.000 HD 
HETATM   39  C   UNL     1      -7.934   4.742  65.889  1.00  0.00    -0.103 C  
HETATM   40  H   UNL     1      -7.890   4.460  70.972  1.00  0.00     0.000 HD 
HETATM   41  C   UNL     1      -9.779   5.952  67.040  1.00  0.00    -0.141 C  
BRANCH  37  42
HETATM   42  N   UNL     1      -7.769   3.044  68.463  1.00  0.00    -0.055 NA 
HETATM   43  H   UNL     1      -8.375   2.265  68.207  1.00  0.00     0.000 HD 
HETATM   44  C   UNL     1      -6.406   2.799  68.866  1.00  0.00    -0.029 C  
ENDBRANCH  37  42
ENDBRANCH  30  31
ENDBRANCH  10  30
ENDBRANCH   3   5
ENDBRANCH   2   3
TORSDOF 8
ENDMDL
MODEL       60
REMARK 921   NORMALIZED FREE ENERGY PREDICTED BY IDOCK:   -6.22 KCAL/MOL
REMARK 922        TOTAL FREE ENERGY PREDICTED BY IDOCK:   -9.88 KCAL/MOL
REMARK 923 INTER-LIGAND FREE ENERGY PREDICTED BY IDOCK:   -8.31 KCAL/MOL
REMARK 924 INTRA-LIGAND FREE ENERGY PREDICTED BY IDOCK:   -1.57 KCAL/MOL
REMARK 927      BINDING AFFINITY PREDICTED BY RF-SCORE:    0.00 PKD
ROOT
HETATM    1  C   UNL     1     -13.176   9.759  71.956  1.00  0.00    -0.557 C  
HETATM    2  C   UNL     1     -11.908   9.031  71.528  1.00  0.00    -0.345 C  
ENDROOT
BRANCH   2   3
HETATM    3  N   UNL     1     -11.666   9.234  70.097  1.00  0.00    -0.465 NA 
HETATM    4  H   UNL     1     -11.118  10.081  69.952  1.00  0.00     0.000 HD 
BRANCH   3   5
HETATM    5  C   UNL     1     -11.033   8.088  69.386  1.00  0.00    -0.009 C  
HETATM    6  C   UNL     1     -10.548   7.014  70.372  1.00  0.00    -0.244 C  
HETATM    7  C   UNL     1      -9.938   5.811  69.647  1.00  0.00    -0.189 C  
HETATM    8  C   UNL     1      -8.681   6.242  68.841  1.00  0.00    -0.125 C  
HETATM    9  N   UNL     1      -9.616   4.779  70.654  1.00  0.00    -0.170 NA 
HETATM   10  C   UNL     1      -9.944   8.538  68.371  1.00  0.00    -0.187 C  
HETATM   11  H2  UNL     1     -10.420   4.525  71.228  1.00  0.00     0.000 HD 
HETATM   12  H1  UNL     1      -9.209   3.978  70.172  1.00  0.00     0.000 HD 
HETATM   13  C   UNL     1      -8.992   7.425  67.887  1.00  0.00    -0.131 C  
HETATM   14  H   UNL     1      -7.965   8.843  66.925  1.00  0.00     0.000 HD 
HETATM   15  O   UNL     1      -7.775   8.118  67.508  1.00  0.00    -0.099 OA 
BRANCH   8  16
HETATM   16  O   UNL     1      -8.201   5.087  68.080  1.00  0.00    -0.096 OA 
BRANCH  16  17
HETATM   17  C   UNL     1      -9.179   4.517  67.181  1.00  0.00    -0.135 C  
HETATM   18  H1  UNL     1      -7.936   1.318  67.718  1.00  0.00     0.000 HD 
HETATM   19  O   UNL     1      -9.259   5.315  65.993  1.00  0.00    -0.150 OA 
HETATM   20  C   UNL     1      -8.517   4.889  64.913  1.00  0.00    -0.144 C  
HETATM   21  H2  UNL     1      -8.172   2.555  68.820  1.00  0.00     0.000 HD 
HETATM   22  N   UNL     1      -8.019   2.328  67.837  1.00  0.00    -0.059 NA 
HETATM   23  C   UNL     1      -8.371   3.583  64.653  1.00  0.00    -0.093 C  
HETATM   24  C   UNL     1      -9.051   2.967  66.997  1.00  0.00    -0.173 C  
HETATM   25  C   UNL     1      -8.997   2.550  65.524  1.00  0.00    -0.133 C  
BRANCH  20  26
HETATM   26  C   UNL     1      -7.986   6.023  64.067  1.00  0.00    -0.117 C  
HETATM   27  N   UNL     1      -8.455   7.353  64.450  1.00  0.00    -0.362 NA 
HETATM   28  H2  UNL     1      -8.255   7.526  65.436  1.00  0.00     0.000 HD 
HETATM   29  H1  UNL     1      -8.096   8.119  63.879  1.00  0.00     0.000 HD 
ENDBRANCH  20  26
ENDBRANCH  16  17
ENDBRANCH   8  16
BRANCH  10  30
HETATM   30  O   UNL     1     -10.465   9.363  67.270  1.00  0.00    -0.251 OA 
BRANCH  30  31
HETATM   31  C   UNL     1     -10.025  10.734  67.219  1.00  0.00    -0.187 C  
HETATM   32  O   UNL     1     -12.125  11.410  68.303  1.00  0.00    -0.606 OA 
HETATM   33  C   UNL     1     -10.842  12.127  64.770  1.00  0.00    -0.307 C  
HETATM   34  C   UNL     1     -11.150  11.825  67.331  1.00  0.00    -0.282 C  
HETATM   35  O   UNL     1      -9.230  10.929  66.060  1.00  0.00    -0.175 OA 
HETATM   36  O   UNL     1      -9.918  13.234  64.736  1.00  0.00    -0.560 OA 
HETATM   37  C   UNL     1     -11.824  12.260  65.990  1.00  0.00    -0.341 C  
HETATM   38  H   UNL     1     -10.417  14.040  64.662  1.00  0.00     0.000 HD 
HETATM   39  C   UNL     1     -11.579  12.139  63.429  1.00  0.00    -0.508 C  
HETATM   40  H   UNL     1     -12.804  12.070  68.370  1.00  0.00     0.000 HD 
HETATM   41  C   UNL     1     -10.043  10.836  64.890  1.00  0.00    -0.322 C  
BRANCH  37  42
HETATM   42  N   UNL     1     -12.349  13.656  66.005  1.00  0.00    -0.446 NA 
HETATM   43  H   UNL     1     -12.967  13.979  65.260  1.00  0.00     0.000 HD 
HETATM   44  C   UNL     1     -11.980  14.548  67.076  1.00  0.00    -0.345 C  
ENDBRANCH  37  42
ENDBRANCH  30  31
ENDBRANCH  10  30
ENDBRANCH   3   5
ENDBRANCH   2   3
TORSDOF 8
ENDMDL
MODEL       61
REMARK 921   NORMALIZED FREE ENERGY PREDICTED BY IDOCK:   -6.22 KCAL/MOL
REMARK 922        TOTAL FREE ENERGY PREDICTED BY IDOCK:   -9.87 KCAL/MOL
REMARK 923 INTER-LIGAND FREE ENERGY PREDICTED BY IDOCK:   -8.06 KCAL/MOL
REMARK 924 INTRA-LIGAND FREE ENERGY PREDICTED BY IDOCK:   -1.81 KCAL/MOL
REMARK 927      BINDING AFFINITY PREDICTED BY RF-SCORE:    0.00 PKD
ROOT
HETATM    1  C   UNL     1     -10.361   5.227  67.321  1.00  0.00    -0.254 C  
HETATM    2  C   UNL     1      -8.898   5.092  67.718  1.00  0.00    -0.103 C  
ENDROOT
BRANCH   2   3
HETATM    3  N   UNL     1      -8.187   6.350  67.470  1.00  0.00    -0.117 NA 
HETATM    4  H   UNL     1      -7.596   6.260  66.643  1.00  0.00     0.000 HD 
BRANCH   3   5
HETATM    5  C   UNL     1      -9.049   7.559  67.352  1.00  0.00    -0.126 C  
HETATM    6  C   UNL     1      -8.913   8.213  65.969  1.00  0.00    -0.213 C  
HETATM    7  C   UNL     1      -9.831   9.430  65.822  1.00  0.00    -0.275 C  
HETATM    8  C   UNL     1      -9.444  10.530  66.849  1.00  0.00    -0.165 C  
HETATM    9  N   UNL     1      -9.732   9.920  64.432  1.00  0.00    -0.408 NA 
HETATM   10  C   UNL     1      -8.856   8.553  68.533  1.00  0.00    -0.139 C  
HETATM   11  H2  UNL     1      -9.931   9.193  63.744  1.00  0.00     0.000 HD 
HETATM   12  H1  UNL     1     -10.343  10.730  64.334  1.00  0.00     0.000 HD 
HETATM   13  C   UNL     1      -9.408   9.974  68.297  1.00  0.00    -0.132 C  
HETATM   14  H   UNL     1      -8.593  10.487  70.047  1.00  0.00     0.000 HD 
HETATM   15  O   UNL     1      -8.615  10.827  69.161  1.00  0.00    -0.150 OA 
BRANCH   8  16
HETATM   16  O   UNL     1     -10.415  11.622  66.747  1.00  0.00    -0.216 OA 
BRANCH  16  17
HETATM   17  C   UNL     1      -9.902  12.818  66.117  1.00  0.00    -0.267 C  
HETATM   18  H1  UNL     1     -10.854  14.759  68.836  1.00  0.00     0.000 HD 
HETATM   19  O   UNL     1     -10.310  12.848  64.743  1.00  0.00    -0.313 OA 
HETATM   20  C   UNL     1     -11.437  13.584  64.450  1.00  0.00    -0.394 C  
HETATM   21  H2  UNL     1     -10.168  13.233  68.820  1.00  0.00     0.000 HD 
HETATM   22  N   UNL     1     -10.716  13.910  68.288  1.00  0.00    -0.245 NA 
HETATM   23  C   UNL     1     -11.694  14.731  65.093  1.00  0.00    -0.337 C  
HETATM   24  C   UNL     1     -10.115  14.122  66.957  1.00  0.00    -0.261 C  
HETATM   25  C   UNL     1     -10.778  15.243  66.150  1.00  0.00    -0.322 C  
BRANCH  20  26
HETATM   26  C   UNL     1     -12.256  13.002  63.321  1.00  0.00    -0.382 C  
HETATM   27  N   UNL     1     -12.052  11.575  63.082  1.00  0.00    -0.933 NA 
HETATM   28  H2  UNL     1     -12.212  11.048  63.940  1.00  0.00     0.000 HD 
HETATM   29  H1  UNL     1     -12.605  11.181  62.320  1.00  0.00     0.000 HD 
ENDBRANCH  20  26
ENDBRANCH  16  17
ENDBRANCH   8  16
BRANCH  10  30
HETATM   30  O   UNL     1      -9.238   8.001  69.841  1.00  0.00    -0.151 OA 
BRANCH  30  31
HETATM   31  C   UNL     1      -8.352   8.268  70.945  1.00  0.00    -0.130 C  
HETATM   32  O   UNL     1      -7.219   6.132  70.505  1.00  0.00    -0.078 OA 
HETATM   33  C   UNL     1      -9.333   7.219  73.503  1.00  0.00    -0.209 C  
HETATM   34  C   UNL     1      -7.620   7.021  71.561  1.00  0.00    -0.089 C  
HETATM   35  O   UNL     1      -9.050   9.001  71.940  1.00  0.00    -0.365 OA 
HETATM   36  O   UNL     1      -8.578   7.999  74.452  1.00  0.00    -0.400 OA 
HETATM   37  C   UNL     1      -8.386   6.262  72.692  1.00  0.00    -0.120 C  
HETATM   38  H   UNL     1      -8.136   7.404  75.047  1.00  0.00     0.000 HD 
HETATM   39  C   UNL     1     -10.379   6.450  74.312  1.00  0.00    -0.311 C  
HETATM   40  H   UNL     1      -6.776   5.379  70.878  1.00  0.00     0.000 HD 
HETATM   41  C   UNL     1     -10.041   8.173  72.549  1.00  0.00    -0.300 C  
BRANCH  37  42
HETATM   42  N   UNL     1      -7.491   5.571  73.665  1.00  0.00    -0.090 NA 
HETATM   43  H   UNL     1      -7.028   6.102  74.402  1.00  0.00     0.000 HD 
HETATM   44  C   UNL     1      -7.282   4.148  73.559  1.00  0.00    -0.070 C  
ENDBRANCH  37  42
ENDBRANCH  30  31
ENDBRANCH  10  30
ENDBRANCH   3   5
ENDBRANCH   2   3
TORSDOF 8
ENDMDL
MODEL       62
REMARK 921   NORMALIZED FREE ENERGY PREDICTED BY IDOCK:   -6.21 KCAL/MOL
REMARK 922        TOTAL FREE ENERGY PREDICTED BY IDOCK:   -9.86 KCAL/MOL
REMARK 923 INTER-LIGAND FREE ENERGY PREDICTED BY IDOCK:   -8.60 KCAL/MOL
REMARK 924 INTRA-LIGAND FREE ENERGY PREDICTED BY IDOCK:   -1.26 KCAL/MOL
REMARK 927      BINDING AFFINITY PREDICTED BY RF-SCORE:    0.00 PKD
ROOT
HETATM    1  C   UNL     1      -7.679   6.881  65.418  1.00  0.00    -0.107 C  
HETATM    2  C   UNL     1      -8.418   7.172  66.717  1.00  0.00    -0.121 C  
ENDROOT
BRANCH   2   3
HETATM    3  N   UNL     1      -9.783   7.627  66.432  1.00  0.00    -0.393 NA 
HETATM    4  H   UNL     1     -10.453   7.080  66.973  1.00  0.00     0.000 HD 
BRANCH   3   5
HETATM    5  C   UNL     1     -10.028   9.081  66.636  1.00  0.00    -0.278 C  
HETATM    6  C   UNL     1      -9.925   9.859  65.315  1.00  0.00    -0.320 C  
HETATM    7  C   UNL     1     -10.223  11.349  65.507  1.00  0.00    -0.264 C  
HETATM    8  C   UNL     1      -9.178  11.994  66.459  1.00  0.00    -0.216 C  
HETATM    9  N   UNL     1     -10.226  11.995  64.178  1.00  0.00    -0.318 NA 
HETATM   10  C   UNL     1      -9.165   9.683  67.781  1.00  0.00    -0.124 C  
HETATM   11  H2  UNL     1     -10.869  11.547  63.525  1.00  0.00     0.000 HD 
HETATM   12  H1  UNL     1     -10.424  12.987  64.306  1.00  0.00     0.000 HD 
HETATM   13  C   UNL     1      -9.074  11.223  67.801  1.00  0.00    -0.152 C  
HETATM   14  H   UNL     1      -7.756  11.039  69.290  1.00  0.00     0.000 HD 
HETATM   15  O   UNL     1      -7.819  11.511  68.469  1.00  0.00    -0.128 OA 
BRANCH   8  16
HETATM   16  O   UNL     1      -9.568  13.385  66.699  1.00  0.00    -0.257 OA 
BRANCH  16  17
HETATM   17  C   UNL     1     -10.074  13.640  68.030  1.00  0.00    -0.250 C  
HETATM   18  H1  UNL     1     -13.289  14.120  66.806  1.00  0.00     0.000 HD 
HETATM   19  O   UNL     1      -9.181  14.524  68.720  1.00  0.00    -0.192 OA 
HETATM   20  C   UNL     1      -9.506  15.863  68.706  1.00  0.00    -0.221 C  
HETATM   21  H2  UNL     1     -12.151  12.979  66.357  1.00  0.00     0.000 HD 
HETATM   22  N   UNL     1     -12.294  13.898  66.776  1.00  0.00    -0.394 NA 
HETATM   23  C   UNL     1     -10.784  16.259  68.771  1.00  0.00    -0.309 C  
HETATM   24  C   UNL     1     -11.601  13.982  68.077  1.00  0.00    -0.337 C  
HETATM   25  C   UNL     1     -11.894  15.270  68.853  1.00  0.00    -0.344 C  
BRANCH  20  26
HETATM   26  C   UNL     1      -8.299  16.772  68.687  1.00  0.00    -0.252 C  
HETATM   27  N   UNL     1      -7.155  16.297  69.462  1.00  0.00    -0.199 NA 
HETATM   28  H2  UNL     1      -6.893  15.358  69.164  1.00  0.00     0.000 HD 
HETATM   29  H1  UNL     1      -6.340  16.911  69.449  1.00  0.00     0.000 HD 
ENDBRANCH  20  26
ENDBRANCH  16  17
ENDBRANCH   8  16
BRANCH  10  30
HETATM   30  O   UNL     1      -9.455   9.111  69.105  1.00  0.00    -0.153 OA 
BRANCH  30  31
HETATM   31  C   UNL     1     -10.810   8.689  69.350  1.00  0.00    -0.095 C  
HETATM   32  O   UNL     1     -11.166  10.725  70.680  1.00  0.00    -0.427 OA 
HETATM   33  C   UNL     1     -11.101   7.058  71.771  1.00  0.00    -0.239 C  
HETATM   34  C   UNL     1     -11.521   9.335  70.594  1.00  0.00    -0.274 C  
HETATM   35  O   UNL     1     -10.858   7.272  69.406  1.00  0.00    -0.236 OA 
HETATM   36  O   UNL     1     -12.358   6.392  71.531  1.00  0.00    -0.281 OA 
HETATM   37  C   UNL     1     -11.318   8.603  71.960  1.00  0.00    -0.362 C  
HETATM   38  H   UNL     1     -12.928   6.549  72.275  1.00  0.00     0.000 HD 
HETATM   39  C   UNL     1     -10.496   6.402  73.013  1.00  0.00    -0.253 C  
HETATM   40  H   UNL     1     -11.596  11.115  71.432  1.00  0.00     0.000 HD 
HETATM   41  C   UNL     1     -10.188   6.808  70.578  1.00  0.00    -0.192 C  
BRANCH  37  42
HETATM   42  N   UNL     1     -12.446   8.794  72.918  1.00  0.00    -0.437 NA 
HETATM   43  H   UNL     1     -12.277   8.746  73.923  1.00  0.00     0.000 HD 
HETATM   44  C   UNL     1     -13.775   9.045  72.418  1.00  0.00    -0.479 C  
ENDBRANCH  37  42
ENDBRANCH  30  31
ENDBRANCH  10  30
ENDBRANCH   3   5
ENDBRANCH   2   3
TORSDOF 8
ENDMDL
MODEL       63
REMARK 921   NORMALIZED FREE ENERGY PREDICTED BY IDOCK:   -6.21 KCAL/MOL
REMARK 922        TOTAL FREE ENERGY PREDICTED BY IDOCK:   -9.85 KCAL/MOL
REMARK 923 INTER-LIGAND FREE ENERGY PREDICTED BY IDOCK:   -8.76 KCAL/MOL
REMARK 924 INTRA-LIGAND FREE ENERGY PREDICTED BY IDOCK:   -1.10 KCAL/MOL
REMARK 927      BINDING AFFINITY PREDICTED BY RF-SCORE:    0.00 PKD
ROOT
HETATM    1  C   UNL     1     -13.523  14.050  71.903  1.00  0.00    -0.506 C  
HETATM    2  C   UNL     1     -12.487  13.160  71.230  1.00  0.00    -0.232 C  
ENDROOT
BRANCH   2   3
HETATM    3  N   UNL     1     -13.150  12.109  70.452  1.00  0.00     0.433 NA 
HETATM    4  H   UNL     1     -13.442  12.476  69.546  1.00  0.00     0.000 HD 
BRANCH   3   5
HETATM    5  C   UNL     1     -12.365  10.858  70.266  1.00  0.00    -0.330 C  
HETATM    6  C   UNL     1     -12.035  10.196  71.613  1.00  0.00    -0.314 C  
HETATM    7  C   UNL     1     -11.267   8.883  71.429  1.00  0.00    -0.312 C  
HETATM    8  C   UNL     1      -9.899   9.145  70.741  1.00  0.00    -0.270 C  
HETATM    9  N   UNL     1     -11.102   8.254  72.755  1.00  0.00    -0.335 NA 
HETATM   10  C   UNL     1     -11.124  11.056  69.349  1.00  0.00    -0.262 C  
HETATM   11  H2  UNL     1     -11.989   8.126  73.243  1.00  0.00     0.000 HD 
HETATM   12  H1  UNL     1     -10.591   7.381  72.633  1.00  0.00     0.000 HD 
HETATM   13  C   UNL     1     -10.067   9.935  69.416  1.00  0.00    -0.212 C  
HETATM   14  H   UNL     1      -8.926  11.060  68.222  1.00  0.00     0.000 HD 
HETATM   15  O   UNL     1      -8.823  10.576  69.033  1.00  0.00    -0.159 OA 
BRANCH   8  16
HETATM   16  O   UNL     1      -9.255   7.855  70.486  1.00  0.00    -0.156 OA 
BRANCH  16  17
HETATM   17  C   UNL     1     -10.116   6.870  69.870  1.00  0.00    -0.188 C  
HETATM   18  H1  UNL     1      -9.392   4.557  72.358  1.00  0.00     0.000 HD 
HETATM   19  O   UNL     1      -9.880   6.845  68.457  1.00  0.00    -0.141 OA 
HETATM   20  C   UNL     1      -9.012   5.881  67.993  1.00  0.00    -0.118 C  
HETATM   21  H2  UNL     1      -9.671   6.201  72.498  1.00  0.00     0.000 HD 
HETATM   22  N   UNL     1      -9.371   5.453  71.872  1.00  0.00    -0.141 NA 
HETATM   23  C   UNL     1      -8.983   4.662  68.546  1.00  0.00    -0.139 C  
HETATM   24  C   UNL     1     -10.147   5.494  70.617  1.00  0.00    -0.223 C  
HETATM   25  C   UNL     1      -9.878   4.309  69.683  1.00  0.00    -0.244 C  
BRANCH  20  26
HETATM   26  C   UNL     1      -8.202   6.329  66.799  1.00  0.00    -0.110 C  
HETATM   27  N   UNL     1      -8.961   6.490  65.561  1.00  0.00    -0.365 NA 
HETATM   28  H2  UNL     1      -9.747   7.122  65.710  1.00  0.00     0.000 HD 
HETATM   29  H1  UNL     1      -8.414   6.793  64.755  1.00  0.00     0.000 HD 
ENDBRANCH  20  26
ENDBRANCH  16  17
ENDBRANCH   8  16
BRANCH  10  30
HETATM   30  O   UNL     1     -11.462  11.443  67.971  1.00  0.00    -0.280 OA 
BRANCH  30  31
HETATM   31  C   UNL     1     -10.622  12.434  67.348  1.00  0.00    -0.216 C  
HETATM   32  O   UNL     1     -12.293  14.148  67.904  1.00  0.00    -0.553 OA 
HETATM   33  C   UNL     1     -11.188  12.810  64.494  1.00  0.00    -0.333 C  
HETATM   34  C   UNL     1     -11.333  13.763  66.906  1.00  0.00    -0.328 C  
HETATM   35  O   UNL     1      -9.918  11.840  66.268  1.00  0.00    -0.208 OA 
HETATM   36  O   UNL     1      -9.971  13.430  64.030  1.00  0.00    -0.764 OA 
HETATM   37  C   UNL     1     -11.960  13.766  65.474  1.00  0.00    -0.384 C  
HETATM   38  H   UNL     1     -10.197  14.237  63.581  1.00  0.00     0.000 HD 
HETATM   39  C   UNL     1     -12.005  12.477  63.245  1.00  0.00    -0.516 C  
HETATM   40  H   UNL     1     -12.723  14.951  67.637  1.00  0.00     0.000 HD 
HETATM   41  C   UNL     1     -10.825  11.517  65.215  1.00  0.00    -0.259 C  
BRANCH  37  42
HETATM   42  N   UNL     1     -12.018  15.117  64.845  1.00  0.00    -0.244 NA 
HETATM   43  H   UNL     1     -12.801  15.368  64.241  1.00  0.00     0.000 HD 
HETATM   44  C   UNL     1     -10.963  16.068  65.093  1.00  0.00    -0.348 C  
ENDBRANCH  37  42
ENDBRANCH  30  31
ENDBRANCH  10  30
ENDBRANCH   3   5
ENDBRANCH   2   3
TORSDOF 8
ENDMDL
MODEL       64
REMARK 921   NORMALIZED FREE ENERGY PREDICTED BY IDOCK:   -6.19 KCAL/MOL
REMARK 922        TOTAL FREE ENERGY PREDICTED BY IDOCK:   -9.82 KCAL/MOL
REMARK 923 INTER-LIGAND FREE ENERGY PREDICTED BY IDOCK:   -8.76 KCAL/MOL
REMARK 924 INTRA-LIGAND FREE ENERGY PREDICTED BY IDOCK:   -1.06 KCAL/MOL
REMARK 927      BINDING AFFINITY PREDICTED BY RF-SCORE:    0.00 PKD
ROOT
HETATM    1  C   UNL     1      -5.749  11.869  67.604  1.00  0.00    -0.075 C  
HETATM    2  C   UNL     1      -7.165  11.777  67.050  1.00  0.00    -0.134 C  
ENDROOT
BRANCH   2   3
HETATM    3  N   UNL     1      -7.759  10.481  67.392  1.00  0.00    -0.101 NA 
HETATM    4  H   UNL     1      -7.085   9.734  67.228  1.00  0.00     0.000 HD 
BRANCH   3   5
HETATM    5  C   UNL     1      -8.314  10.375  68.770  1.00  0.00    -0.134 C  
HETATM    6  C   UNL     1      -7.845   9.090  69.467  1.00  0.00    -0.094 C  
HETATM    7  C   UNL     1      -8.373   8.995  70.902  1.00  0.00    -0.197 C  
HETATM    8  C   UNL     1      -9.925   8.936  70.908  1.00  0.00    -0.242 C  
HETATM    9  N   UNL     1      -7.777   7.802  71.537  1.00  0.00    -0.083 NA 
HETATM   10  C   UNL     1      -9.855  10.582  68.816  1.00  0.00    -0.186 C  
HETATM   11  H2  UNL     1      -6.758   7.800  71.492  1.00  0.00     0.000 HD 
HETATM   12  H1  UNL     1      -8.128   7.739  72.492  1.00  0.00     0.000 HD 
HETATM   13  C   UNL     1     -10.545  10.116  70.114  1.00  0.00    -0.281 C  
HETATM   14  H   UNL     1     -12.289  10.539  69.235  1.00  0.00     0.000 HD 
HETATM   15  O   UNL     1     -11.909   9.817  69.721  1.00  0.00    -0.055 OA 
BRANCH   8  16
HETATM   16  O   UNL     1     -10.385   8.960  72.298  1.00  0.00    -0.302 OA 
BRANCH  16  17
HETATM   17  C   UNL     1     -11.216   7.836  72.670  1.00  0.00    -0.381 C  
HETATM   18  H1  UNL     1      -8.894   6.793  75.034  1.00  0.00     0.000 HD 
HETATM   19  O   UNL     1     -11.715   7.198  71.488  1.00  0.00    -0.263 OA 
HETATM   20  C   UNL     1     -11.017   6.099  71.038  1.00  0.00    -0.293 C  
HETATM   21  H2  UNL     1      -9.396   8.346  74.665  1.00  0.00     0.000 HD 
HETATM   22  N   UNL     1      -9.302   7.392  74.316  1.00  0.00    -0.177 NA 
HETATM   23  C   UNL     1     -10.467   5.235  71.901  1.00  0.00    -0.282 C  
HETATM   24  C   UNL     1     -10.589   6.916  73.771  1.00  0.00    -0.301 C  
HETATM   25  C   UNL     1     -10.584   5.437  73.372  1.00  0.00    -0.297 C  
BRANCH  20  26
HETATM   26  C   UNL     1     -11.019   5.963  69.533  1.00  0.00    -0.368 C  
HETATM   27  N   UNL     1      -9.704   5.762  68.928  1.00  0.00    -0.130 NA 
HETATM   28  H2  UNL     1      -9.240   4.960  69.353  1.00  0.00     0.000 HD 
HETATM   29  H1  UNL     1      -9.705   5.671  67.912  1.00  0.00     0.000 HD 
ENDBRANCH  20  26
ENDBRANCH  16  17
ENDBRANCH   8  16
BRANCH  10  30
HETATM   30  O   UNL     1     -10.286  11.922  68.388  1.00  0.00    -0.198 OA 
BRANCH  30  31
HETATM   31  C   UNL     1     -11.440  11.990  67.529  1.00  0.00    -0.333 C  
HETATM   32  O   UNL     1     -10.188  10.758  65.810  1.00  0.00    -0.248 OA 
HETATM   33  C   UNL     1     -11.466  14.365  65.806  1.00  0.00    -0.335 C  
HETATM   34  C   UNL     1     -11.171  11.791  65.993  1.00  0.00    -0.296 C  
HETATM   35  O   UNL     1     -12.140  13.200  67.778  1.00  0.00    -0.324 OA 
HETATM   36  O   UNL     1     -12.859  14.452  65.442  1.00  0.00    -0.518 OA 
HETATM   37  C   UNL     1     -10.810  13.079  65.184  1.00  0.00    -0.300 C  
HETATM   38  H   UNL     1     -12.921  14.485  64.494  1.00  0.00     0.000 HD 
HETATM   39  C   UNL     1     -10.808  15.652  65.304  1.00  0.00    -0.420 C  
HETATM   40  H   UNL     1     -10.025  10.638  64.882  1.00  0.00     0.000 HD 
HETATM   41  C   UNL     1     -11.366  14.311  67.325  1.00  0.00    -0.334 C  
BRANCH  37  42
HETATM   42  N   UNL     1     -11.199  13.015  63.746  1.00  0.00    -0.548 NA 
HETATM   43  H   UNL     1     -10.712  13.589  63.057  1.00  0.00     0.000 HD 
HETATM   44  C   UNL     1     -12.267  12.139  63.332  1.00  0.00    -0.530 C  
ENDBRANCH  37  42
ENDBRANCH  30  31
ENDBRANCH  10  30
ENDBRANCH   3   5
ENDBRANCH   2   3
TORSDOF 8
ENDMDL
MODEL       65
REMARK 921   NORMALIZED FREE ENERGY PREDICTED BY IDOCK:   -6.18 KCAL/MOL
REMARK 922        TOTAL FREE ENERGY PREDICTED BY IDOCK:   -9.82 KCAL/MOL
REMARK 923 INTER-LIGAND FREE ENERGY PREDICTED BY IDOCK:   -8.58 KCAL/MOL
REMARK 924 INTRA-LIGAND FREE ENERGY PREDICTED BY IDOCK:   -1.24 KCAL/MOL
REMARK 927      BINDING AFFINITY PREDICTED BY RF-SCORE:    0.00 PKD
ROOT
HETATM    1  C   UNL     1      -6.660   9.122  69.905  1.00  0.00    -0.047 C  
HETATM    2  C   UNL     1      -6.144  10.510  69.549  1.00  0.00    -0.050 C  
ENDROOT
BRANCH   2   3
HETATM    3  N   UNL     1      -7.206  11.505  69.726  1.00  0.00    -0.339 NA 
HETATM    4  H   UNL     1      -6.998  12.098  70.531  1.00  0.00     0.000 HD 
BRANCH   3   5
HETATM    5  C   UNL     1      -7.498  12.349  68.534  1.00  0.00    -0.112 C  
HETATM    6  C   UNL     1      -7.269  13.838  68.830  1.00  0.00    -0.106 C  
HETATM    7  C   UNL     1      -7.522  14.709  67.595  1.00  0.00    -0.186 C  
HETATM    8  C   UNL     1      -9.004  14.592  67.142  1.00  0.00    -0.225 C  
HETATM    9  N   UNL     1      -7.160  16.102  67.928  1.00  0.00    -0.125 NA 
HETATM   10  C   UNL     1      -8.890  12.045  67.909  1.00  0.00    -0.174 C  
HETATM   11  H2  UNL     1      -6.206  16.186  68.280  1.00  0.00     0.000 HD 
HETATM   12  H1  UNL     1      -7.328  16.681  67.107  1.00  0.00     0.000 HD 
HETATM   13  C   UNL     1      -9.423  13.113  66.933  1.00  0.00    -0.244 C  
HETATM   14  H   UNL     1     -11.122  12.066  66.852  1.00  0.00     0.000 HD 
HETATM   15  O   UNL     1     -10.866  12.971  66.980  1.00  0.00    -0.256 OA 
BRANCH   8  16
HETATM   16  O   UNL     1      -9.170  15.349  65.900  1.00  0.00    -0.327 OA 
BRANCH  16  17
HETATM   17  C   UNL     1     -10.186  16.377  65.959  1.00  0.00    -0.356 C  
HETATM   18  H1  UNL     1      -7.780  18.880  65.845  1.00  0.00     0.000 HD 
HETATM   19  O   UNL     1     -11.151  16.037  66.962  1.00  0.00    -0.222 OA 
HETATM   20  C   UNL     1     -10.980  16.609  68.204  1.00  0.00    -0.327 C  
HETATM   21  H2  UNL     1      -7.844  17.441  64.993  1.00  0.00     0.000 HD 
HETATM   22  N   UNL     1      -8.151  17.930  65.835  1.00  0.00    -0.540 NA 
HETATM   23  C   UNL     1     -10.525  17.864  68.323  1.00  0.00    -0.362 C  
HETATM   24  C   UNL     1      -9.617  17.836  65.976  1.00  0.00    -0.093 C  
HETATM   25  C   UNL     1     -10.184  18.677  67.124  1.00  0.00    -0.415 C  
BRANCH  20  26
HETATM   26  C   UNL     1     -11.418  15.716  69.341  1.00  0.00    -0.348 C  
HETATM   27  N   UNL     1     -12.392  14.688  68.980  1.00  0.00    -0.583 NA 
HETATM   28  H2  UNL     1     -12.039  14.125  68.206  1.00  0.00     0.000 HD 
HETATM   29  H1  UNL     1     -12.688  14.084  69.747  1.00  0.00     0.000 HD 
ENDBRANCH  20  26
ENDBRANCH  16  17
ENDBRANCH   8  16
BRANCH  10  30
HETATM   30  O   UNL     1      -9.019  10.676  67.386  1.00  0.00    -0.136 OA 
BRANCH  30  31
HETATM   31  C   UNL     1     -10.316  10.059  67.491  1.00  0.00    -0.232 C  
HETATM   32  O   UNL     1     -10.156  10.222  69.938  1.00  0.00    -0.326 OA 
HETATM   33  C   UNL     1     -10.199   7.134  67.680  1.00  0.00    -0.198 C  
HETATM   34  C   UNL     1     -10.656   9.394  68.874  1.00  0.00    -0.208 C  
HETATM   35  O   UNL     1     -10.488   9.142  66.422  1.00  0.00    -0.213 OA 
HETATM   36  O   UNL     1     -11.536   6.757  67.291  1.00  0.00    -0.752 OA 
HETATM   37  C   UNL     1     -10.216   7.904  69.050  1.00  0.00    -0.209 C  
HETATM   38  H   UNL     1     -11.901   6.201  67.969  1.00  0.00     0.000 HD 
HETATM   39  C   UNL     1      -9.391   5.837  67.755  1.00  0.00    -0.105 C  
HETATM   40  H   UNL     1     -10.361   9.820  70.774  1.00  0.00     0.000 HD 
HETATM   41  C   UNL     1      -9.614   8.026  66.593  1.00  0.00    -0.230 C  
BRANCH  37  42
HETATM   42  N   UNL     1     -11.068   7.133  70.000  1.00  0.00    -0.305 NA 
HETATM   43  H   UNL     1     -11.856   6.587  69.653  1.00  0.00     0.000 HD 
HETATM   44  C   UNL     1     -10.774   7.162  71.411  1.00  0.00    -0.225 C  
ENDBRANCH  37  42
ENDBRANCH  30  31
ENDBRANCH  10  30
ENDBRANCH   3   5
ENDBRANCH   2   3
TORSDOF 8
ENDMDL
MODEL       66
REMARK 921   NORMALIZED FREE ENERGY PREDICTED BY IDOCK:   -6.18 KCAL/MOL
REMARK 922        TOTAL FREE ENERGY PREDICTED BY IDOCK:   -9.81 KCAL/MOL
REMARK 923 INTER-LIGAND FREE ENERGY PREDICTED BY IDOCK:   -9.32 KCAL/MOL
REMARK 924 INTRA-LIGAND FREE ENERGY PREDICTED BY IDOCK:   -0.49 KCAL/MOL
REMARK 927      BINDING AFFINITY PREDICTED BY RF-SCORE:    0.00 PKD
ROOT
HETATM    1  C   UNL     1     -13.175   9.842  71.932  1.00  0.00    -0.545 C  
HETATM    2  C   UNL     1     -12.828  11.177  71.288  1.00  0.00    -0.412 C  
ENDROOT
BRANCH   2   3
HETATM    3  N   UNL     1     -11.505  11.109  70.660  1.00  0.00    -0.398 NA 
HETATM    4  H   UNL     1     -11.380  10.203  70.207  1.00  0.00     0.000 HD 
BRANCH   3   5
HETATM    5  C   UNL     1     -11.193  12.205  69.703  1.00  0.00    -0.067 C  
HETATM    6  C   UNL     1     -12.064  13.444  69.963  1.00  0.00    -0.404 C  
HETATM    7  C   UNL     1     -11.718  14.593  69.013  1.00  0.00    -0.306 C  
HETATM    8  C   UNL     1     -11.996  14.184  67.540  1.00  0.00    -0.384 C  
HETATM    9  N   UNL     1     -12.507  15.777  69.411  1.00  0.00    -0.496 NA 
HETATM   10  C   UNL     1     -11.210  11.733  68.220  1.00  0.00    -0.255 C  
HETATM   11  H2  UNL     1     -12.376  16.025  70.392  1.00  0.00     0.000 HD 
HETATM   12  H1  UNL     1     -12.276  16.543  68.778  1.00  0.00     0.000 HD 
HETATM   13  C   UNL     1     -11.279  12.859  67.169  1.00  0.00    -0.289 C  
HETATM   14  H   UNL     1     -11.455  11.434  65.781  1.00  0.00     0.000 HD 
HETATM   15  O   UNL     1     -11.893  12.245  66.008  1.00  0.00    -0.493 OA 
BRANCH   8  16
HETATM   16  O   UNL     1     -11.546  15.269  66.665  1.00  0.00    -0.205 OA 
BRANCH  16  17
HETATM   17  C   UNL     1     -10.667  16.223  67.303  1.00  0.00    -0.265 C  
HETATM   18  H1  UNL     1     -10.679  18.249  64.481  1.00  0.00     0.000 HD 
HETATM   19  O   UNL     1      -9.603  15.526  67.964  1.00  0.00    -0.201 OA 
HETATM   20  C   UNL     1      -8.418  15.409  67.270  1.00  0.00    -0.192 C  
HETATM   21  H2  UNL     1     -11.947  17.414  65.183  1.00  0.00     0.000 HD 
HETATM   22  N   UNL     1     -10.934  17.459  65.073  1.00  0.00    -0.742 NA 
HETATM   23  C   UNL     1      -7.981  16.403  66.487  1.00  0.00    -0.342 C  
HETATM   24  C   UNL     1     -10.274  17.436  66.394  1.00  0.00    -0.338 C  
HETATM   25  C   UNL     1      -8.760  17.663  66.333  1.00  0.00    -0.263 C  
BRANCH  20  26
HETATM   26  C   UNL     1      -7.684  14.119  67.554  1.00  0.00    -0.185 C  
HETATM   27  N   UNL     1      -8.077  13.442  68.788  1.00  0.00    -0.334 NA 
HETATM   28  H2  UNL     1      -9.085  13.283  68.796  1.00  0.00     0.000 HD 
HETATM   29  H1  UNL     1      -7.582  12.570  68.979  1.00  0.00     0.000 HD 
ENDBRANCH  20  26
ENDBRANCH  16  17
ENDBRANCH   8  16
BRANCH  10  30
HETATM   30  O   UNL     1     -10.188  10.722  67.909  1.00  0.00    -0.167 OA 
BRANCH  30  31
HETATM   31  C   UNL     1     -10.654   9.473  67.362  1.00  0.00    -0.271 C  
HETATM   32  O   UNL     1     -10.509   8.478  69.605  1.00  0.00    -0.215 OA 
HETATM   33  C   UNL     1      -8.483   7.724  66.448  1.00  0.00    -0.136 C  
HETATM   34  C   UNL     1     -10.336   8.187  68.208  1.00  0.00    -0.197 C  
HETATM   35  O   UNL     1     -10.188   9.342  66.028  1.00  0.00    -0.269 OA 
HETATM   36  O   UNL     1      -9.178   6.834  65.550  1.00  0.00    -0.376 OA 
HETATM   37  C   UNL     1      -8.960   7.502  67.929  1.00  0.00    -0.131 C  
HETATM   38  H   UNL     1      -8.999   5.939  65.815  1.00  0.00     0.000 HD 
HETATM   39  C   UNL     1      -6.991   7.438  66.269  1.00  0.00    -0.069 C  
HETATM   40  H   UNL     1     -10.317   7.701  70.115  1.00  0.00     0.000 HD 
HETATM   41  C   UNL     1      -8.772   9.158  66.023  1.00  0.00    -0.153 C  
BRANCH  37  42
HETATM   42  N   UNL     1      -8.952   6.035  68.197  1.00  0.00    -0.114 NA 
HETATM   43  H   UNL     1      -9.412   5.393  67.550  1.00  0.00     0.000 HD 
HETATM   44  C   UNL     1      -8.294   5.526  69.375  1.00  0.00    -0.101 C  
ENDBRANCH  37  42
ENDBRANCH  30  31
ENDBRANCH  10  30
ENDBRANCH   3   5
ENDBRANCH   2   3
TORSDOF 8
ENDMDL
MODEL       67
REMARK 921   NORMALIZED FREE ENERGY PREDICTED BY IDOCK:   -6.14 KCAL/MOL
REMARK 922        TOTAL FREE ENERGY PREDICTED BY IDOCK:   -9.75 KCAL/MOL
REMARK 923 INTER-LIGAND FREE ENERGY PREDICTED BY IDOCK:   -8.03 KCAL/MOL
REMARK 924 INTRA-LIGAND FREE ENERGY PREDICTED BY IDOCK:   -1.72 KCAL/MOL
REMARK 927      BINDING AFFINITY PREDICTED BY RF-SCORE:    0.00 PKD
ROOT
HETATM    1  C   UNL     1      -6.977   7.420  64.983  1.00  0.00    -0.051 C  
HETATM    2  C   UNL     1      -6.269   8.715  65.357  1.00  0.00    -0.049 C  
ENDROOT
BRANCH   2   3
HETATM    3  N   UNL     1      -6.887   9.303  66.550  1.00  0.00    -0.079 NA 
HETATM    4  H   UNL     1      -6.320  10.081  66.888  1.00  0.00     0.000 HD 
BRANCH   3   5
HETATM    5  C   UNL     1      -8.303   9.734  66.391  1.00  0.00    -0.120 C  
HETATM    6  C   UNL     1      -8.464  10.713  65.218  1.00  0.00    -0.152 C  
HETATM    7  C   UNL     1      -9.926  11.125  65.017  1.00  0.00    -0.273 C  
HETATM    8  C   UNL     1     -10.455  11.877  66.269  1.00  0.00    -0.239 C  
HETATM    9  N   UNL     1     -10.009  11.960  63.801  1.00  0.00    -0.449 NA 
HETATM   10  C   UNL     1      -8.929  10.247  67.719  1.00  0.00    -0.134 C  
HETATM   11  H2  UNL     1      -9.614  11.500  62.981  1.00  0.00     0.000 HD 
HETATM   12  H1  UNL     1     -10.981  12.235  63.668  1.00  0.00     0.000 HD 
HETATM   13  C   UNL     1     -10.233  11.055  67.567  1.00  0.00    -0.188 C  
HETATM   14  H   UNL     1     -10.142  11.408  69.531  1.00  0.00     0.000 HD 
HETATM   15  O   UNL     1     -10.278  11.911  68.737  1.00  0.00    -0.207 OA 
BRANCH   8  16
HETATM   16  O   UNL     1     -11.881  12.151  66.077  1.00  0.00    -0.522 OA 
BRANCH  16  17
HETATM   17  C   UNL     1     -12.230  13.554  66.128  1.00  0.00    -0.433 C  
HETATM   18  H1  UNL     1     -12.977  13.577  62.736  1.00  0.00     0.000 HD 
HETATM   19  O   UNL     1     -11.243  14.265  66.885  1.00  0.00    -0.307 OA 
HETATM   20  C   UNL     1     -10.245  14.888  66.167  1.00  0.00    -0.300 C  
HETATM   21  H2  UNL     1     -13.319  12.406  63.881  1.00  0.00     0.000 HD 
HETATM   22  N   UNL     1     -12.706  13.183  63.637  1.00  0.00    -0.701 NA 
HETATM   23  C   UNL     1     -10.506  15.460  64.984  1.00  0.00    -0.411 C  
HETATM   24  C   UNL     1     -12.647  14.157  64.744  1.00  0.00    -0.302 C  
HETATM   25  C   UNL     1     -11.877  15.438  64.403  1.00  0.00    -0.260 C  
BRANCH  20  26
HETATM   26  C   UNL     1      -8.914  14.905  66.882  1.00  0.00    -0.253 C  
HETATM   27  N   UNL     1      -8.935  14.365  68.240  1.00  0.00    -0.181 NA 
HETATM   28  H2  UNL     1      -9.321  13.421  68.238  1.00  0.00     0.000 HD 
HETATM   29  H1  UNL     1      -8.037  14.376  68.723  1.00  0.00     0.000 HD 
ENDBRANCH  20  26
ENDBRANCH  16  17
ENDBRANCH   8  16
BRANCH  10  30
HETATM   30  O   UNL     1      -9.011   9.221  68.770  1.00  0.00    -0.131 OA 
BRANCH  30  31
HETATM   31  C   UNL     1     -10.138   8.325  68.718  1.00  0.00    -0.200 C  
HETATM   32  O   UNL     1     -11.217   9.635  70.495  1.00  0.00    -0.255 OA 
HETATM   33  C   UNL     1      -9.895   6.046  70.549  1.00  0.00    -0.180 C  
HETATM   34  C   UNL     1     -11.060   8.298  69.990  1.00  0.00    -0.147 C  
HETATM   35  O   UNL     1      -9.686   7.022  68.381  1.00  0.00    -0.138 OA 
HETATM   36  O   UNL     1     -10.832   5.108  69.980  1.00  0.00    -0.169 OA 
HETATM   37  C   UNL     1     -10.646   7.302  71.121  1.00  0.00    -0.222 C  
HETATM   38  H   UNL     1     -11.438   4.838  70.661  1.00  0.00     0.000 HD 
HETATM   39  C   UNL     1      -9.128   5.285  71.633  1.00  0.00    -0.156 C  
HETATM   40  H   UNL     1     -11.775   9.619  71.264  1.00  0.00     0.000 HD 
HETATM   41  C   UNL     1      -8.923   6.478  69.458  1.00  0.00    -0.137 C  
BRANCH  37  42
HETATM   42  N   UNL     1     -11.790   6.816  71.944  1.00  0.00    -0.311 NA 
HETATM   43  H   UNL     1     -11.629   6.165  72.712  1.00  0.00     0.000 HD 
HETATM   44  C   UNL     1     -13.127   7.271  71.651  1.00  0.00    -0.369 C  
ENDBRANCH  37  42
ENDBRANCH  30  31
ENDBRANCH  10  30
ENDBRANCH   3   5
ENDBRANCH   2   3
TORSDOF 8
ENDMDL
MODEL       68
REMARK 921   NORMALIZED FREE ENERGY PREDICTED BY IDOCK:   -6.09 KCAL/MOL
REMARK 922        TOTAL FREE ENERGY PREDICTED BY IDOCK:   -9.68 KCAL/MOL
REMARK 923 INTER-LIGAND FREE ENERGY PREDICTED BY IDOCK:   -8.65 KCAL/MOL
REMARK 924 INTRA-LIGAND FREE ENERGY PREDICTED BY IDOCK:   -1.03 KCAL/MOL
REMARK 927      BINDING AFFINITY PREDICTED BY RF-SCORE:    0.00 PKD
ROOT
HETATM    1  C   UNL     1     -10.947   6.627  71.011  1.00  0.00    -0.305 C  
HETATM    2  C   UNL     1     -10.927   8.137  71.208  1.00  0.00    -0.240 C  
ENDROOT
BRANCH   2   3
HETATM    3  N   UNL     1     -11.729   8.794  70.172  1.00  0.00    -0.453 NA 
HETATM    4  H   UNL     1     -12.672   8.969  70.518  1.00  0.00     0.000 HD 
BRANCH   3   5
HETATM    5  C   UNL     1     -11.150  10.047  69.613  1.00  0.00    -0.259 C  
HETATM    6  C   UNL     1     -12.033  11.264  69.930  1.00  0.00    -0.440 C  
HETATM    7  C   UNL     1     -11.422  12.564  69.400  1.00  0.00    -0.263 C  
HETATM    8  C   UNL     1     -11.306  12.519  67.851  1.00  0.00    -0.291 C  
HETATM    9  N   UNL     1     -12.264  13.690  69.854  1.00  0.00    -0.322 NA 
HETATM   10  C   UNL     1     -10.782   9.922  68.107  1.00  0.00    -0.233 C  
HETATM   11  H2  UNL     1     -12.394  13.701  70.866  1.00  0.00     0.000 HD 
HETATM   12  H1  UNL     1     -11.857  14.556  69.501  1.00  0.00     0.000 HD 
HETATM   13  C   UNL     1     -10.544  11.256  67.371  1.00  0.00    -0.224 C  
HETATM   14  H   UNL     1     -10.374  10.196  65.686  1.00  0.00     0.000 HD 
HETATM   15  O   UNL     1     -10.840  10.969  65.980  1.00  0.00    -0.217 OA 
BRANCH   8  16
HETATM   16  O   UNL     1     -10.617  13.731  67.403  1.00  0.00    -0.257 OA 
BRANCH  16  17
HETATM   17  C   UNL     1     -11.491  14.743  66.851  1.00  0.00    -0.347 C  
HETATM   18  H1  UNL     1     -10.313  14.131  63.641  1.00  0.00     0.000 HD 
HETATM   19  O   UNL     1     -11.439  15.918  67.671  1.00  0.00    -0.221 OA 
HETATM   20  C   UNL     1     -10.582  16.917  67.263  1.00  0.00    -0.270 C  
HETATM   21  H2  UNL     1     -10.670  13.039  64.858  1.00  0.00     0.000 HD 
HETATM   22  N   UNL     1     -10.410  14.003  64.649  1.00  0.00    -0.409 NA 
HETATM   23  C   UNL     1     -10.408  17.183  65.962  1.00  0.00    -0.317 C  
HETATM   24  C   UNL     1     -11.343  14.940  65.305  1.00  0.00    -0.358 C  
HETATM   25  C   UNL     1     -11.126  16.405  64.914  1.00  0.00    -0.249 C  
BRANCH  20  26
HETATM   26  C   UNL     1      -9.961  17.678  68.412  1.00  0.00    -0.356 C  
HETATM   27  N   UNL     1     -10.262  19.108  68.441  1.00  0.00    -0.399 NA 
HETATM   28  H2  UNL     1     -11.271  19.255  68.426  1.00  0.00     0.000 HD 
HETATM   29  H1  UNL     1      -9.843  19.622  69.216  1.00  0.00     0.000 HD 
ENDBRANCH  20  26
ENDBRANCH  16  17
ENDBRANCH   8  16
BRANCH  10  30
HETATM   30  O   UNL     1      -9.735   8.924  67.835  1.00  0.00    -0.151 OA 
BRANCH  30  31
HETATM   31  C   UNL     1      -9.852   8.177  66.609  1.00  0.00    -0.261 C  
HETATM   32  O   UNL     1     -11.453   6.677  67.716  1.00  0.00    -0.654 OA 
HETATM   33  C   UNL     1      -7.929   5.971  66.406  1.00  0.00    -0.105 C  
HETATM   34  C   UNL     1     -10.396   6.709  66.743  1.00  0.00    -0.210 C  
HETATM   35  O   UNL     1      -8.610   8.207  65.921  1.00  0.00    -0.136 OA 
HETATM   36  O   UNL     1      -7.912   5.722  64.985  1.00  0.00    -0.107 OA 
HETATM   37  C   UNL     1      -9.328   5.600  67.017  1.00  0.00    -0.118 C  
HETATM   38  H   UNL     1      -8.094   4.800  64.839  1.00  0.00     0.000 HD 
HETATM   39  C   UNL     1      -6.795   5.134  67.003  1.00  0.00    -0.060 C  
HETATM   40  H   UNL     1     -11.782   5.790  67.797  1.00  0.00     0.000 HD 
HETATM   41  C   UNL     1      -7.638   7.447  66.640  1.00  0.00    -0.100 C  
BRANCH  37  42
HETATM   42  N   UNL     1      -9.712   4.254  66.502  1.00  0.00    -0.206 NA 
HETATM   43  H   UNL     1     -10.101   4.157  65.564  1.00  0.00     0.000 HD 
HETATM   44  C   UNL     1      -9.532   3.091  67.336  1.00  0.00    -0.111 C  
ENDBRANCH  37  42
ENDBRANCH  30  31
ENDBRANCH  10  30
ENDBRANCH   3   5
ENDBRANCH   2   3
TORSDOF 8
ENDMDL
MODEL       69
REMARK 921   NORMALIZED FREE ENERGY PREDICTED BY IDOCK:   -6.09 KCAL/MOL
REMARK 922        TOTAL FREE ENERGY PREDICTED BY IDOCK:   -9.68 KCAL/MOL
REMARK 923 INTER-LIGAND FREE ENERGY PREDICTED BY IDOCK:   -9.17 KCAL/MOL
REMARK 924 INTRA-LIGAND FREE ENERGY PREDICTED BY IDOCK:   -0.51 KCAL/MOL
REMARK 927      BINDING AFFINITY PREDICTED BY RF-SCORE:    0.00 PKD
ROOT
HETATM    1  C   UNL     1     -13.111  13.686  71.928  1.00  0.00    -0.476 C  
HETATM    2  C   UNL     1     -12.004  13.494  70.900  1.00  0.00    -0.093 C  
ENDROOT
BRANCH   2   3
HETATM    3  N   UNL     1     -12.465  12.622  69.817  1.00  0.00     0.018 NA 
HETATM    4  H   UNL     1     -12.399  13.109  68.923  1.00  0.00     0.000 HD 
BRANCH   3   5
HETATM    5  C   UNL     1     -11.786  11.299  69.727  1.00  0.00    -0.364 C  
HETATM    6  C   UNL     1     -11.908  10.515  71.042  1.00  0.00    -0.438 C  
HETATM    7  C   UNL     1     -11.254   9.134  70.944  1.00  0.00    -0.295 C  
HETATM    8  C   UNL     1      -9.730   9.272  70.676  1.00  0.00    -0.272 C  
HETATM    9  N   UNL     1     -11.525   8.403  72.199  1.00  0.00    -0.345 NA 
HETATM   10  C   UNL     1     -10.327  11.406  69.199  1.00  0.00    -0.094 C  
HETATM   11  H2  UNL     1     -12.520   8.351  72.417  1.00  0.00     0.000 HD 
HETATM   12  H1  UNL     1     -11.089   7.483  72.134  1.00  0.00     0.000 HD 
HETATM   13  C   UNL     1      -9.446  10.163  69.437  1.00  0.00    -0.224 C  
HETATM   14  H   UNL     1      -7.914  11.216  68.707  1.00  0.00     0.000 HD 
HETATM   15  O   UNL     1      -8.088  10.671  69.465  1.00  0.00    -0.135 OA 
BRANCH   8  16
HETATM   16  O   UNL     1      -9.171   7.933  70.480  1.00  0.00    -0.156 OA 
BRANCH  16  17
HETATM   17  C   UNL     1     -10.156   6.909  70.212  1.00  0.00    -0.183 C  
HETATM   18  H1  UNL     1      -8.293   4.544  71.945  1.00  0.00     0.000 HD 
HETATM   19  O   UNL     1     -10.557   6.977  68.838  1.00  0.00    -0.206 OA 
HETATM   20  C   UNL     1      -9.924   6.118  67.967  1.00  0.00    -0.141 C  
HETATM   21  H2  UNL     1      -8.577   6.148  72.328  1.00  0.00     0.000 HD 
HETATM   22  N   UNL     1      -8.537   5.463  71.574  1.00  0.00    -0.129 NA 
HETATM   23  C   UNL     1      -9.587   4.879  68.350  1.00  0.00    -0.201 C  
HETATM   24  C   UNL     1      -9.782   5.499  70.782  1.00  0.00    -0.177 C  
HETATM   25  C   UNL     1      -9.877   4.392  69.727  1.00  0.00    -0.284 C  
BRANCH  20  26
HETATM   26  C   UNL     1      -9.739   6.696  66.584  1.00  0.00    -0.159 C  
HETATM   27  N   UNL     1      -9.187   5.772  65.595  1.00  0.00    -0.328 NA 
HETATM   28  H2  UNL     1      -9.755   4.926  65.550  1.00  0.00     0.000 HD 
HETATM   29  H1  UNL     1      -9.063   6.162  64.661  1.00  0.00     0.000 HD 
ENDBRANCH  20  26
ENDBRANCH  16  17
ENDBRANCH   8  16
BRANCH  10  30
HETATM   30  O   UNL     1     -10.230  11.920  67.825  1.00  0.00    -0.193 OA 
BRANCH  30  31
HETATM   31  C   UNL     1     -10.997  11.235  66.817  1.00  0.00    -0.281 C  
HETATM   32  O   UNL     1      -8.915  10.775  65.595  1.00  0.00    -0.178 OA 
HETATM   33  C   UNL     1     -11.887  12.988  64.640  1.00  0.00    -0.372 C  
HETATM   34  C   UNL     1     -10.309  11.075  65.413  1.00  0.00    -0.268 C  
HETATM   35  O   UNL     1     -12.273  11.847  66.701  1.00  0.00    -0.493 OA 
HETATM   36  O   UNL     1     -12.976  12.230  64.074  1.00  0.00    -0.740 OA 
HETATM   37  C   UNL     1     -10.518  12.253  64.406  1.00  0.00    -0.325 C  
HETATM   38  H   UNL     1     -12.820  12.129  63.142  1.00  0.00     0.000 HD 
HETATM   39  C   UNL     1     -11.927  14.364  63.972  1.00  0.00    -0.288 C  
HETATM   40  H   UNL     1      -8.500  10.679  64.747  1.00  0.00     0.000 HD 
HETATM   41  C   UNL     1     -12.137  13.150  66.134  1.00  0.00    -0.417 C  
BRANCH  37  42
HETATM   42  N   UNL     1     -10.459  11.837  62.975  1.00  0.00    -0.673 NA 
HETATM   43  H   UNL     1     -11.207  12.102  62.334  1.00  0.00     0.000 HD 
HETATM   44  C   UNL     1      -9.341  11.060  62.501  1.00  0.00    -0.259 C  
ENDBRANCH  37  42
ENDBRANCH  30  31
ENDBRANCH  10  30
ENDBRANCH   3   5
ENDBRANCH   2   3
TORSDOF 8
ENDMDL
MODEL       70
REMARK 921   NORMALIZED FREE ENERGY PREDICTED BY IDOCK:   -6.08 KCAL/MOL
REMARK 922        TOTAL FREE ENERGY PREDICTED BY IDOCK:   -9.66 KCAL/MOL
REMARK 923 INTER-LIGAND FREE ENERGY PREDICTED BY IDOCK:   -8.90 KCAL/MOL
REMARK 924 INTRA-LIGAND FREE ENERGY PREDICTED BY IDOCK:   -0.76 KCAL/MOL
REMARK 927      BINDING AFFINITY PREDICTED BY RF-SCORE:    0.00 PKD
ROOT
HETATM    1  C   UNL     1     -13.981   7.532  71.731  1.00  0.00    -0.473 C  
HETATM    2  C   UNL     1     -14.096   9.047  71.636  1.00  0.00    -0.281 C  
ENDROOT
BRANCH   2   3
HETATM    3  N   UNL     1     -12.950   9.685  72.290  1.00  0.00    -0.386 NA 
HETATM    4  H   UNL     1     -12.252   8.983  72.535  1.00  0.00     0.000 HD 
BRANCH   3   5
HETATM    5  C   UNL     1     -12.313  10.793  71.527  1.00  0.00    -0.276 C  
HETATM    6  C   UNL     1     -13.079  12.113  71.706  1.00  0.00    -0.457 C  
HETATM    7  C   UNL     1     -12.403  13.268  70.962  1.00  0.00    -0.291 C  
HETATM    8  C   UNL     1     -12.386  12.995  69.433  1.00  0.00     0.027 C  
HETATM    9  N   UNL     1     -13.127  14.514  71.288  1.00  0.00    -0.335 NA 
HETATM   10  C   UNL     1     -12.047  10.425  70.039  1.00  0.00    -0.222 C  
HETATM   11  H2  UNL     1     -13.194  14.679  72.292  1.00  0.00     0.000 HD 
HETATM   12  H1  UNL     1     -12.678  15.284  70.793  1.00  0.00     0.000 HD 
HETATM   13  C   UNL     1     -11.753  11.616  69.106  1.00  0.00    -0.326 C  
HETATM   14  H   UNL     1     -11.767  10.318  67.587  1.00  0.00     0.000 HD 
HETATM   15  O   UNL     1     -12.154  11.162  67.788  1.00  0.00    -0.606 OA 
BRANCH   8  16
HETATM   16  O   UNL     1     -11.634  14.068  68.779  1.00  0.00    -0.286 OA 
BRANCH  16  17
HETATM   17  C   UNL     1     -10.479  13.619  68.035  1.00  0.00    -0.248 C  
HETATM   18  H1  UNL     1      -8.433  15.899  69.673  1.00  0.00     0.000 HD 
HETATM   19  O   UNL     1     -10.824  13.480  66.651  1.00  0.00    -0.281 OA 
HETATM   20  C   UNL     1     -10.517  14.543  65.829  1.00  0.00    -0.323 C  
HETATM   21  H2  UNL     1      -9.667  14.955  70.294  1.00  0.00     0.000 HD 
HETATM   22  N   UNL     1      -9.291  15.392  69.453  1.00  0.00    -0.265 NA 
HETATM   23  C   UNL     1      -9.398  15.254  66.017  1.00  0.00    -0.346 C  
HETATM   24  C   UNL     1      -9.162  14.396  68.372  1.00  0.00    -0.195 C  
HETATM   25  C   UNL     1      -8.454  14.927  67.121  1.00  0.00    -0.244 C  
BRANCH  20  26
HETATM   26  C   UNL     1     -11.512  14.739  64.709  1.00  0.00    -0.410 C  
HETATM   27  N   UNL     1     -12.681  13.864  64.758  1.00  0.00    -0.685 NA 
HETATM   28  H2  UNL     1     -13.147  13.950  65.662  1.00  0.00     0.000 HD 
HETATM   29  H1  UNL     1     -13.352  13.997  64.002  1.00  0.00     0.000 HD 
ENDBRANCH  20  26
ENDBRANCH  16  17
ENDBRANCH   8  16
BRANCH  10  30
HETATM   30  O   UNL     1     -11.099   9.314  69.864  1.00  0.00    -0.236 OA 
BRANCH  30  31
HETATM   31  C   UNL     1      -9.949   9.564  69.033  1.00  0.00    -0.180 C  
HETATM   32  O   UNL     1     -10.993   8.234  67.250  1.00  0.00    -0.474 OA 
HETATM   33  C   UNL     1      -7.848   7.536  69.315  1.00  0.00    -0.118 C  
HETATM   34  C   UNL     1      -9.725   8.563  67.843  1.00  0.00    -0.162 C  
HETATM   35  O   UNL     1      -8.792   9.663  69.850  1.00  0.00    -0.187 OA 
HETATM   36  O   UNL     1      -6.692   8.234  68.806  1.00  0.00    -0.055 OA 
HETATM   37  C   UNL     1      -8.892   7.281  68.167  1.00  0.00    -0.126 C  
HETATM   38  H   UNL     1      -6.297   7.704  68.123  1.00  0.00     0.000 HD 
HETATM   39  C   UNL     1      -7.330   6.233  69.927  1.00  0.00    -0.079 C  
HETATM   40  H   UNL     1     -10.857   7.629  66.530  1.00  0.00     0.000 HD 
HETATM   41  C   UNL     1      -8.481   8.386  70.409  1.00  0.00    -0.130 C  
BRANCH  37  42
HETATM   42  N   UNL     1      -8.157   6.728  66.994  1.00  0.00    -0.109 NA 
HETATM   43  H   UNL     1      -7.404   6.053  67.132  1.00  0.00     0.000 HD 
HETATM   44  C   UNL     1      -8.513   7.151  65.661  1.00  0.00    -0.134 C  
ENDBRANCH  37  42
ENDBRANCH  30  31
ENDBRANCH  10  30
ENDBRANCH   3   5
ENDBRANCH   2   3
TORSDOF 8
ENDMDL
MODEL       71
REMARK 921   NORMALIZED FREE ENERGY PREDICTED BY IDOCK:   -6.08 KCAL/MOL
REMARK 922        TOTAL FREE ENERGY PREDICTED BY IDOCK:   -9.66 KCAL/MOL
REMARK 923 INTER-LIGAND FREE ENERGY PREDICTED BY IDOCK:   -8.03 KCAL/MOL
REMARK 924 INTRA-LIGAND FREE ENERGY PREDICTED BY IDOCK:   -1.63 KCAL/MOL
REMARK 927      BINDING AFFINITY PREDICTED BY RF-SCORE:    0.00 PKD
ROOT
HETATM    1  C   UNL     1      -7.008   8.390  62.483  1.00  0.00    -0.090 C  
HETATM    2  C   UNL     1      -7.149   8.654  63.976  1.00  0.00    -0.090 C  
ENDROOT
BRANCH   2   3
HETATM    3  N   UNL     1      -8.323   7.955  64.506  1.00  0.00    -0.349 NA 
HETATM    4  H   UNL     1      -8.414   7.040  64.063  1.00  0.00     0.000 HD 
BRANCH   3   5
HETATM    5  C   UNL     1      -8.368   7.810  65.987  1.00  0.00    -0.133 C  
HETATM    6  C   UNL     1      -7.444   6.683  66.471  1.00  0.00    -0.078 C  
HETATM    7  C   UNL     1      -7.448   6.558  67.997  1.00  0.00    -0.095 C  
HETATM    8  C   UNL     1      -8.867   6.188  68.509  1.00  0.00    -0.113 C  
HETATM    9  N   UNL     1      -6.445   5.544  68.382  1.00  0.00    -0.038 NA 
HETATM   10  C   UNL     1      -9.819   7.705  66.538  1.00  0.00    -0.172 C  
HETATM   11  H2  UNL     1      -5.518   5.745  68.006  1.00  0.00     0.000 HD 
HETATM   12  H1  UNL     1      -6.448   5.461  69.398  1.00  0.00     0.000 HD 
HETATM   13  C   UNL     1      -9.941   7.177  67.982  1.00  0.00    -0.158 C  
HETATM   14  H   UNL     1     -11.922   7.195  67.728  1.00  0.00     0.000 HD 
HETATM   15  O   UNL     1     -11.265   6.590  68.051  1.00  0.00    -0.281 OA 
BRANCH   8  16
HETATM   16  O   UNL     1      -8.847   6.191  69.973  1.00  0.00    -0.140 OA 
BRANCH  16  17
HETATM   17  C   UNL     1      -8.712   7.504  70.565  1.00  0.00    -0.146 C  
HETATM   18  H1  UNL     1      -5.686   6.625  72.027  1.00  0.00     0.000 HD 
HETATM   19  O   UNL     1      -9.963   7.900  71.141  1.00  0.00    -0.173 OA 
HETATM   20  C   UNL     1     -10.117   7.679  72.493  1.00  0.00    -0.229 C  
HETATM   21  H2  UNL     1      -6.264   6.257  70.501  1.00  0.00     0.000 HD 
HETATM   22  N   UNL     1      -6.522   6.512  71.454  1.00  0.00    -0.049 NA 
HETATM   23  C   UNL     1      -9.086   7.829  73.334  1.00  0.00    -0.336 C  
HETATM   24  C   UNL     1      -7.429   7.677  71.445  1.00  0.00    -0.079 C  
HETATM   25  C   UNL     1      -7.740   8.231  72.839  1.00  0.00    -0.171 C  
BRANCH  20  26
HETATM   26  C   UNL     1     -11.536   7.339  72.886  1.00  0.00    -0.183 C  
HETATM   27  N   UNL     1     -12.488   8.443  72.780  1.00  0.00    -0.591 NA 
HETATM   28  H2  UNL     1     -12.468   8.836  71.839  1.00  0.00     0.000 HD 
HETATM   29  H1  UNL     1     -13.446   8.215  73.045  1.00  0.00     0.000 HD 
ENDBRANCH  20  26
ENDBRANCH  16  17
ENDBRANCH   8  16
BRANCH  10  30
HETATM   30  O   UNL     1     -10.633   8.907  66.298  1.00  0.00    -0.058 OA 
BRANCH  30  31
HETATM   31  C   UNL     1     -10.048  10.172  66.661  1.00  0.00    -0.223 C  
HETATM   32  O   UNL     1     -11.952  10.581  68.159  1.00  0.00    -0.788 OA 
HETATM   33  C   UNL     1     -10.921  12.389  64.949  1.00  0.00    -0.302 C  
HETATM   34  C   UNL     1     -11.029  11.236  67.274  1.00  0.00    -0.286 C  
HETATM   35  O   UNL     1      -9.344  10.700  65.547  1.00  0.00    -0.184 OA 
HETATM   36  O   UNL     1      -9.886  13.366  65.178  1.00  0.00    -0.528 OA 
HETATM   37  C   UNL     1     -11.768  12.161  66.253  1.00  0.00    -0.320 C  
HETATM   38  H   UNL     1     -10.295  14.182  65.443  1.00  0.00     0.000 HD 
HETATM   39  C   UNL     1     -11.769  12.923  63.793  1.00  0.00    -0.557 C  
HETATM   40  H   UNL     1     -12.545  11.225  68.530  1.00  0.00     0.000 HD 
HETATM   41  C   UNL     1     -10.265  11.081  64.525  1.00  0.00    -0.344 C  
BRANCH  37  42
HETATM   42  N   UNL     1     -12.129  13.498  66.805  1.00  0.00    -0.390 NA 
HETATM   43  H   UNL     1     -12.635  14.171  66.228  1.00  0.00     0.000 HD 
HETATM   44  C   UNL     1     -11.761  13.838  68.157  1.00  0.00    -0.357 C  
ENDBRANCH  37  42
ENDBRANCH  30  31
ENDBRANCH  10  30
ENDBRANCH   3   5
ENDBRANCH   2   3
TORSDOF 8
ENDMDL
MODEL       72
REMARK 921   NORMALIZED FREE ENERGY PREDICTED BY IDOCK:   -6.07 KCAL/MOL
REMARK 922        TOTAL FREE ENERGY PREDICTED BY IDOCK:   -9.65 KCAL/MOL
REMARK 923 INTER-LIGAND FREE ENERGY PREDICTED BY IDOCK:   -7.89 KCAL/MOL
REMARK 924 INTRA-LIGAND FREE ENERGY PREDICTED BY IDOCK:   -1.75 KCAL/MOL
REMARK 927      BINDING AFFINITY PREDICTED BY RF-SCORE:    0.00 PKD
ROOT
HETATM    1  C   UNL     1     -13.304  12.433  71.977  1.00  0.00    -0.511 C  
HETATM    2  C   UNL     1     -13.124  10.924  71.896  1.00  0.00    -0.432 C  
ENDROOT
BRANCH   2   3
HETATM    3  N   UNL     1     -13.017  10.501  70.497  1.00  0.00    -0.441 NA 
HETATM    4  H   UNL     1     -12.894  11.314  69.894  1.00  0.00     0.000 HD 
BRANCH   3   5
HETATM    5  C   UNL     1     -11.960   9.491  70.212  1.00  0.00     0.014 C  
HETATM    6  C   UNL     1     -12.035   8.308  71.190  1.00  0.00    -0.290 C  
HETATM    7  C   UNL     1     -10.981   7.242  70.875  1.00  0.00    -0.253 C  
HETATM    8  C   UNL     1      -9.551   7.828  71.031  1.00  0.00    -0.159 C  
HETATM    9  N   UNL     1     -11.203   6.092  71.776  1.00  0.00    -0.274 NA 
HETATM   10  C   UNL     1     -10.541  10.119  70.103  1.00  0.00    -0.281 C  
HETATM   11  H2  UNL     1     -12.155   5.731  71.724  1.00  0.00     0.000 HD 
HETATM   12  H1  UNL     1     -10.502   5.383  71.567  1.00  0.00     0.000 HD 
HETATM   13  C   UNL     1      -9.369   9.122  70.193  1.00  0.00    -0.209 C  
HETATM   14  H   UNL     1      -8.141  10.698  70.175  1.00  0.00     0.000 HD 
HETATM   15  O   UNL     1      -8.253   9.906  70.687  1.00  0.00    -0.210 OA 
BRANCH   8  16
HETATM   16  O   UNL     1      -8.585   6.810  70.614  1.00  0.00    -0.139 OA 
BRANCH  16  17
HETATM   17  C   UNL     1      -8.918   6.147  69.373  1.00  0.00    -0.128 C  
HETATM   18  H1  UNL     1      -7.722   3.115  70.575  1.00  0.00     0.000 HD 
HETATM   19  O   UNL     1      -8.499   6.959  68.269  1.00  0.00    -0.124 OA 
HETATM   20  C   UNL     1      -7.277   6.657  67.709  1.00  0.00    -0.091 C  
HETATM   21  H2  UNL     1      -8.617   4.284  71.371  1.00  0.00     0.000 HD 
HETATM   22  N   UNL     1      -7.975   4.103  70.599  1.00  0.00    -0.055 NA 
HETATM   23  C   UNL     1      -6.865   5.386  67.606  1.00  0.00    -0.060 C  
HETATM   24  C   UNL     1      -8.529   4.630  69.336  1.00  0.00    -0.081 C  
HETATM   25  C   UNL     1      -7.708   4.261  68.097  1.00  0.00    -0.075 C  
BRANCH  20  26
HETATM   26  C   UNL     1      -6.541   7.869  67.189  1.00  0.00    -0.060 C  
HETATM   27  N   UNL     1      -6.433   8.980  68.133  1.00  0.00    -0.059 NA 
HETATM   28  H2  UNL     1      -6.012   8.660  69.006  1.00  0.00     0.000 HD 
HETATM   29  H1  UNL     1      -5.936   9.798  67.782  1.00  0.00     0.000 HD 
ENDBRANCH  20  26
ENDBRANCH  16  17
ENDBRANCH   8  16
BRANCH  10  30
HETATM   30  O   UNL     1     -10.399  11.070  68.989  1.00  0.00    -0.208 OA 
BRANCH  30  31
HETATM   31  C   UNL     1     -11.102  10.757  67.772  1.00  0.00    -0.318 C  
HETATM   32  O   UNL     1      -8.957  10.175  66.723  1.00  0.00    -0.132 OA 
HETATM   33  C   UNL     1     -11.364  13.049  65.960  1.00  0.00    -0.310 C  
HETATM   34  C   UNL     1     -10.243  10.760  66.456  1.00  0.00    -0.235 C  
HETATM   35  O   UNL     1     -12.233  11.607  67.652  1.00  0.00    -0.544 OA 
HETATM   36  O   UNL     1     -12.460  12.637  65.117  1.00  0.00    -0.522 OA 
HETATM   37  C   UNL     1     -10.109  12.134  65.724  1.00  0.00    -0.247 C  
HETATM   38  H   UNL     1     -12.183  12.699  64.211  1.00  0.00     0.000 HD 
HETATM   39  C   UNL     1     -11.086  14.515  65.619  1.00  0.00    -0.327 C  
HETATM   40  H   UNL     1      -8.438  10.177  65.928  1.00  0.00     0.000 HD 
HETATM   41  C   UNL     1     -11.810  12.949  67.413  1.00  0.00    -0.360 C  
BRANCH  37  42
HETATM   42  N   UNL     1      -9.899  12.014  64.252  1.00  0.00    -0.459 NA 
HETATM   43  H   UNL     1      -9.600  12.824  63.710  1.00  0.00     0.000 HD 
HETATM   44  C   UNL     1     -10.121  10.748  63.599  1.00  0.00    -0.312 C  
ENDBRANCH  37  42
ENDBRANCH  30  31
ENDBRANCH  10  30
ENDBRANCH   3   5
ENDBRANCH   2   3
TORSDOF 8
ENDMDL
MODEL       73
REMARK 921   NORMALIZED FREE ENERGY PREDICTED BY IDOCK:   -6.05 KCAL/MOL
REMARK 922        TOTAL FREE ENERGY PREDICTED BY IDOCK:   -9.62 KCAL/MOL
REMARK 923 INTER-LIGAND FREE ENERGY PREDICTED BY IDOCK:   -8.03 KCAL/MOL
REMARK 924 INTRA-LIGAND FREE ENERGY PREDICTED BY IDOCK:   -1.60 KCAL/MOL
REMARK 927      BINDING AFFINITY PREDICTED BY RF-SCORE:    0.00 PKD
ROOT
HETATM    1  C   UNL     1     -13.830   8.869  72.440  1.00  0.00    -0.518 C  
HETATM    2  C   UNL     1     -13.133  10.074  71.823  1.00  0.00    -0.457 C  
ENDROOT
BRANCH   2   3
HETATM    3  N   UNL     1     -11.742   9.745  71.500  1.00  0.00    -0.389 NA 
HETATM    4  H   UNL     1     -11.257   9.420  72.337  1.00  0.00     0.000 HD 
BRANCH   3   5
HETATM    5  C   UNL     1     -11.556   8.769  70.391  1.00  0.00    -0.088 C  
HETATM    6  C   UNL     1     -11.023   7.424  70.909  1.00  0.00    -0.271 C  
HETATM    7  C   UNL     1     -10.874   6.399  69.781  1.00  0.00    -0.314 C  
HETATM    8  C   UNL     1      -9.836   6.889  68.734  1.00  0.00    -0.149 C  
HETATM    9  N   UNL     1     -10.480   5.107  70.379  1.00  0.00    -0.252 NA 
HETATM   10  C   UNL     1     -10.731   9.351  69.208  1.00  0.00    -0.211 C  
HETATM   11  H2  UNL     1     -11.124   4.799  71.108  1.00  0.00     0.000 HD 
HETATM   12  H1  UNL     1     -10.380   4.424  69.629  1.00  0.00     0.000 HD 
HETATM   13  C   UNL     1     -10.176   8.311  68.214  1.00  0.00    -0.208 C  
HETATM   14  H   UNL     1      -9.215   9.814  67.313  1.00  0.00     0.000 HD 
HETATM   15  O   UNL     1      -9.007   8.943  67.631  1.00  0.00    -0.133 OA 
BRANCH   8  16
HETATM   16  O   UNL     1      -9.810   5.934  67.624  1.00  0.00    -0.111 OA 
BRANCH  16  17
HETATM   17  C   UNL     1      -8.492   5.685  67.084  1.00  0.00    -0.110 C  
HETATM   18  H1  UNL     1      -9.767   3.390  64.809  1.00  0.00     0.000 HD 
HETATM   19  O   UNL     1      -7.555   5.533  68.157  1.00  0.00    -0.079 OA 
HETATM   20  C   UNL     1      -7.269   4.243  68.549  1.00  0.00    -0.056 C  
HETATM   21  H2  UNL     1     -10.403   4.861  65.289  1.00  0.00     0.000 HD 
HETATM   22  N   UNL     1      -9.787   4.091  65.549  1.00  0.00    -0.193 NA 
HETATM   23  C   UNL     1      -7.192   3.255  67.648  1.00  0.00    -0.054 C  
HETATM   24  C   UNL     1      -8.462   4.608  65.948  1.00  0.00    -0.116 C  
HETATM   25  C   UNL     1      -7.421   3.512  66.200  1.00  0.00    -0.077 C  
BRANCH  20  26
HETATM   26  C   UNL     1      -6.993   4.114  70.029  1.00  0.00    -0.041 C  
HETATM   27  N   UNL     1      -7.286   5.308  70.819  1.00  0.00    -0.063 NA 
HETATM   28  H2  UNL     1      -8.250   5.604  70.665  1.00  0.00     0.000 HD 
HETATM   29  H1  UNL     1      -7.100   5.221  71.819  1.00  0.00     0.000 HD 
ENDBRANCH  20  26
ENDBRANCH  16  17
ENDBRANCH   8  16
BRANCH  10  30
HETATM   30  O   UNL     1     -11.377  10.492  68.540  1.00  0.00    -0.272 OA 
BRANCH  30  31
HETATM   31  C   UNL     1     -10.579  11.676  68.357  1.00  0.00    -0.211 C  
HETATM   32  O   UNL     1     -11.784  12.735  70.218  1.00  0.00    -0.521 OA 
HETATM   33  C   UNL     1     -11.769  13.604  66.492  1.00  0.00    -0.382 C  
HETATM   34  C   UNL     1     -11.169  13.007  68.948  1.00  0.00    -0.278 C  
HETATM   35  O   UNL     1     -10.260  11.819  66.981  1.00  0.00    -0.210 OA 
HETATM   36  O   UNL     1     -10.626  14.401  66.120  1.00  0.00    -0.286 OA 
HETATM   37  C   UNL     1     -12.123  13.815  68.009  1.00  0.00    -0.280 C  
HETATM   38  H   UNL     1     -10.832  15.315  66.278  1.00  0.00     0.000 HD 
HETATM   39  C   UNL     1     -12.911  14.028  65.566  1.00  0.00    -0.453 C  
HETATM   40  H   UNL     1     -12.141  13.539  70.575  1.00  0.00     0.000 HD 
HETATM   41  C   UNL     1     -11.438  12.138  66.239  1.00  0.00    -0.374 C  
BRANCH  37  42
HETATM   42  N   UNL     1     -12.131  15.282  68.277  1.00  0.00    -0.519 NA 
HETATM   43  H   UNL     1     -12.720  15.901  67.720  1.00  0.00     0.000 HD 
HETATM   44  C   UNL     1     -11.303  15.822  69.328  1.00  0.00    -0.350 C  
ENDBRANCH  37  42
ENDBRANCH  30  31
ENDBRANCH  10  30
ENDBRANCH   3   5
ENDBRANCH   2   3
TORSDOF 8
ENDMDL
MODEL       74
REMARK 921   NORMALIZED FREE ENERGY PREDICTED BY IDOCK:   -6.03 KCAL/MOL
REMARK 922        TOTAL FREE ENERGY PREDICTED BY IDOCK:   -9.59 KCAL/MOL
REMARK 923 INTER-LIGAND FREE ENERGY PREDICTED BY IDOCK:   -8.78 KCAL/MOL
REMARK 924 INTRA-LIGAND FREE ENERGY PREDICTED BY IDOCK:   -0.81 KCAL/MOL
REMARK 927      BINDING AFFINITY PREDICTED BY RF-SCORE:    0.00 PKD
ROOT
HETATM    1  C   UNL     1      -9.126  10.998  62.525  1.00  0.00    -0.362 C  
HETATM    2  C   UNL     1      -9.925  11.780  63.558  1.00  0.00    -0.408 C  
ENDROOT
BRANCH   2   3
HETATM    3  N   UNL     1     -10.566  10.862  64.504  1.00  0.00    -0.322 NA 
HETATM    4  H   UNL     1     -10.017  10.006  64.586  1.00  0.00     0.000 HD 
BRANCH   3   5
HETATM    5  C   UNL     1     -10.839  11.423  65.856  1.00  0.00    -0.234 C  
HETATM    6  C   UNL     1     -11.382  12.858  65.769  1.00  0.00    -0.349 C  
HETATM    7  C   UNL     1     -11.710  13.427  67.153  1.00  0.00    -0.379 C  
HETATM    8  C   UNL     1     -10.427  13.513  68.024  1.00  0.00    -0.242 C  
HETATM    9  N   UNL     1     -12.340  14.751  66.971  1.00  0.00    -0.369 NA 
HETATM   10  C   UNL     1      -9.633  11.272  66.826  1.00  0.00    -0.193 C  
HETATM   11  H2  UNL     1     -13.153  14.719  66.356  1.00  0.00     0.000 HD 
HETATM   12  H1  UNL     1     -12.558  15.130  67.892  1.00  0.00     0.000 HD 
HETATM   13  C   UNL     1      -9.690  12.150  68.093  1.00  0.00    -0.208 C  
HETATM   14  H   UNL     1      -7.852  11.495  68.523  1.00  0.00     0.000 HD 
HETATM   15  O   UNL     1      -8.304  12.329  68.481  1.00  0.00    -0.151 OA 
BRANCH   8  16
HETATM   16  O   UNL     1     -10.808  13.955  69.367  1.00  0.00    -0.186 OA 
BRANCH  16  17
HETATM   17  C   UNL     1     -12.231  13.924  69.623  1.00  0.00    -0.321 C  
HETATM   18  H1  UNL     1     -12.018  16.753  71.626  1.00  0.00     0.000 HD 
HETATM   19  O   UNL     1     -12.635  12.581  69.921  1.00  0.00     0.019 OA 
HETATM   20  C   UNL     1     -12.730  12.247  71.254  1.00  0.00    -0.251 C  
HETATM   21  H2  UNL     1     -11.242  16.425  70.181  1.00  0.00     0.000 HD 
HETATM   22  N   UNL     1     -11.692  16.017  71.000  1.00  0.00    -0.417 NA 
HETATM   23  C   UNL     1     -13.174  13.135  72.154  1.00  0.00    -0.561 C  
HETATM   24  C   UNL     1     -12.731  15.053  70.586  1.00  0.00    -0.376 C  
HETATM   25  C   UNL     1     -13.571  14.511  71.747  1.00  0.00    -0.474 C  
BRANCH  20  26
HETATM   26  C   UNL     1     -12.363  10.809  71.539  1.00  0.00    -0.276 C  
HETATM   27  N   UNL     1     -12.831   9.843  70.547  1.00  0.00    -0.558 NA 
HETATM   28  H2  UNL     1     -12.510  10.111  69.616  1.00  0.00     0.000 HD 
HETATM   29  H1  UNL     1     -12.583   8.872  70.738  1.00  0.00     0.000 HD 
ENDBRANCH  20  26
ENDBRANCH  16  17
ENDBRANCH   8  16
BRANCH  10  30
HETATM   30  O   UNL     1      -9.277   9.874  67.115  1.00  0.00    -0.137 OA 
BRANCH  30  31
HETATM   31  C   UNL     1     -10.252   9.087  67.824  1.00  0.00    -0.230 C  
HETATM   32  O   UNL     1      -9.038   9.528  69.914  1.00  0.00    -0.182 OA 
HETATM   33  C   UNL     1      -9.539   6.247  68.011  1.00  0.00    -0.115 C  
HETATM   34  C   UNL     1      -9.806   8.528  69.223  1.00  0.00    -0.185 C  
HETATM   35  O   UNL     1     -10.720   8.046  66.978  1.00  0.00    -0.328 OA 
HETATM   36  O   UNL     1     -10.816   5.639  68.294  1.00  0.00    -0.203 OA 
HETATM   37  C   UNL     1      -9.075   7.147  69.213  1.00  0.00    -0.137 C  
HETATM   38  H   UNL     1     -10.730   5.109  69.079  1.00  0.00     0.000 HD 
HETATM   39  C   UNL     1      -8.566   5.099  67.737  1.00  0.00    -0.103 C  
HETATM   40  H   UNL     1      -8.768   9.191  70.760  1.00  0.00     0.000 HD 
HETATM   41  C   UNL     1      -9.678   7.096  66.754  1.00  0.00    -0.192 C  
BRANCH  37  42
HETATM   42  N   UNL     1      -9.253   6.363  70.469  1.00  0.00    -0.158 NA 
HETATM   43  H   UNL     1      -8.687   5.530  70.637  1.00  0.00     0.000 HD 
HETATM   44  C   UNL     1     -10.227   6.784  71.445  1.00  0.00    -0.198 C  
ENDBRANCH  37  42
ENDBRANCH  30  31
ENDBRANCH  10  30
ENDBRANCH   3   5
ENDBRANCH   2   3
TORSDOF 8
ENDMDL
MODEL       75
REMARK 921   NORMALIZED FREE ENERGY PREDICTED BY IDOCK:   -5.99 KCAL/MOL
REMARK 922        TOTAL FREE ENERGY PREDICTED BY IDOCK:   -9.53 KCAL/MOL
REMARK 923 INTER-LIGAND FREE ENERGY PREDICTED BY IDOCK:   -9.06 KCAL/MOL
REMARK 924 INTRA-LIGAND FREE ENERGY PREDICTED BY IDOCK:   -0.47 KCAL/MOL
REMARK 927      BINDING AFFINITY PREDICTED BY RF-SCORE:    0.00 PKD
ROOT
HETATM    1  C   UNL     1     -13.280  10.370  71.980  1.00  0.00    -0.497 C  
HETATM    2  C   UNL     1     -12.190  10.448  70.919  1.00  0.00    -0.383 C  
ENDROOT
BRANCH   2   3
HETATM    3  N   UNL     1     -12.661  11.220  69.765  1.00  0.00    -0.107 NA 
HETATM    4  H   UNL     1     -13.651  11.442  69.874  1.00  0.00     0.000 HD 
BRANCH   3   5
HETATM    5  C   UNL     1     -11.890  12.458  69.466  1.00  0.00    -0.303 C  
HETATM    6  C   UNL     1     -12.316  13.619  70.378  1.00  0.00    -0.415 C  
HETATM    7  C   UNL     1     -11.495  14.884  70.109  1.00  0.00    -0.279 C  
HETATM    8  C   UNL     1     -11.726  15.383  68.656  1.00  0.00    -0.354 C  
HETATM    9  N   UNL     1     -11.879  15.905  71.106  1.00  0.00    -0.410 NA 
HETATM   10  C   UNL     1     -11.897  12.821  67.953  1.00  0.00    -0.339 C  
HETATM   11  H2  UNL     1     -11.784  15.572  72.065  1.00  0.00     0.000 HD 
HETATM   12  H1  UNL     1     -11.333  16.747  70.927  1.00  0.00     0.000 HD 
HETATM   13  C   UNL     1     -11.461  14.261  67.617  1.00  0.00    -0.346 C  
HETATM   14  H   UNL     1     -11.948  13.873  65.719  1.00  0.00     0.000 HD 
HETATM   15  O   UNL     1     -12.110  14.560  66.355  1.00  0.00    -0.385 OA 
BRANCH   8  16
HETATM   16  O   UNL     1     -10.840  16.523  68.411  1.00  0.00    -0.319 OA 
BRANCH  16  17
HETATM   17  C   UNL     1      -9.986  16.377  67.253  1.00  0.00    -0.258 C  
HETATM   18  H1  UNL     1      -7.269  15.556  69.255  1.00  0.00     0.000 HD 
HETATM   19  O   UNL     1     -10.204  17.472  66.356  1.00  0.00    -0.334 OA 
HETATM   20  C   UNL     1      -9.326  18.530  66.448  1.00  0.00    -0.282 C  
HETATM   21  H2  UNL     1      -8.867  15.082  69.402  1.00  0.00     0.000 HD 
HETATM   22  N   UNL     1      -8.236  15.792  69.032  1.00  0.00    -0.217 NA 
HETATM   23  C   UNL     1      -8.029  18.323  66.710  1.00  0.00    -0.263 C  
HETATM   24  C   UNL     1      -8.502  16.015  67.597  1.00  0.00    -0.158 C  
HETATM   25  C   UNL     1      -7.494  16.948  66.918  1.00  0.00    -0.254 C  
BRANCH  20  26
HETATM   26  C   UNL     1      -9.966  19.867  66.156  1.00  0.00    -0.487 C  
HETATM   27  N   UNL     1      -9.364  21.005  66.848  1.00  0.00    -0.605 NA 
HETATM   28  H2  UNL     1      -8.363  21.045  66.656  1.00  0.00     0.000 HD 
HETATM   29  H1  UNL     1      -9.796  21.908  66.651  1.00  0.00     0.000 HD 
ENDBRANCH  20  26
ENDBRANCH  16  17
ENDBRANCH   8  16
BRANCH  10  30
HETATM   30  O   UNL     1     -11.248  11.813  67.100  1.00  0.00    -0.280 OA 
BRANCH  30  31
HETATM   31  C   UNL     1     -10.395  10.856  67.756  1.00  0.00    -0.187 C  
HETATM   32  O   UNL     1      -8.864  12.684  68.353  1.00  0.00    -0.247 OA 
HETATM   33  C   UNL     1      -8.347   9.721  65.989  1.00  0.00    -0.120 C  
HETATM   34  C   UNL     1      -8.902  11.297  67.977  1.00  0.00    -0.148 C  
HETATM   35  O   UNL     1     -10.471   9.614  67.074  1.00  0.00    -0.247 OA 
HETATM   36  O   UNL     1      -7.984   8.515  66.692  1.00  0.00    -0.098 OA 
HETATM   37  C   UNL     1      -7.913  10.992  66.805  1.00  0.00    -0.152 C  
HETATM   38  H   UNL     1      -7.041   8.512  66.817  1.00  0.00     0.000 HD 
HETATM   39  C   UNL     1      -7.660   9.647  64.623  1.00  0.00    -0.126 C  
HETATM   40  H   UNL     1      -7.962  12.950  68.486  1.00  0.00     0.000 HD 
HETATM   41  C   UNL     1      -9.857   9.726  65.789  1.00  0.00    -0.290 C  
BRANCH  37  42
HETATM   42  N   UNL     1      -6.502  10.795  67.245  1.00  0.00    -0.066 NA 
HETATM   43  H   UNL     1      -6.258  10.006  67.845  1.00  0.00     0.000 HD 
HETATM   44  C   UNL     1      -5.483  11.722  66.820  1.00  0.00    -0.099 C  
ENDBRANCH  37  42
ENDBRANCH  30  31
ENDBRANCH  10  30
ENDBRANCH   3   5
ENDBRANCH   2   3
TORSDOF 8
ENDMDL
MODEL       76
REMARK 921   NORMALIZED FREE ENERGY PREDICTED BY IDOCK:   -5.98 KCAL/MOL
REMARK 922        TOTAL FREE ENERGY PREDICTED BY IDOCK:   -9.52 KCAL/MOL
REMARK 923 INTER-LIGAND FREE ENERGY PREDICTED BY IDOCK:   -8.03 KCAL/MOL
REMARK 924 INTRA-LIGAND FREE ENERGY PREDICTED BY IDOCK:   -1.49 KCAL/MOL
REMARK 927      BINDING AFFINITY PREDICTED BY RF-SCORE:    0.00 PKD
ROOT
HETATM    1  C   UNL     1     -12.150  13.292  63.422  1.00  0.00    -0.508 C  
HETATM    2  C   UNL     1     -12.713  13.215  64.835  1.00  0.00    -0.356 C  
ENDROOT
BRANCH   2   3
HETATM    3  N   UNL     1     -11.682  13.579  65.811  1.00  0.00    -0.332 NA 
HETATM    4  H   UNL     1     -12.084  13.610  66.748  1.00  0.00     0.000 HD 
BRANCH   3   5
HETATM    5  C   UNL     1     -10.464  12.722  65.807  1.00  0.00    -0.276 C  
HETATM    6  C   UNL     1     -10.826  11.231  65.896  1.00  0.00    -0.264 C  
HETATM    7  C   UNL     1      -9.581  10.340  65.844  1.00  0.00    -0.209 C  
HETATM    8  C   UNL     1      -8.658  10.624  67.061  1.00  0.00    -0.128 C  
HETATM    9  N   UNL     1     -10.023   8.931  65.808  1.00  0.00    -0.428 NA 
HETATM   10  C   UNL     1      -9.408  13.170  66.857  1.00  0.00    -0.246 C  
HETATM   11  H2  UNL     1     -10.673   8.742  65.046  1.00  0.00     0.000 HD 
HETATM   12  H1  UNL     1      -9.195   8.337  65.774  1.00  0.00     0.000 HD 
HETATM   13  C   UNL     1      -8.314  12.132  67.179  1.00  0.00    -0.183 C  
HETATM   14  H   UNL     1      -7.665  13.384  68.594  1.00  0.00     0.000 HD 
HETATM   15  O   UNL     1      -7.875  12.461  68.522  1.00  0.00    -0.137 OA 
BRANCH   8  16
HETATM   16  O   UNL     1      -7.435   9.832  66.910  1.00  0.00    -0.091 OA 
BRANCH  16  17
HETATM   17  C   UNL     1      -7.180   8.915  67.998  1.00  0.00    -0.083 C  
HETATM   18  H1  UNL     1      -6.999   6.229  65.804  1.00  0.00     0.000 HD 
HETATM   19  O   UNL     1      -8.078   9.195  69.080  1.00  0.00    -0.099 OA 
HETATM   20  C   UNL     1      -9.220   8.428  69.149  1.00  0.00    -0.150 C  
HETATM   21  H2  UNL     1      -6.395   7.779  65.623  1.00  0.00     0.000 HD 
HETATM   22  N   UNL     1      -7.092   7.202  66.094  1.00  0.00    -0.072 NA 
HETATM   23  C   UNL     1      -9.195   7.130  68.816  1.00  0.00    -0.136 C  
HETATM   24  C   UNL     1      -7.037   7.421  67.553  1.00  0.00    -0.088 C  
HETATM   25  C   UNL     1      -7.939   6.477  68.355  1.00  0.00    -0.110 C  
BRANCH  20  26
HETATM   26  C   UNL     1     -10.414   9.179  69.689  1.00  0.00    -0.223 C  
HETATM   27  N   UNL     1     -10.127  10.522  70.188  1.00  0.00    -0.388 NA 
HETATM   28  H2  UNL     1      -9.662  11.073  69.467  1.00  0.00     0.000 HD 
HETATM   29  H1  UNL     1     -10.933  11.029  70.553  1.00  0.00     0.000 HD 
ENDBRANCH  20  26
ENDBRANCH  16  17
ENDBRANCH   8  16
BRANCH  10  30
HETATM   30  O   UNL     1      -8.866  14.516  66.616  1.00  0.00    -0.243 OA 
BRANCH  30  31
HETATM   31  C   UNL     1      -9.442  15.596  67.375  1.00  0.00    -0.215 C  
HETATM   32  O   UNL     1     -10.445  16.468  65.308  1.00  0.00    -0.590 OA 
HETATM   33  C   UNL     1      -7.712  17.960  67.530  1.00  0.00    -0.211 C  
HETATM   34  C   UNL     1      -9.860  16.871  66.557  1.00  0.00    -0.296 C  
HETATM   35  O   UNL     1      -8.574  15.931  68.447  1.00  0.00    -0.168 OA 
HETATM   36  O   UNL     1      -8.253  18.648  68.677  1.00  0.00    -0.328 OA 
HETATM   37  C   UNL     1      -8.748  17.950  66.349  1.00  0.00    -0.224 C  
HETATM   38  H   UNL     1      -8.459  19.540  68.422  1.00  0.00     0.000 HD 
HETATM   39  C   UNL     1      -6.418  18.688  67.161  1.00  0.00    -0.196 C  
HETATM   40  H   UNL     1     -10.697  17.238  64.814  1.00  0.00     0.000 HD 
HETATM   41  C   UNL     1      -7.382  16.530  67.938  1.00  0.00    -0.136 C  
BRANCH  37  42
HETATM   42  N   UNL     1      -9.277  19.336  66.192  1.00  0.00    -0.433 NA 
HETATM   43  H   UNL     1      -8.665  20.084  65.865  1.00  0.00     0.000 HD 
HETATM   44  C   UNL     1     -10.657  19.616  66.505  1.00  0.00    -0.482 C  
ENDBRANCH  37  42
ENDBRANCH  30  31
ENDBRANCH  10  30
ENDBRANCH   3   5
ENDBRANCH   2   3
TORSDOF 8
ENDMDL
MODEL       77
REMARK 921   NORMALIZED FREE ENERGY PREDICTED BY IDOCK:   -5.98 KCAL/MOL
REMARK 922        TOTAL FREE ENERGY PREDICTED BY IDOCK:   -9.52 KCAL/MOL
REMARK 923 INTER-LIGAND FREE ENERGY PREDICTED BY IDOCK:   -9.41 KCAL/MOL
REMARK 924 INTRA-LIGAND FREE ENERGY PREDICTED BY IDOCK:   -0.11 KCAL/MOL
REMARK 927      BINDING AFFINITY PREDICTED BY RF-SCORE:    0.00 PKD
ROOT
HETATM    1  C   UNL     1     -13.156   9.971  71.302  1.00  0.00    -0.493 C  
HETATM    2  C   UNL     1     -12.565  11.328  70.942  1.00  0.00    -0.371 C  
ENDROOT
BRANCH   2   3
HETATM    3  N   UNL     1     -12.177  11.352  69.529  1.00  0.00    -0.274 NA 
HETATM    4  H   UNL     1     -12.990  11.170  68.940  1.00  0.00     0.000 HD 
BRANCH   3   5
HETATM    5  C   UNL     1     -11.486  12.591  69.076  1.00  0.00    -0.304 C  
HETATM    6  C   UNL     1     -11.950  13.818  69.876  1.00  0.00    -0.412 C  
HETATM    7  C   UNL     1     -11.210  15.089  69.450  1.00  0.00    -0.284 C  
HETATM    8  C   UNL     1     -11.510  15.419  67.961  1.00  0.00    -0.326 C  
HETATM    9  N   UNL     1     -11.621  16.188  70.347  1.00  0.00    -0.435 NA 
HETATM   10  C   UNL     1     -11.556  12.791  67.535  1.00  0.00    -0.356 C  
HETATM   11  H2  UNL     1     -11.481  15.963  71.333  1.00  0.00     0.000 HD 
HETATM   12  H1  UNL     1     -11.129  17.034  70.063  1.00  0.00     0.000 HD 
HETATM   13  C   UNL     1     -11.212  14.209  67.036  1.00  0.00    -0.318 C  
HETATM   14  H   UNL     1     -11.731  13.597  65.207  1.00  0.00     0.000 HD 
HETATM   15  O   UNL     1     -11.913  14.337  65.773  1.00  0.00    -0.375 OA 
BRANCH   8  16
HETATM   16  O   UNL     1     -10.696  16.572  67.569  1.00  0.00    -0.321 OA 
BRANCH  16  17
HETATM   17  C   UNL     1      -9.978  17.192  68.660  1.00  0.00    -0.313 C  
HETATM   18  H1  UNL     1     -10.230  20.316  67.161  1.00  0.00     0.000 HD 
HETATM   19  O   UNL     1      -8.837  16.394  68.998  1.00  0.00    -0.253 OA 
HETATM   20  C   UNL     1      -7.634  16.769  68.440  1.00  0.00    -0.205 C  
HETATM   21  H2  UNL     1     -11.377  19.101  67.265  1.00  0.00     0.000 HD 
HETATM   22  N   UNL     1     -10.380  19.314  67.279  1.00  0.00    -0.405 NA 
HETATM   23  C   UNL     1      -7.331  18.062  68.269  1.00  0.00    -0.259 C  
HETATM   24  C   UNL     1      -9.749  18.731  68.480  1.00  0.00    -0.380 C  
HETATM   25  C   UNL     1      -8.283  19.136  68.668  1.00  0.00    -0.404 C  
BRANCH  20  26
HETATM   26  C   UNL     1      -6.726  15.601  68.135  1.00  0.00    -0.125 C  
HETATM   27  N   UNL     1      -7.109  14.807  66.969  1.00  0.00    -0.338 NA 
HETATM   28  H2  UNL     1      -7.198  15.406  66.149  1.00  0.00     0.000 HD 
HETATM   29  H1  UNL     1      -6.495  14.018  66.763  1.00  0.00     0.000 HD 
ENDBRANCH  20  26
ENDBRANCH  16  17
ENDBRANCH   8  16
BRANCH  10  30
HETATM   30  O   UNL     1     -10.876  11.735  66.769  1.00  0.00    -0.245 OA 
BRANCH  30  31
HETATM   31  C   UNL     1      -9.737  12.132  65.982  1.00  0.00    -0.244 C  
HETATM   32  O   UNL     1     -10.671  10.896  64.074  1.00  0.00    -0.475 OA 
HETATM   33  C   UNL     1      -7.508  10.230  66.122  1.00  0.00    -0.121 C  
HETATM   34  C   UNL     1      -9.434  11.255  64.713  1.00  0.00    -0.194 C  
HETATM   35  O   UNL     1      -8.598  12.235  66.823  1.00  0.00    -0.194 OA 
HETATM   36  O   UNL     1      -6.397  11.044  65.694  1.00  0.00    -0.343 OA 
HETATM   37  C   UNL     1      -8.520  10.008  64.940  1.00  0.00    -0.166 C  
HETATM   38  H   UNL     1      -5.960  10.603  64.974  1.00  0.00     0.000 HD 
HETATM   39  C   UNL     1      -6.910   8.916  66.627  1.00  0.00    -0.076 C  
HETATM   40  H   UNL     1     -10.487  10.366  63.307  1.00  0.00     0.000 HD 
HETATM   41  C   UNL     1      -8.208  10.937  67.274  1.00  0.00    -0.123 C  
BRANCH  37  42
HETATM   42  N   UNL     1      -7.737   9.608  63.735  1.00  0.00    -0.124 NA 
HETATM   43  H   UNL     1      -7.023  10.232  63.358  1.00  0.00     0.000 HD 
HETATM   44  C   UNL     1      -7.995   8.338  63.103  1.00  0.00    -0.158 C  
ENDBRANCH  37  42
ENDBRANCH  30  31
ENDBRANCH  10  30
ENDBRANCH   3   5
ENDBRANCH   2   3
TORSDOF 8
ENDMDL
MODEL       78
REMARK 921   NORMALIZED FREE ENERGY PREDICTED BY IDOCK:   -5.93 KCAL/MOL
REMARK 922        TOTAL FREE ENERGY PREDICTED BY IDOCK:   -9.44 KCAL/MOL
REMARK 923 INTER-LIGAND FREE ENERGY PREDICTED BY IDOCK:   -7.85 KCAL/MOL
REMARK 924 INTRA-LIGAND FREE ENERGY PREDICTED BY IDOCK:   -1.59 KCAL/MOL
REMARK 927      BINDING AFFINITY PREDICTED BY RF-SCORE:    0.00 PKD
ROOT
HETATM    1  C   UNL     1      -7.565   6.841  66.484  1.00  0.00    -0.089 C  
HETATM    2  C   UNL     1      -6.400   7.800  66.690  1.00  0.00    -0.050 C  
ENDROOT
BRANCH   2   3
HETATM    3  N   UNL     1      -6.864   9.029  67.339  1.00  0.00    -0.076 NA 
HETATM    4  H   UNL     1      -6.228   9.798  67.127  1.00  0.00     0.000 HD 
BRANCH   3   5
HETATM    5  C   UNL     1      -8.265   9.427  67.028  1.00  0.00    -0.116 C  
HETATM    6  C   UNL     1      -8.315  10.501  65.932  1.00  0.00    -0.161 C  
HETATM    7  C   UNL     1      -9.754  10.882  65.573  1.00  0.00    -0.233 C  
HETATM    8  C   UNL     1     -10.476  11.500  66.802  1.00  0.00    -0.239 C  
HETATM    9  N   UNL     1      -9.714  11.821  64.433  1.00  0.00    -0.410 NA 
HETATM   10  C   UNL     1      -9.082   9.797  68.300  1.00  0.00    -0.122 C  
HETATM   11  H2  UNL     1      -9.196  11.449  63.636  1.00  0.00     0.000 HD 
HETATM   12  H1  UNL     1     -10.672  12.074  64.194  1.00  0.00     0.000 HD 
HETATM   13  C   UNL     1     -10.390  10.572  68.042  1.00  0.00    -0.181 C  
HETATM   14  H   UNL     1     -10.573  10.749  70.024  1.00  0.00     0.000 HD 
HETATM   15  O   UNL     1     -10.626  11.317  69.265  1.00  0.00    -0.212 OA 
BRANCH   8  16
HETATM   16  O   UNL     1     -11.875  11.744  66.444  1.00  0.00    -0.534 OA 
BRANCH  16  17
HETATM   17  C   UNL     1     -12.252  13.140  66.430  1.00  0.00    -0.329 C  
HETATM   18  H1  UNL     1     -12.675  13.077  62.983  1.00  0.00     0.000 HD 
HETATM   19  O   UNL     1     -11.354  13.887  67.260  1.00  0.00    -0.298 OA 
HETATM   20  C   UNL     1     -10.303  14.513  66.626  1.00  0.00    -0.274 C  
HETATM   21  H2  UNL     1     -13.103  11.924  64.117  1.00  0.00     0.000 HD 
HETATM   22  N   UNL     1     -12.483  12.708  63.914  1.00  0.00    -0.653 NA 
HETATM   23  C   UNL     1     -10.461  15.056  65.411  1.00  0.00    -0.406 C  
HETATM   24  C   UNL     1     -12.546  13.706  65.000  1.00  0.00    -0.390 C  
HETATM   25  C   UNL     1     -11.770  14.994  64.704  1.00  0.00    -0.383 C  
BRANCH  20  26
HETATM   26  C   UNL     1      -9.047  14.571  67.463  1.00  0.00    -0.193 C  
HETATM   27  N   UNL     1      -9.109  13.834  68.723  1.00  0.00    -0.386 NA 
HETATM   28  H2  UNL     1      -9.372  12.864  68.551  1.00  0.00     0.000 HD 
HETATM   29  H1  UNL     1      -8.260  13.873  69.289  1.00  0.00     0.000 HD 
ENDBRANCH  20  26
ENDBRANCH  16  17
ENDBRANCH   8  16
BRANCH  10  30
HETATM   30  O   UNL     1      -9.256   8.678  69.239  1.00  0.00    -0.148 OA 
BRANCH  30  31
HETATM   31  C   UNL     1      -8.531   8.752  70.481  1.00  0.00    -0.166 C  
HETATM   32  O   UNL     1      -7.447   6.615  69.935  1.00  0.00    -0.090 OA 
HETATM   33  C   UNL     1      -9.928   7.469  72.720  1.00  0.00    -0.227 C  
HETATM   34  C   UNL     1      -7.958   7.395  71.029  1.00  0.00    -0.097 C  
HETATM   35  O   UNL     1      -9.333   9.404  71.454  1.00  0.00    -0.265 OA 
HETATM   36  O   UNL     1      -9.286   8.079  73.858  1.00  0.00    -0.331 OA 
HETATM   37  C   UNL     1      -8.917   6.557  71.935  1.00  0.00    -0.137 C  
HETATM   38  H   UNL     1      -8.965   7.389  74.428  1.00  0.00     0.000 HD 
HETATM   39  C   UNL     1     -11.117   6.678  73.268  1.00  0.00    -0.152 C  
HETATM   40  H   UNL     1      -7.100   5.796  70.267  1.00  0.00     0.000 HD 
HETATM   41  C   UNL     1     -10.441   8.575  71.807  1.00  0.00    -0.300 C  
BRANCH  37  42
HETATM   42  N   UNL     1      -8.210   5.697  72.927  1.00  0.00    -0.118 NA 
HETATM   43  H   UNL     1      -7.927   6.082  73.828  1.00  0.00     0.000 HD 
HETATM   44  C   UNL     1      -7.926   4.320  72.607  1.00  0.00    -0.085 C  
ENDBRANCH  37  42
ENDBRANCH  30  31
ENDBRANCH  10  30
ENDBRANCH   3   5
ENDBRANCH   2   3
TORSDOF 8
ENDMDL
MODEL       79
REMARK 921   NORMALIZED FREE ENERGY PREDICTED BY IDOCK:   -5.93 KCAL/MOL
REMARK 922        TOTAL FREE ENERGY PREDICTED BY IDOCK:   -9.44 KCAL/MOL
REMARK 923 INTER-LIGAND FREE ENERGY PREDICTED BY IDOCK:   -7.46 KCAL/MOL
REMARK 924 INTRA-LIGAND FREE ENERGY PREDICTED BY IDOCK:   -1.98 KCAL/MOL
REMARK 927      BINDING AFFINITY PREDICTED BY RF-SCORE:    0.00 PKD
ROOT
HETATM    1  C   UNL     1      -9.908   7.974  73.029  1.00  0.00    -0.352 C  
HETATM    2  C   UNL     1     -10.044   7.727  71.532  1.00  0.00    -0.178 C  
ENDROOT
BRANCH   2   3
HETATM    3  N   UNL     1      -8.741   7.863  70.876  1.00  0.00    -0.135 NA 
HETATM    4  H   UNL     1      -8.326   6.943  70.730  1.00  0.00     0.000 HD 
BRANCH   3   5
HETATM    5  C   UNL     1      -8.744   8.630  69.600  1.00  0.00    -0.132 C  
HETATM    6  C   UNL     1      -9.298  10.049  69.798  1.00  0.00    -0.233 C  
HETATM    7  C   UNL     1      -9.261  10.861  68.500  1.00  0.00    -0.181 C  
HETATM    8  C   UNL     1     -10.165  10.203  67.421  1.00  0.00    -0.218 C  
HETATM    9  N   UNL     1      -9.689  12.242  68.805  1.00  0.00    -0.411 NA 
HETATM   10  C   UNL     1      -9.422   7.855  68.433  1.00  0.00    -0.148 C  
HETATM   11  H2  UNL     1      -9.139  12.668  69.550  1.00  0.00     0.000 HD 
HETATM   12  H1  UNL     1      -9.665  12.782  67.941  1.00  0.00     0.000 HD 
HETATM   13  C   UNL     1      -9.805   8.709  67.208  1.00  0.00    -0.197 C  
HETATM   14  H   UNL     1     -10.685   7.080  66.457  1.00  0.00     0.000 HD 
HETATM   15  O   UNL     1     -10.905   7.994  66.588  1.00  0.00    -0.115 OA 
BRANCH   8  16
HETATM   16  O   UNL     1     -10.010  10.948  66.170  1.00  0.00    -0.216 OA 
BRANCH  16  17
HETATM   17  C   UNL     1     -11.258  11.292  65.523  1.00  0.00     0.001 C  
HETATM   18  H1  UNL     1      -9.709  11.426  62.417  1.00  0.00     0.000 HD 
HETATM   19  O   UNL     1     -11.932  12.298  66.289  1.00  0.00    -0.588 OA 
HETATM   20  C   UNL     1     -11.754  13.603  65.886  1.00  0.00    -0.354 C  
HETATM   21  H2  UNL     1      -9.481  10.330  63.661  1.00  0.00     0.000 HD 
HETATM   22  N   UNL     1      -9.790  11.272  63.422  1.00  0.00    -0.345 NA 
HETATM   23  C   UNL     1     -11.664  13.913  64.586  1.00  0.00    -0.413 C  
HETATM   24  C   UNL     1     -11.133  11.528  63.981  1.00  0.00    -0.365 C  
HETATM   25  C   UNL     1     -11.745  12.860  63.536  1.00  0.00    -0.576 C  
BRANCH  20  26
HETATM   26  C   UNL     1     -11.751  14.589  67.031  1.00  0.00    -0.393 C  
HETATM   27  N   UNL     1     -12.272  14.071  68.295  1.00  0.00    -0.540 NA 
HETATM   28  H2  UNL     1     -11.772  13.222  68.560  1.00  0.00     0.000 HD 
HETATM   29  H1  UNL     1     -12.270  14.736  69.068  1.00  0.00     0.000 HD 
ENDBRANCH  20  26
ENDBRANCH  16  17
ENDBRANCH   8  16
BRANCH  10  30
HETATM   30  O   UNL     1      -8.730   6.609  68.069  1.00  0.00    -0.118 OA 
BRANCH  30  31
HETATM   31  C   UNL     1      -9.415   5.376  68.358  1.00  0.00    -0.123 C  
HETATM   32  O   UNL     1      -7.704   4.864  70.047  1.00  0.00    -0.058 OA 
HETATM   33  C   UNL     1      -8.483   3.119  66.732  1.00  0.00    -0.104 C  
HETATM   34  C   UNL     1      -8.562   4.260  69.064  1.00  0.00    -0.083 C  
HETATM   35  O   UNL     1     -10.025   4.888  67.173  1.00  0.00    -0.177 OA 
HETATM   36  O   UNL     1      -9.587   2.197  66.844  1.00  0.00    -0.382 OA 
HETATM   37  C   UNL     1      -7.768   3.300  68.120  1.00  0.00    -0.059 C  
HETATM   38  H   UNL     1      -9.251   1.360  67.144  1.00  0.00     0.000 HD 
HETATM   39  C   UNL     1      -7.546   2.543  65.668  1.00  0.00    -0.076 C  
HETATM   40  H   UNL     1      -7.189   4.189  70.473  1.00  0.00     0.000 HD 
HETATM   41  C   UNL     1      -9.022   4.460  66.251  1.00  0.00    -0.120 C  
BRANCH  37  42
HETATM   42  N   UNL     1      -7.538   1.944  68.697  1.00  0.00    -0.046 NA 
HETATM   43  H   UNL     1      -8.230   1.206  68.564  1.00  0.00     0.000 HD 
HETATM   44  C   UNL     1      -6.333   1.679  69.444  1.00  0.00    -0.025 C  
ENDBRANCH  37  42
ENDBRANCH  30  31
ENDBRANCH  10  30
ENDBRANCH   3   5
ENDBRANCH   2   3
TORSDOF 8
ENDMDL
MODEL       80
REMARK 921   NORMALIZED FREE ENERGY PREDICTED BY IDOCK:   -5.90 KCAL/MOL
REMARK 922        TOTAL FREE ENERGY PREDICTED BY IDOCK:   -9.40 KCAL/MOL
REMARK 923 INTER-LIGAND FREE ENERGY PREDICTED BY IDOCK:   -7.72 KCAL/MOL
REMARK 924 INTRA-LIGAND FREE ENERGY PREDICTED BY IDOCK:   -1.68 KCAL/MOL
REMARK 927      BINDING AFFINITY PREDICTED BY RF-SCORE:    0.00 PKD
ROOT
HETATM    1  C   UNL     1     -12.397  14.814  64.211  1.00  0.00    -0.345 C  
HETATM    2  C   UNL     1     -12.190  13.356  63.825  1.00  0.00    -0.417 C  
ENDROOT
BRANCH   2   3
HETATM    3  N   UNL     1     -12.207  12.508  65.021  1.00  0.00    -0.459 NA 
HETATM    4  H   UNL     1     -12.837  11.718  64.880  1.00  0.00     0.000 HD 
BRANCH   3   5
HETATM    5  C   UNL     1     -10.876  12.024  65.481  1.00  0.00    -0.292 C  
HETATM    6  C   UNL     1     -10.718  10.513  65.253  1.00  0.00    -0.019 C  
HETATM    7  C   UNL     1      -9.334  10.014  65.680  1.00  0.00    -0.204 C  
HETATM    8  C   UNL     1      -9.122  10.235  67.203  1.00  0.00    -0.142 C  
HETATM    9  N   UNL     1      -9.222   8.588  65.313  1.00  0.00    -0.430 NA 
HETATM   10  C   UNL     1     -10.540  12.473  66.932  1.00  0.00    -0.236 C  
HETATM   11  H2  UNL     1      -9.413   8.420  64.325  1.00  0.00     0.000 HD 
HETATM   12  H1  UNL     1      -8.301   8.256  65.597  1.00  0.00     0.000 HD 
HETATM   13  C   UNL     1      -9.383  11.710  67.609  1.00  0.00    -0.178 C  
HETATM   14  H   UNL     1      -9.810  12.721  69.279  1.00  0.00     0.000 HD 
HETATM   15  O   UNL     1      -9.650  11.818  69.030  1.00  0.00    -0.020 OA 
BRANCH   8  16
HETATM   16  O   UNL     1      -7.751   9.849  67.541  1.00  0.00    -0.091 OA 
BRANCH  16  17
HETATM   17  C   UNL     1      -7.648   8.933  68.656  1.00  0.00    -0.096 C  
HETATM   18  H1  UNL     1      -5.093   7.179  67.088  1.00  0.00     0.000 HD 
HETATM   19  O   UNL     1      -8.960   8.530  69.067  1.00  0.00    -0.144 OA 
HETATM   20  C   UNL     1      -9.423   7.333  68.564  1.00  0.00    -0.140 C  
HETATM   21  H2  UNL     1      -5.349   8.831  67.155  1.00  0.00     0.000 HD 
HETATM   22  N   UNL     1      -5.789   7.913  67.216  1.00  0.00    -0.040 NA 
HETATM   23  C   UNL     1      -8.593   6.297  68.385  1.00  0.00    -0.114 C  
HETATM   24  C   UNL     1      -6.579   7.806  68.459  1.00  0.00    -0.057 C  
HETATM   25  C   UNL     1      -7.145   6.405  68.714  1.00  0.00    -0.082 C  
BRANCH  20  26
HETATM   26  C   UNL     1     -10.916   7.320  68.328  1.00  0.00     0.022 C  
HETATM   27  N   UNL     1     -11.332   6.795  67.029  1.00  0.00    -0.778 NA 
HETATM   28  H2  UNL     1     -10.945   5.863  66.886  1.00  0.00     0.000 HD 
HETATM   29  H1  UNL     1     -12.340   6.786  66.870  1.00  0.00     0.000 HD 
ENDBRANCH  20  26
ENDBRANCH  16  17
ENDBRANCH   8  16
BRANCH  10  30
HETATM   30  O   UNL     1     -10.435  13.931  67.092  1.00  0.00    -0.266 OA 
BRANCH  30  31
HETATM   31  C   UNL     1      -9.142  14.520  66.856  1.00  0.00    -0.255 C  
HETATM   32  O   UNL     1      -8.815  14.688  69.286  1.00  0.00    -0.372 OA 
HETATM   33  C   UNL     1      -9.215  17.447  66.666  1.00  0.00    -0.261 C  
HETATM   34  C   UNL     1      -8.534  15.352  68.043  1.00  0.00    -0.146 C  
HETATM   35  O   UNL     1      -9.184  15.282  65.659  1.00  0.00    -0.231 OA 
HETATM   36  O   UNL     1      -7.980  17.730  65.975  1.00  0.00    -0.473 OA 
HETATM   37  C   UNL     1      -8.928  16.864  68.097  1.00  0.00    -0.227 C  
HETATM   38  H   UNL     1      -7.487  18.361  66.487  1.00  0.00     0.000 HD 
HETATM   39  C   UNL     1      -9.990  18.765  66.721  1.00  0.00    -0.394 C  
HETATM   40  H   UNL     1      -8.447  15.191  70.003  1.00  0.00     0.000 HD 
HETATM   41  C   UNL     1     -10.005  16.435  65.845  1.00  0.00    -0.332 C  
BRANCH  37  42
HETATM   42  N   UNL     1      -7.904  17.730  68.748  1.00  0.00    -0.278 NA 
HETATM   43  H   UNL     1      -8.046  18.739  68.804  1.00  0.00     0.000 HD 
HETATM   44  C   UNL     1      -6.710  17.137  69.299  1.00  0.00    -0.228 C  
ENDBRANCH  37  42
ENDBRANCH  30  31
ENDBRANCH  10  30
ENDBRANCH   3   5
ENDBRANCH   2   3
TORSDOF 8
ENDMDL
MODEL       81
REMARK 921   NORMALIZED FREE ENERGY PREDICTED BY IDOCK:   -5.90 KCAL/MOL
REMARK 922        TOTAL FREE ENERGY PREDICTED BY IDOCK:   -9.40 KCAL/MOL
REMARK 923 INTER-LIGAND FREE ENERGY PREDICTED BY IDOCK:   -7.72 KCAL/MOL
REMARK 924 INTRA-LIGAND FREE ENERGY PREDICTED BY IDOCK:   -1.68 KCAL/MOL
REMARK 927      BINDING AFFINITY PREDICTED BY RF-SCORE:    0.00 PKD
ROOT
HETATM    1  C   UNL     1     -10.862   6.196  69.464  1.00  0.00    -0.428 C  
HETATM    2  C   UNL     1     -10.407   7.524  70.054  1.00  0.00    -0.221 C  
ENDROOT
BRANCH   2   3
HETATM    3  N   UNL     1     -11.394   8.570  69.768  1.00  0.00    -0.448 NA 
HETATM    4  H   UNL     1     -11.914   8.800  70.615  1.00  0.00     0.000 HD 
BRANCH   3   5
HETATM    5  C   UNL     1     -10.850   9.811  69.151  1.00  0.00    -0.207 C  
HETATM    6  C   UNL     1     -11.482  11.068  69.766  1.00  0.00    -0.387 C  
HETATM    7  C   UNL     1     -10.894  12.351  69.169  1.00  0.00    -0.097 C  
HETATM    8  C   UNL     1     -11.194  12.430  67.647  1.00  0.00    -0.288 C  
HETATM    9  N   UNL     1     -11.462  13.503  69.899  1.00  0.00    -0.478 NA 
HETATM   10  C   UNL     1     -10.904   9.783  67.596  1.00  0.00    -0.239 C  
HETATM   11  H2  UNL     1     -11.320  13.438  70.908  1.00  0.00     0.000 HD 
HETATM   12  H1  UNL     1     -11.071  14.357  69.503  1.00  0.00     0.000 HD 
HETATM   13  C   UNL     1     -10.725  11.150  66.905  1.00  0.00    -0.274 C  
HETATM   14  H   UNL     1     -11.116  10.229  65.176  1.00  0.00     0.000 HD 
HETATM   15  O   UNL     1     -11.403  11.012  65.630  1.00  0.00     0.052 OA 
BRANCH   8  16
HETATM   16  O   UNL     1     -10.519  13.610  67.103  1.00  0.00    -0.261 OA 
BRANCH  16  17
HETATM   17  C   UNL     1     -11.415  14.652  66.651  1.00  0.00    -0.357 C  
HETATM   18  H1  UNL     1     -10.537  14.087  63.338  1.00  0.00     0.000 HD 
HETATM   19  O   UNL     1     -11.265  15.807  67.486  1.00  0.00    -0.308 OA 
HETATM   20  C   UNL     1     -10.425  16.797  67.026  1.00  0.00    -0.285 C  
HETATM   21  H2  UNL     1     -10.810  12.976  64.559  1.00  0.00     0.000 HD 
HETATM   22  N   UNL     1     -10.548  13.939  64.347  1.00  0.00    -0.344 NA 
HETATM   23  C   UNL     1     -10.360  17.088  65.720  1.00  0.00    -0.275 C  
HETATM   24  C   UNL     1     -11.399  14.880  65.102  1.00  0.00    -0.379 C  
HETATM   25  C   UNL     1     -11.184  16.349  64.723  1.00  0.00    -0.219 C  
BRANCH  20  26
HETATM   26  C   UNL     1      -9.689  17.520  68.130  1.00  0.00    -0.302 C  
HETATM   27  N   UNL     1     -10.415  18.639  68.727  1.00  0.00    -0.410 NA 
HETATM   28  H2  UNL     1     -11.329  18.330  69.057  1.00  0.00     0.000 HD 
HETATM   29  H1  UNL     1      -9.918  19.127  69.473  1.00  0.00     0.000 HD 
ENDBRANCH  20  26
ENDBRANCH  16  17
ENDBRANCH   8  16
BRANCH  10  30
HETATM   30  O   UNL     1     -10.079   8.725  66.993  1.00  0.00    -0.214 OA 
BRANCH  30  31
HETATM   31  C   UNL     1      -8.710   9.058  66.693  1.00  0.00    -0.128 C  
HETATM   32  O   UNL     1      -9.366   9.505  64.368  1.00  0.00    -0.408 OA 
HETATM   33  C   UNL     1      -7.123   6.757  65.802  1.00  0.00    -0.072 C  
HETATM   34  C   UNL     1      -8.297   8.988  65.179  1.00  0.00    -0.158 C  
HETATM   35  O   UNL     1      -7.848   8.270  67.500  1.00  0.00    -0.103 OA 
HETATM   36  O   UNL     1      -5.777   7.216  66.038  1.00  0.00    -0.030 OA 
HETATM   37  C   UNL     1      -7.804   7.598  64.662  1.00  0.00    -0.126 C  
HETATM   38  H   UNL     1      -5.282   7.125  65.232  1.00  0.00     0.000 HD 
HETATM   39  C   UNL     1      -7.016   5.273  65.443  1.00  0.00    -0.065 C  
HETATM   40  H   UNL     1      -9.116   9.463  63.452  1.00  0.00     0.000 HD 
HETATM   41  C   UNL     1      -7.916   6.903  67.094  1.00  0.00    -0.113 C  
BRANCH  37  42
HETATM   42  N   UNL     1      -6.847   7.685  63.522  1.00  0.00    -0.058 NA 
HETATM   43  H   UNL     1      -6.507   6.834  63.072  1.00  0.00     0.000 HD 
HETATM   44  C   UNL     1      -6.401   8.976  63.058  1.00  0.00    -0.090 C  
ENDBRANCH  37  42
ENDBRANCH  30  31
ENDBRANCH  10  30
ENDBRANCH   3   5
ENDBRANCH   2   3
TORSDOF 8
ENDMDL
MODEL       82
REMARK 921   NORMALIZED FREE ENERGY PREDICTED BY IDOCK:   -5.87 KCAL/MOL
REMARK 922        TOTAL FREE ENERGY PREDICTED BY IDOCK:   -9.36 KCAL/MOL
REMARK 923 INTER-LIGAND FREE ENERGY PREDICTED BY IDOCK:   -8.60 KCAL/MOL
REMARK 924 INTRA-LIGAND FREE ENERGY PREDICTED BY IDOCK:   -0.76 KCAL/MOL
REMARK 927      BINDING AFFINITY PREDICTED BY RF-SCORE:    0.00 PKD
ROOT
HETATM    1  C   UNL     1     -13.816   9.439  72.291  1.00  0.00    -0.441 C  
HETATM    2  C   UNL     1     -13.153  10.431  71.346  1.00  0.00    -0.413 C  
ENDROOT
BRANCH   2   3
HETATM    3  N   UNL     1     -11.695  10.293  71.406  1.00  0.00    -0.302 NA 
HETATM    4  H   UNL     1     -11.376  10.372  72.372  1.00  0.00     0.000 HD 
BRANCH   3   5
HETATM    5  C   UNL     1     -11.143   9.056  70.787  1.00  0.00    -0.272 C  
HETATM    6  C   UNL     1     -10.655   8.063  71.852  1.00  0.00    -0.305 C  
HETATM    7  C   UNL     1     -10.129   6.769  71.225  1.00  0.00    -0.187 C  
HETATM    8  C   UNL     1      -8.897   7.062  70.326  1.00  0.00    -0.148 C  
HETATM    9  N   UNL     1      -9.800   5.827  72.315  1.00  0.00    -0.161 NA 
HETATM   10  C   UNL     1     -10.087   9.355  69.684  1.00  0.00    -0.206 C  
HETATM   11  H2  UNL     1     -10.585   5.667  72.947  1.00  0.00     0.000 HD 
HETATM   12  H1  UNL     1      -9.450   4.965  71.898  1.00  0.00     0.000 HD 
HETATM   13  C   UNL     1      -9.205   8.159  69.273  1.00  0.00    -0.151 C  
HETATM   14  H   UNL     1      -8.170   9.428  68.129  1.00  0.00     0.000 HD 
HETATM   15  O   UNL     1      -7.981   8.756  68.773  1.00  0.00    -0.103 OA 
BRANCH   8  16
HETATM   16  O   UNL     1      -8.500   5.817  69.663  1.00  0.00    -0.110 OA 
BRANCH  16  17
HETATM   17  C   UNL     1      -9.540   4.813  69.611  1.00  0.00    -0.183 C  
HETATM   18  H1  UNL     1      -7.489   2.487  71.176  1.00  0.00     0.000 HD 
HETATM   19  O   UNL     1     -10.146   4.819  68.312  1.00  0.00    -0.123 OA 
HETATM   20  C   UNL     1      -9.675   3.893  67.408  1.00  0.00    -0.124 C  
HETATM   21  H2  UNL     1      -7.672   4.118  71.502  1.00  0.00     0.000 HD 
HETATM   22  N   UNL     1      -7.765   3.391  70.793  1.00  0.00    -0.040 NA 
HETATM   23  C   UNL     1      -9.313   2.666  67.807  1.00  0.00    -0.229 C  
HETATM   24  C   UNL     1      -9.116   3.425  70.199  1.00  0.00    -0.133 C  
HETATM   25  C   UNL     1      -9.400   2.265  69.238  1.00  0.00    -0.174 C  
BRANCH  20  26
HETATM   26  C   UNL     1      -9.692   4.388  65.980  1.00  0.00    -0.213 C  
HETATM   27  N   UNL     1     -11.017   4.477  65.372  1.00  0.00    -0.881 NA 
HETATM   28  H2  UNL     1     -11.632   5.050  65.950  1.00  0.00     0.000 HD 
HETATM   29  H1  UNL     1     -11.029   4.811  64.408  1.00  0.00     0.000 HD 
ENDBRANCH  20  26
ENDBRANCH  16  17
ENDBRANCH   8  16
BRANCH  10  30
HETATM   30  O   UNL     1     -10.627  10.090  68.530  1.00  0.00    -0.195 OA 
BRANCH  30  31
HETATM   31  C   UNL     1      -9.884  11.242  68.087  1.00  0.00    -0.183 C  
HETATM   32  O   UNL     1     -11.323  12.663  69.484  1.00  0.00    -0.394 OA 
HETATM   33  C   UNL     1     -11.000  12.487  65.676  1.00  0.00    -0.288 C  
HETATM   34  C   UNL     1     -10.605  12.630  68.239  1.00  0.00    -0.237 C  
HETATM   35  O   UNL     1      -9.444  11.032  66.754  1.00  0.00    -0.177 OA 
HETATM   36  O   UNL     1      -9.875  13.244  65.186  1.00  0.00    -0.507 OA 
HETATM   37  C   UNL     1     -11.509  13.072  67.043  1.00  0.00    -0.333 C  
HETATM   38  H   UNL     1     -10.148  14.147  65.068  1.00  0.00     0.000 HD 
HETATM   39  C   UNL     1     -12.070  12.549  64.584  1.00  0.00    -0.496 C  
HETATM   40  H   UNL     1     -11.758  13.502  69.576  1.00  0.00     0.000 HD 
HETATM   41  C   UNL     1     -10.562  11.041  65.865  1.00  0.00    -0.206 C  
BRANCH  37  42
HETATM   42  N   UNL     1     -11.628  14.551  66.893  1.00  0.00    -0.375 NA 
HETATM   43  H   UNL     1     -12.290  14.946  66.224  1.00  0.00     0.000 HD 
HETATM   44  C   UNL     1     -10.804  15.421  67.695  1.00  0.00    -0.304 C  
ENDBRANCH  37  42
ENDBRANCH  30  31
ENDBRANCH  10  30
ENDBRANCH   3   5
ENDBRANCH   2   3
TORSDOF 8
ENDMDL
MODEL       83
REMARK 921   NORMALIZED FREE ENERGY PREDICTED BY IDOCK:   -5.87 KCAL/MOL
REMARK 922        TOTAL FREE ENERGY PREDICTED BY IDOCK:   -9.35 KCAL/MOL
REMARK 923 INTER-LIGAND FREE ENERGY PREDICTED BY IDOCK:   -9.00 KCAL/MOL
REMARK 924 INTRA-LIGAND FREE ENERGY PREDICTED BY IDOCK:   -0.35 KCAL/MOL
REMARK 927      BINDING AFFINITY PREDICTED BY RF-SCORE:    0.00 PKD
ROOT
HETATM    1  C   UNL     1      -5.901  18.916  65.390  1.00  0.00    -0.252 C  
HETATM    2  C   UNL     1      -6.548  17.816  66.219  1.00  0.00    -0.262 C  
ENDROOT
BRANCH   2   3
HETATM    3  N   UNL     1      -7.892  17.523  65.712  1.00  0.00    -0.518 NA 
HETATM    4  H   UNL     1      -7.854  16.750  65.048  1.00  0.00     0.000 HD 
BRANCH   3   5
HETATM    5  C   UNL     1      -8.924  17.253  66.752  1.00  0.00    -0.250 C  
HETATM    6  C   UNL     1      -9.149  18.477  67.652  1.00  0.00    -0.293 C  
HETATM    7  C   UNL     1     -10.242  18.224  68.694  1.00  0.00    -0.353 C  
HETATM    8  C   UNL     1      -9.827  17.070  69.648  1.00  0.00     0.214 C  
HETATM    9  N   UNL     1     -10.482  19.483  69.429  1.00  0.00    -0.427 NA 
HETATM   10  C   UNL     1      -8.652  15.941  67.543  1.00  0.00    -0.168 C  
HETATM   11  H2  UNL     1     -10.703  20.263  68.810  1.00  0.00     0.000 HD 
HETATM   12  H1  UNL     1     -11.210  19.314  70.123  1.00  0.00     0.000 HD 
HETATM   13  C   UNL     1      -9.436  15.791  68.862  1.00  0.00    -0.229 C  
HETATM   14  H   UNL     1      -8.382  14.127  69.197  1.00  0.00     0.000 HD 
HETATM   15  O   UNL     1      -8.622  14.910  69.678  1.00  0.00    -0.074 OA 
BRANCH   8  16
HETATM   16  O   UNL     1     -10.945  16.791  70.552  1.00  0.00    -0.148 OA 
BRANCH  16  17
HETATM   17  C   UNL     1     -11.144  15.387  70.837  1.00  0.00    -0.332 C  
HETATM   18  H1  UNL     1     -13.649  15.169  68.440  1.00  0.00     0.000 HD 
HETATM   19  O   UNL     1     -11.171  15.186  72.255  1.00  0.00    -0.375 OA 
HETATM   20  C   UNL     1     -12.414  15.135  72.848  1.00  0.00    -0.405 C  
HETATM   21  H2  UNL     1     -12.193  15.992  68.370  1.00  0.00     0.000 HD 
HETATM   22  N   UNL     1     -12.906  15.603  68.988  1.00  0.00     0.645 NA 
HETATM   23  C   UNL     1     -13.449  14.560  72.221  1.00  0.00    -0.518 C  
HETATM   24  C   UNL     1     -12.285  14.721  69.996  1.00  0.00    -0.333 C  
HETATM   25  C   UNL     1     -13.295  13.966  70.865  1.00  0.00    -0.131 C  
BRANCH  20  26
HETATM   26  C   UNL     1     -12.436  15.710  74.245  1.00  0.00    -0.654 C  
HETATM   27  N   UNL     1     -12.306  17.164  74.318  1.00  0.00    -0.368 NA 
HETATM   28  H2  UNL     1     -13.021  17.610  73.743  1.00  0.00     0.000 HD 
HETATM   29  H1  UNL     1     -12.321  17.552  75.261  1.00  0.00     0.000 HD 
ENDBRANCH  20  26
ENDBRANCH  16  17
ENDBRANCH   8  16
BRANCH  10  30
HETATM   30  O   UNL     1      -8.695  14.728  66.711  1.00  0.00    -0.240 OA 
BRANCH  30  31
HETATM   31  C   UNL     1      -9.629  13.704  67.101  1.00  0.00    -0.241 C  
HETATM   32  O   UNL     1      -7.889  12.015  66.702  1.00  0.00    -0.349 OA 
HETATM   33  C   UNL     1     -11.183  12.632  64.855  1.00  0.00    -0.297 C  
HETATM   34  C   UNL     1      -9.305  12.248  66.608  1.00  0.00    -0.228 C  
HETATM   35  O   UNL     1     -10.940  14.097  66.725  1.00  0.00    -0.293 OA 
HETATM   36  O   UNL     1     -12.310  12.038  65.531  1.00  0.00    -0.460 OA 
HETATM   37  C   UNL     1      -9.859  11.858  65.199  1.00  0.00    -0.218 C  
HETATM   38  H   UNL     1     -12.385  11.132  65.253  1.00  0.00     0.000 HD 
HETATM   39  C   UNL     1     -11.506  12.592  63.360  1.00  0.00    -0.523 C  
HETATM   40  H   UNL     1      -7.694  11.134  66.404  1.00  0.00     0.000 HD 
HETATM   41  C   UNL     1     -11.063  14.083  65.302  1.00  0.00    -0.325 C  
BRANCH  37  42
HETATM   42  N   UNL     1     -10.126  10.399  65.040  1.00  0.00    -0.323 NA 
HETATM   43  H   UNL     1     -10.405  10.026  64.132  1.00  0.00     0.000 HD 
HETATM   44  C   UNL     1      -9.989   9.518  66.173  1.00  0.00    -0.272 C  
ENDBRANCH  37  42
ENDBRANCH  30  31
ENDBRANCH  10  30
ENDBRANCH   3   5
ENDBRANCH   2   3
TORSDOF 8
ENDMDL
MODEL       84
REMARK 921   NORMALIZED FREE ENERGY PREDICTED BY IDOCK:   -5.86 KCAL/MOL
REMARK 922        TOTAL FREE ENERGY PREDICTED BY IDOCK:   -9.34 KCAL/MOL
REMARK 923 INTER-LIGAND FREE ENERGY PREDICTED BY IDOCK:   -7.80 KCAL/MOL
REMARK 924 INTRA-LIGAND FREE ENERGY PREDICTED BY IDOCK:   -1.55 KCAL/MOL
REMARK 927      BINDING AFFINITY PREDICTED BY RF-SCORE:    0.00 PKD
ROOT
HETATM    1  C   UNL     1     -13.592   9.623  72.072  1.00  0.00    -0.467 C  
HETATM    2  C   UNL     1     -12.769  10.563  71.201  1.00  0.00    -0.418 C  
ENDROOT
BRANCH   2   3
HETATM    3  N   UNL     1     -11.367  10.136  71.181  1.00  0.00    -0.318 NA 
HETATM    4  H   UNL     1     -11.088   9.811  72.107  1.00  0.00     0.000 HD 
BRANCH   3   5
HETATM    5  C   UNL     1     -11.023   9.114  70.155  1.00  0.00    -0.239 C  
HETATM    6  C   UNL     1     -10.916   7.711  70.773  1.00  0.00    -0.262 C  
HETATM    7  C   UNL     1     -10.609   6.646  69.717  1.00  0.00    -0.228 C  
HETATM    8  C   UNL     1      -9.232   6.920  69.052  1.00  0.00    -0.137 C  
HETATM    9  N   UNL     1     -10.648   5.321  70.370  1.00  0.00    -0.249 NA 
HETATM   10  C   UNL     1      -9.788   9.512  69.298  1.00  0.00    -0.181 C  
HETATM   11  H2  UNL     1     -11.528   5.149  70.858  1.00  0.00     0.000 HD 
HETATM   12  H1  UNL     1     -10.444   4.612  69.667  1.00  0.00     0.000 HD 
HETATM   13  C   UNL     1      -9.144   8.365  68.493  1.00  0.00    -0.136 C  
HETATM   14  H   UNL     1      -7.708   9.652  67.972  1.00  0.00     0.000 HD 
HETATM   15  O   UNL     1      -7.762   8.768  68.314  1.00  0.00    -0.098 OA 
BRANCH   8  16
HETATM   16  O   UNL     1      -9.035   5.945  67.977  1.00  0.00    -0.119 OA 
BRANCH  16  17
HETATM   17  C   UNL     1      -7.728   5.326  67.967  1.00  0.00    -0.084 C  
HETATM   18  H1  UNL     1      -8.941   2.598  66.192  1.00  0.00     0.000 HD 
HETATM   19  O   UNL     1      -7.143   5.422  69.272  1.00  0.00    -0.057 OA 
HETATM   20  C   UNL     1      -7.284   4.325  70.094  1.00  0.00    -0.045 C  
HETATM   21  H2  UNL     1      -9.293   4.222  65.997  1.00  0.00     0.000 HD 
HETATM   22  N   UNL     1      -8.965   3.509  66.649  1.00  0.00    -0.138 NA 
HETATM   23  C   UNL     1      -7.237   3.083  69.594  1.00  0.00    -0.044 C  
HETATM   24  C   UNL     1      -7.690   3.926  67.266  1.00  0.00    -0.080 C  
HETATM   25  C   UNL     1      -7.041   2.846  68.137  1.00  0.00    -0.049 C  
BRANCH  20  26
HETATM   26  C   UNL     1      -7.412   4.685  71.556  1.00  0.00    -0.073 C  
HETATM   27  N   UNL     1      -6.625   3.858  72.468  1.00  0.00    -0.027 NA 
HETATM   28  H2  UNL     1      -5.644   3.863  72.189  1.00  0.00     0.000 HD 
HETATM   29  H1  UNL     1      -6.712   4.101  73.455  1.00  0.00     0.000 HD 
ENDBRANCH  20  26
ENDBRANCH  16  17
ENDBRANCH   8  16
BRANCH  10  30
HETATM   30  O   UNL     1      -9.989  10.729  68.497  1.00  0.00    -0.164 OA 
BRANCH  30  31
HETATM   31  C   UNL     1     -10.753  10.591  67.284  1.00  0.00    -0.277 C  
HETATM   32  O   UNL     1      -8.663  10.719  65.997  1.00  0.00    -0.170 OA 
HETATM   33  C   UNL     1     -11.607  13.158  66.149  1.00  0.00    -0.355 C  
HETATM   34  C   UNL     1     -10.053  11.085  65.966  1.00  0.00    -0.247 C  
HETATM   35  O   UNL     1     -12.022  11.203  67.455  1.00  0.00    -0.580 OA 
HETATM   36  O   UNL     1     -12.697  12.756  65.294  1.00  0.00    -0.625 OA 
HETATM   37  C   UNL     1     -10.242  12.595  65.610  1.00  0.00    -0.273 C  
HETATM   38  H   UNL     1     -12.533  13.092  64.420  1.00  0.00     0.000 HD 
HETATM   39  C   UNL     1     -11.629  14.687  66.186  1.00  0.00    -0.332 C  
HETATM   40  H   UNL     1      -8.241  11.017  65.200  1.00  0.00     0.000 HD 
HETATM   41  C   UNL     1     -11.870  12.620  67.550  1.00  0.00    -0.334 C  
BRANCH  37  42
HETATM   42  N   UNL     1     -10.173  12.882  64.148  1.00  0.00    -0.569 NA 
HETATM   43  H   UNL     1     -10.193  13.846  63.814  1.00  0.00     0.000 HD 
HETATM   44  C   UNL     1     -10.079  11.792  63.209  1.00  0.00    -0.420 C  
ENDBRANCH  37  42
ENDBRANCH  30  31
ENDBRANCH  10  30
ENDBRANCH   3   5
ENDBRANCH   2   3
TORSDOF 8
ENDMDL
MODEL       85
REMARK 921   NORMALIZED FREE ENERGY PREDICTED BY IDOCK:   -5.85 KCAL/MOL
REMARK 922        TOTAL FREE ENERGY PREDICTED BY IDOCK:   -9.33 KCAL/MOL
REMARK 923 INTER-LIGAND FREE ENERGY PREDICTED BY IDOCK:   -8.61 KCAL/MOL
REMARK 924 INTRA-LIGAND FREE ENERGY PREDICTED BY IDOCK:   -0.72 KCAL/MOL
REMARK 927      BINDING AFFINITY PREDICTED BY RF-SCORE:    0.00 PKD
ROOT
HETATM    1  C   UNL     1      -8.374   8.656  63.990  1.00  0.00    -0.125 C  
HETATM    2  C   UNL     1      -8.784   8.535  65.451  1.00  0.00    -0.159 C  
ENDROOT
BRANCH   2   3
HETATM    3  N   UNL     1     -10.085   9.175  65.667  1.00  0.00    -0.347 NA 
HETATM    4  H   UNL     1     -10.688   8.564  66.217  1.00  0.00     0.000 HD 
BRANCH   3   5
HETATM    5  C   UNL     1     -10.038  10.531  66.280  1.00  0.00    -0.232 C  
HETATM    6  C   UNL     1      -9.880  11.625  65.214  1.00  0.00    -0.279 C  
HETATM    7  C   UNL     1      -9.878  13.027  65.832  1.00  0.00    -0.237 C  
HETATM    8  C   UNL     1      -8.667  13.196  66.791  1.00  0.00    -0.085 C  
HETATM    9  N   UNL     1      -9.850  14.016  64.736  1.00  0.00    -0.539 NA 
HETATM   10  C   UNL     1      -9.000  10.634  67.435  1.00  0.00    -0.136 C  
HETATM   11  H2  UNL     1     -10.609  13.883  64.067  1.00  0.00     0.000 HD 
HETATM   12  H1  UNL     1      -9.848  14.949  65.147  1.00  0.00     0.000 HD 
HETATM   13  C   UNL     1      -8.619  12.067  67.856  1.00  0.00    -0.165 C  
HETATM   14  H   UNL     1      -7.260  11.256  69.074  1.00  0.00     0.000 HD 
HETATM   15  O   UNL     1      -7.290  11.946  68.423  1.00  0.00    -0.082 OA 
BRANCH   8  16
HETATM   16  O   UNL     1      -8.770  14.504  67.441  1.00  0.00    -0.176 OA 
BRANCH  16  17
HETATM   17  C   UNL     1     -10.024  15.187  67.211  1.00  0.00    -0.230 C  
HETATM   18  H1  UNL     1      -8.369  18.062  66.181  1.00  0.00     0.000 HD 
HETATM   19  O   UNL     1     -10.908  14.946  68.313  1.00  0.00    -0.245 OA 
HETATM   20  C   UNL     1     -10.950  15.914  69.293  1.00  0.00    -0.293 C  
HETATM   21  H2  UNL     1      -8.010  16.462  65.846  1.00  0.00     0.000 HD 
HETATM   22  N   UNL     1      -8.472  17.097  66.496  1.00  0.00    -0.253 NA 
HETATM   23  C   UNL     1     -10.852  17.212  68.979  1.00  0.00    -0.129 C  
HETATM   24  C   UNL     1      -9.866  16.667  66.728  1.00  0.00    -0.273 C  
HETATM   25  C   UNL     1     -10.686  17.653  67.566  1.00  0.00    -0.294 C  
BRANCH  20  26
HETATM   26  C   UNL     1     -11.185  15.355  70.677  1.00  0.00    -0.342 C  
HETATM   27  N   UNL     1     -11.685  13.982  70.713  1.00  0.00    -0.514 NA 
HETATM   28  H2  UNL     1     -11.065  13.368  70.186  1.00  0.00     0.000 HD 
HETATM   29  H1  UNL     1     -11.844  13.605  71.648  1.00  0.00     0.000 HD 
ENDBRANCH  20  26
ENDBRANCH  16  17
ENDBRANCH   8  16
BRANCH  10  30
HETATM   30  O   UNL     1      -9.301   9.762  68.581  1.00  0.00    -0.142 OA 
BRANCH  30  31
HETATM   31  C   UNL     1     -10.673   9.357  68.749  1.00  0.00    -0.171 C  
HETATM   32  O   UNL     1     -10.948  11.114  70.445  1.00  0.00    -0.419 OA 
HETATM   33  C   UNL     1     -11.036   7.307  70.815  1.00  0.00    -0.266 C  
HETATM   34  C   UNL     1     -11.360   9.782  70.097  1.00  0.00    -0.251 C  
HETATM   35  O   UNL     1     -10.779   7.958  68.533  1.00  0.00    -0.144 OA 
HETATM   36  O   UNL     1     -12.319   6.751  70.459  1.00  0.00    -0.559 OA 
HETATM   37  C   UNL     1     -11.190   8.795  71.297  1.00  0.00    -0.284 C  
HETATM   38  H   UNL     1     -12.884   6.785  71.223  1.00  0.00     0.000 HD 
HETATM   39  C   UNL     1     -10.461   6.401  71.906  1.00  0.00    -0.239 C  
HETATM   40  H   UNL     1     -11.363  11.370  71.260  1.00  0.00     0.000 HD 
HETATM   41  C   UNL     1     -10.131   7.252  69.591  1.00  0.00    -0.194 C  
BRANCH  37  42
HETATM   42  N   UNL     1     -12.311   8.844  72.280  1.00  0.00    -0.374 NA 
HETATM   43  H   UNL     1     -12.256   8.310  73.147  1.00  0.00     0.000 HD 
HETATM   44  C   UNL     1     -13.474   9.650  72.000  1.00  0.00    -0.428 C  
ENDBRANCH  37  42
ENDBRANCH  30  31
ENDBRANCH  10  30
ENDBRANCH   3   5
ENDBRANCH   2   3
TORSDOF 8
ENDMDL
MODEL       86
REMARK 921   NORMALIZED FREE ENERGY PREDICTED BY IDOCK:   -5.84 KCAL/MOL
REMARK 922        TOTAL FREE ENERGY PREDICTED BY IDOCK:   -9.32 KCAL/MOL
REMARK 923 INTER-LIGAND FREE ENERGY PREDICTED BY IDOCK:   -9.09 KCAL/MOL
REMARK 924 INTRA-LIGAND FREE ENERGY PREDICTED BY IDOCK:   -0.23 KCAL/MOL
REMARK 927      BINDING AFFINITY PREDICTED BY RF-SCORE:    0.00 PKD
ROOT
HETATM    1  C   UNL     1     -11.775  15.986  71.690  1.00  0.00    -0.583 C  
HETATM    2  C   UNL     1     -12.058  14.787  70.795  1.00  0.00    -0.309 C  
ENDROOT
BRANCH   2   3
HETATM    3  N   UNL     1     -12.297  15.229  69.417  1.00  0.00    -0.586 NA 
HETATM    4  H   UNL     1     -11.808  16.106  69.242  1.00  0.00     0.000 HD 
BRANCH   3   5
HETATM    5  C   UNL     1     -11.959  14.236  68.360  1.00  0.00    -0.309 C  
HETATM    6  C   UNL     1     -11.996  12.800  68.903  1.00  0.00    -0.286 C  
HETATM    7  C   UNL     1     -11.695  11.770  67.811  1.00  0.00    -0.267 C  
HETATM    8  C   UNL     1     -10.260  11.973  67.252  1.00  0.00    -0.204 C  
HETATM    9  N   UNL     1     -11.874  10.421  68.385  1.00  0.00    -0.752 NA 
HETATM   10  C   UNL     1     -10.642  14.583  67.607  1.00  0.00    -0.251 C  
HETATM   11  H2  UNL     1     -12.795  10.291  68.805  1.00  0.00     0.000 HD 
HETATM   12  H1  UNL     1     -11.674   9.735  67.658  1.00  0.00     0.000 HD 
HETATM   13  C   UNL     1     -10.030  13.433  66.782  1.00  0.00    -0.264 C  
HETATM   14  H   UNL     1      -8.473  14.634  66.427  1.00  0.00     0.000 HD 
HETATM   15  O   UNL     1      -8.614  13.739  66.714  1.00  0.00    -0.160 OA 
BRANCH   8  16
HETATM   16  O   UNL     1     -10.061  11.042  66.139  1.00  0.00    -0.221 OA 
BRANCH  16  17
HETATM   17  C   UNL     1      -8.893  10.199  66.269  1.00  0.00    -0.148 C  
HETATM   18  H1  UNL     1     -10.866   7.426  66.960  1.00  0.00     0.000 HD 
HETATM   19  O   UNL     1      -7.901  10.874  67.053  1.00  0.00    -0.121 OA 
HETATM   20  C   UNL     1      -7.857  10.563  68.394  1.00  0.00    -0.110 C  
HETATM   21  H2  UNL     1     -11.117   8.644  65.840  1.00  0.00     0.000 HD 
HETATM   22  N   UNL     1     -10.655   8.393  66.714  1.00  0.00    -0.253 NA 
HETATM   23  C   UNL     1      -8.091   9.314  68.816  1.00  0.00    -0.104 C  
HETATM   24  C   UNL     1      -9.216   8.714  66.645  1.00  0.00    -0.181 C  
HETATM   25  C   UNL     1      -8.413   8.223  67.854  1.00  0.00    -0.132 C  
BRANCH  20  26
HETATM   26  C   UNL     1      -7.459  11.730  69.267  1.00  0.00     0.112 C  
HETATM   27  N   UNL     1      -6.147  11.611  69.899  1.00  0.00    -0.133 NA 
HETATM   28  H2  UNL     1      -5.430  11.439  69.194  1.00  0.00     0.000 HD 
HETATM   29  H1  UNL     1      -5.877  12.399  70.489  1.00  0.00     0.000 HD 
ENDBRANCH  20  26
ENDBRANCH  16  17
ENDBRANCH   8  16
BRANCH  10  30
HETATM   30  O   UNL     1     -10.701  15.852  66.864  1.00  0.00    -0.321 OA 
BRANCH  30  31
HETATM   31  C   UNL     1      -9.443  16.455  66.506  1.00  0.00    -0.272 C  
HETATM   32  O   UNL     1      -8.670  16.128  68.816  1.00  0.00    -0.213 OA 
HETATM   33  C   UNL     1      -9.394  19.362  66.903  1.00  0.00    -0.329 C  
HETATM   34  C   UNL     1      -8.586  17.024  67.694  1.00  0.00    -0.210 C  
HETATM   35  O   UNL     1      -9.663  17.442  65.510  1.00  0.00    -0.485 OA 
HETATM   36  O   UNL     1      -8.294  19.758  66.059  1.00  0.00    -0.358 OA 
HETATM   37  C   UNL     1      -8.883  18.500  68.114  1.00  0.00    -0.306 C  
HETATM   38  H   UNL     1      -7.682  20.266  66.580  1.00  0.00     0.000 HD 
HETATM   39  C   UNL     1     -10.075  20.654  67.358  1.00  0.00    -0.359 C  
HETATM   40  H   UNL     1      -8.152  16.472  69.534  1.00  0.00     0.000 HD 
HETATM   41  C   UNL     1     -10.374  18.547  66.068  1.00  0.00    -0.393 C  
BRANCH  37  42
HETATM   42  N   UNL     1      -7.712  19.202  68.714  1.00  0.00    -0.351 NA 
HETATM   43  H   UNL     1      -7.815  20.149  69.080  1.00  0.00     0.000 HD 
HETATM   44  C   UNL     1      -6.433  18.538  68.776  1.00  0.00    -0.228 C  
ENDBRANCH  37  42
ENDBRANCH  30  31
ENDBRANCH  10  30
ENDBRANCH   3   5
ENDBRANCH   2   3
TORSDOF 8
ENDMDL
MODEL       87
REMARK 921   NORMALIZED FREE ENERGY PREDICTED BY IDOCK:   -5.82 KCAL/MOL
REMARK 922        TOTAL FREE ENERGY PREDICTED BY IDOCK:   -9.29 KCAL/MOL
REMARK 923 INTER-LIGAND FREE ENERGY PREDICTED BY IDOCK:   -7.36 KCAL/MOL
REMARK 924 INTRA-LIGAND FREE ENERGY PREDICTED BY IDOCK:   -1.93 KCAL/MOL
REMARK 927      BINDING AFFINITY PREDICTED BY RF-SCORE:    0.00 PKD
ROOT
HETATM    1  C   UNL     1     -13.321   9.397  72.078  1.00  0.00    -0.525 C  
HETATM    2  C   UNL     1     -12.320  10.320  71.395  1.00  0.00    -0.401 C  
ENDROOT
BRANCH   2   3
HETATM    3  N   UNL     1     -11.049   9.620  71.183  1.00  0.00    -0.359 NA 
HETATM    4  H   UNL     1     -10.952   8.861  71.856  1.00  0.00     0.000 HD 
BRANCH   3   5
HETATM    5  C   UNL     1     -10.823   9.111  69.802  1.00  0.00    -0.211 C  
HETATM    6  C   UNL     1     -10.732   7.577  69.777  1.00  0.00    -0.249 C  
HETATM    7  C   UNL     1     -10.546   7.041  68.354  1.00  0.00    -0.202 C  
HETATM    8  C   UNL     1      -9.209   7.553  67.751  1.00  0.00    -0.135 C  
HETATM    9  N   UNL     1     -10.596   5.566  68.405  1.00  0.00    -0.176 NA 
HETATM   10  C   UNL     1      -9.635   9.816  69.087  1.00  0.00    -0.188 C  
HETATM   11  H2  UNL     1     -11.445   5.216  68.849  1.00  0.00     0.000 HD 
HETATM   12  H1  UNL     1     -10.472   5.209  67.458  1.00  0.00     0.000 HD 
HETATM   13  C   UNL     1      -9.099   9.098  67.832  1.00  0.00    -0.127 C  
HETATM   14  H   UNL     1      -7.649  10.472  67.772  1.00  0.00     0.000 HD 
HETATM   15  O   UNL     1      -7.717   9.526  67.722  1.00  0.00    -0.088 OA 
BRANCH   8  16
HETATM   16  O   UNL     1      -9.129   7.108  66.358  1.00  0.00    -0.153 OA 
BRANCH  16  17
HETATM   17  C   UNL     1      -7.953   6.325  66.049  1.00  0.00    -0.114 C  
HETATM   18  H1  UNL     1      -9.891   3.518  65.393  1.00  0.00     0.000 HD 
HETATM   19  O   UNL     1      -6.943   6.569  67.036  1.00  0.00    -0.064 OA 
HETATM   20  C   UNL     1      -6.860   5.663  68.070  1.00  0.00    -0.064 C  
HETATM   21  H2  UNL     1     -10.180   5.116  64.986  1.00  0.00     0.000 HD 
HETATM   22  N   UNL     1      -9.693   4.491  65.628  1.00  0.00    -0.185 NA 
HETATM   23  C   UNL     1      -7.075   4.358  67.858  1.00  0.00    -0.064 C  
HETATM   24  C   UNL     1      -8.258   4.833  65.687  1.00  0.00    -0.113 C  
HETATM   25  C   UNL     1      -7.418   3.844  66.503  1.00  0.00    -0.083 C  
BRANCH  20  26
HETATM   26  C   UNL     1      -6.444   6.287  69.382  1.00  0.00    -0.043 C  
HETATM   27  N   UNL     1      -6.032   7.687  69.297  1.00  0.00    -0.033 NA 
HETATM   28  H2  UNL     1      -6.766   8.244  68.859  1.00  0.00     0.000 HD 
HETATM   29  H1  UNL     1      -5.751   8.109  70.182  1.00  0.00     0.000 HD 
ENDBRANCH  20  26
ENDBRANCH  16  17
ENDBRANCH   8  16
BRANCH  10  30
HETATM   30  O   UNL     1      -9.840  11.257  68.878  1.00  0.00    -0.198 OA 
BRANCH  30  31
HETATM   31  C   UNL     1     -10.540  11.648  67.681  1.00  0.00    -0.203 C  
HETATM   32  O   UNL     1      -8.398  12.352  66.702  1.00  0.00    -0.368 OA 
HETATM   33  C   UNL     1     -11.438  14.440  67.719  1.00  0.00    -0.336 C  
HETATM   34  C   UNL     1      -9.798  12.675  66.751  1.00  0.00    -0.235 C  
HETATM   35  O   UNL     1     -11.838  12.107  68.025  1.00  0.00    -0.390 OA 
HETATM   36  O   UNL     1     -12.470  14.434  66.712  1.00  0.00    -0.563 OA 
HETATM   37  C   UNL     1     -10.029  14.187  67.072  1.00  0.00    -0.260 C  
HETATM   38  H   UNL     1     -12.278  15.118  66.080  1.00  0.00     0.000 HD 
HETATM   39  C   UNL     1     -11.522  15.802  68.413  1.00  0.00    -0.367 C  
HETATM   40  H   UNL     1      -7.950  12.973  66.140  1.00  0.00     0.000 HD 
HETATM   41  C   UNL     1     -11.746  13.344  68.731  1.00  0.00    -0.340 C  
BRANCH  37  42
HETATM   42  N   UNL     1      -9.902  15.081  65.885  1.00  0.00    -0.318 NA 
HETATM   43  H   UNL     1     -10.445  14.893  65.042  1.00  0.00     0.000 HD 
HETATM   44  C   UNL     1      -9.009  16.213  65.933  1.00  0.00    -0.206 C  
ENDBRANCH  37  42
ENDBRANCH  30  31
ENDBRANCH  10  30
ENDBRANCH   3   5
ENDBRANCH   2   3
TORSDOF 8
ENDMDL
MODEL       88
REMARK 921   NORMALIZED FREE ENERGY PREDICTED BY IDOCK:   -5.81 KCAL/MOL
REMARK 922        TOTAL FREE ENERGY PREDICTED BY IDOCK:   -9.27 KCAL/MOL
REMARK 923 INTER-LIGAND FREE ENERGY PREDICTED BY IDOCK:   -8.88 KCAL/MOL
REMARK 924 INTRA-LIGAND FREE ENERGY PREDICTED BY IDOCK:   -0.39 KCAL/MOL
REMARK 927      BINDING AFFINITY PREDICTED BY RF-SCORE:    0.00 PKD
ROOT
HETATM    1  C   UNL     1     -13.800   8.853  72.306  1.00  0.00    -0.536 C  
HETATM    2  C   UNL     1     -12.281   8.958  72.305  1.00  0.00    -0.343 C  
ENDROOT
BRANCH   2   3
HETATM    3  N   UNL     1     -11.823   9.673  71.111  1.00  0.00    -0.338 NA 
HETATM    4  H   UNL     1     -11.153  10.397  71.373  1.00  0.00     0.000 HD 
BRANCH   3   5
HETATM    5  C   UNL     1     -11.255   8.819  70.032  1.00  0.00    -0.106 C  
HETATM    6  C   UNL     1     -11.127   7.356  70.481  1.00  0.00    -0.280 C  
HETATM    7  C   UNL     1     -10.588   6.461  69.361  1.00  0.00    -0.257 C  
HETATM    8  C   UNL     1      -9.155   6.903  68.954  1.00  0.00    -0.134 C  
HETATM    9  N   UNL     1     -10.616   5.061  69.832  1.00  0.00    -0.148 NA 
HETATM   10  C   UNL     1      -9.944   9.402  69.430  1.00  0.00    -0.183 C  
HETATM   11  H2  UNL     1     -11.540   4.774  70.154  1.00  0.00     0.000 HD 
HETATM   12  H1  UNL     1     -10.257   4.466  69.087  1.00  0.00     0.000 HD 
HETATM   13  C   UNL     1      -9.102   8.413  68.598  1.00  0.00    -0.140 C  
HETATM   14  H   UNL     1      -7.712   9.842  68.466  1.00  0.00     0.000 HD 
HETATM   15  O   UNL     1      -7.745   8.918  68.684  1.00  0.00    -0.094 OA 
BRANCH   8  16
HETATM   16  O   UNL     1      -8.728   6.095  67.810  1.00  0.00    -0.114 OA 
BRANCH  16  17
HETATM   17  C   UNL     1      -8.945   4.674  67.971  1.00  0.00    -0.114 C  
HETATM   18  H1  UNL     1      -5.554   4.129  68.487  1.00  0.00     0.000 HD 
HETATM   19  O   UNL     1      -9.834   4.207  66.948  1.00  0.00    -0.216 OA 
HETATM   20  C   UNL     1      -9.252   3.649  65.832  1.00  0.00    -0.161 C  
HETATM   21  H2  UNL     1      -6.519   5.372  69.056  1.00  0.00     0.000 HD 
HETATM   22  N   UNL     1      -6.407   4.664  68.329  1.00  0.00    -0.035 NA 
HETATM   23  C   UNL     1      -8.143   2.904  65.936  1.00  0.00    -0.087 C  
HETATM   24  C   UNL     1      -7.635   3.852  68.212  1.00  0.00    -0.066 C  
HETATM   25  C   UNL     1      -7.500   2.661  67.258  1.00  0.00    -0.061 C  
BRANCH  20  26
HETATM   26  C   UNL     1     -10.025   3.908  64.560  1.00  0.00    -0.202 C  
HETATM   27  N   UNL     1     -11.428   4.272  64.752  1.00  0.00    -0.992 NA 
HETATM   28  H2  UNL     1     -11.501   5.073  65.378  1.00  0.00     0.000 HD 
HETATM   29  H1  UNL     1     -11.950   4.447  63.893  1.00  0.00     0.000 HD 
ENDBRANCH  20  26
ENDBRANCH  16  17
ENDBRANCH   8  16
BRANCH  10  30
HETATM   30  O   UNL     1     -10.123  10.701  68.764  1.00  0.00    -0.174 OA 
BRANCH  30  31
HETATM   31  C   UNL     1     -10.958  10.721  67.590  1.00  0.00    -0.306 C  
HETATM   32  O   UNL     1      -8.943  10.521  66.197  1.00  0.00    -0.152 OA 
HETATM   33  C   UNL     1     -11.417  13.420  66.536  1.00  0.00    -0.341 C  
HETATM   34  C   UNL     1     -10.250  11.118  66.245  1.00  0.00    -0.239 C  
HETATM   35  O   UNL     1     -12.094  11.535  67.836  1.00  0.00    -0.630 OA 
HETATM   36  O   UNL     1     -12.601  13.227  65.734  1.00  0.00    -0.438 OA 
HETATM   37  C   UNL     1     -10.197  12.646  65.919  1.00  0.00    -0.274 C  
HETATM   38  H   UNL     1     -12.425  13.550  64.857  1.00  0.00     0.000 HD 
HETATM   39  C   UNL     1     -11.177  14.930  66.595  1.00  0.00    -0.340 C  
HETATM   40  H   UNL     1      -8.516  10.762  65.384  1.00  0.00     0.000 HD 
HETATM   41  C   UNL     1     -11.699  12.903  67.941  1.00  0.00    -0.357 C  
BRANCH  37  42
HETATM   42  N   UNL     1     -10.152  12.949  64.460  1.00  0.00    -0.569 NA 
HETATM   43  H   UNL     1     -10.017  13.909  64.140  1.00  0.00     0.000 HD 
HETATM   44  C   UNL     1     -10.300  11.882  63.502  1.00  0.00    -0.458 C  
ENDBRANCH  37  42
ENDBRANCH  30  31
ENDBRANCH  10  30
ENDBRANCH   3   5
ENDBRANCH   2   3
TORSDOF 8
ENDMDL
MODEL       89
REMARK 921   NORMALIZED FREE ENERGY PREDICTED BY IDOCK:   -5.80 KCAL/MOL
REMARK 922        TOTAL FREE ENERGY PREDICTED BY IDOCK:   -9.25 KCAL/MOL
REMARK 923 INTER-LIGAND FREE ENERGY PREDICTED BY IDOCK:   -8.24 KCAL/MOL
REMARK 924 INTRA-LIGAND FREE ENERGY PREDICTED BY IDOCK:   -1.00 KCAL/MOL
REMARK 927      BINDING AFFINITY PREDICTED BY RF-SCORE:    0.00 PKD
ROOT
HETATM    1  C   UNL     1      -5.565  12.267  68.765  1.00  0.00    -0.053 C  
HETATM    2  C   UNL     1      -6.580  11.471  69.575  1.00  0.00    -0.120 C  
ENDROOT
BRANCH   2   3
HETATM    3  N   UNL     1      -7.066  10.329  68.796  1.00  0.00    -0.070 NA 
HETATM    4  H   UNL     1      -7.072   9.488  69.374  1.00  0.00     0.000 HD 
BRANCH   3   5
HETATM    5  C   UNL     1      -8.395  10.513  68.150  1.00  0.00    -0.119 C  
HETATM    6  C   UNL     1      -8.297  11.418  66.913  1.00  0.00    -0.159 C  
HETATM    7  C   UNL     1      -9.652  11.576  66.215  1.00  0.00    -0.218 C  
HETATM    8  C   UNL     1     -10.674  12.264  67.160  1.00  0.00    -0.233 C  
HETATM    9  N   UNL     1      -9.446  12.351  64.974  1.00  0.00    -0.448 NA 
HETATM   10  C   UNL     1      -9.498  10.952  69.156  1.00  0.00    -0.089 C  
HETATM   11  H2  UNL     1      -8.736  11.940  64.367  1.00  0.00     0.000 HD 
HETATM   12  H1  UNL     1     -10.347  12.456  64.509  1.00  0.00     0.000 HD 
HETATM   13  C   UNL     1     -10.780  11.526  68.522  1.00  0.00    -0.209 C  
HETATM   14  H   UNL     1     -11.404  11.944  70.373  1.00  0.00     0.000 HD 
HETATM   15  O   UNL     1     -11.340  12.395  69.540  1.00  0.00    -0.245 OA 
BRANCH   8  16
HETATM   16  O   UNL     1     -11.977  12.291  66.493  1.00  0.00    -0.596 OA 
BRANCH  16  17
HETATM   17  C   UNL     1     -12.510  13.618  66.279  1.00  0.00    -0.366 C  
HETATM   18  H1  UNL     1     -12.936  12.993  62.889  1.00  0.00     0.000 HD 
HETATM   19  O   UNL     1     -11.698  14.576  66.971  1.00  0.00    -0.377 OA 
HETATM   20  C   UNL     1     -10.728  15.213  66.229  1.00  0.00    -0.320 C  
HETATM   21  H2  UNL     1     -13.227  11.983  64.191  1.00  0.00     0.000 HD 
HETATM   22  N   UNL     1     -12.700  12.792  63.861  1.00  0.00    -0.715 NA 
HETATM   23  C   UNL     1     -10.951  15.547  64.951  1.00  0.00    -0.452 C  
HETATM   24  C   UNL     1     -12.872  13.928  64.788  1.00  0.00    -0.091 C  
HETATM   25  C   UNL     1     -12.247  15.235  64.288  1.00  0.00    -0.205 C  
BRANCH  20  26
HETATM   26  C   UNL     1      -9.483  15.535  67.022  1.00  0.00    -0.225 C  
HETATM   27  N   UNL     1      -8.262  14.885  66.548  1.00  0.00    -0.337 NA 
HETATM   28  H2  UNL     1      -8.114  15.092  65.560  1.00  0.00     0.000 HD 
HETATM   29  H1  UNL     1      -7.421  15.102  67.083  1.00  0.00     0.000 HD 
ENDBRANCH  20  26
ENDBRANCH  16  17
ENDBRANCH   8  16
BRANCH  10  30
HETATM   30  O   UNL     1      -9.774   9.956  70.203  1.00  0.00    -0.247 OA 
BRANCH  30  31
HETATM   31  C   UNL     1      -9.019   8.730  70.151  1.00  0.00    -0.166 C  
HETATM   32  O   UNL     1     -10.874   7.681  68.928  1.00  0.00    -0.388 OA 
HETATM   33  C   UNL     1      -9.524   6.957  72.434  1.00  0.00    -0.139 C  
HETATM   34  C   UNL     1      -9.847   7.418  69.898  1.00  0.00    -0.178 C  
HETATM   35  O   UNL     1      -8.222   8.620  71.321  1.00  0.00    -0.128 OA 
HETATM   36  O   UNL     1      -8.362   6.103  72.408  1.00  0.00    -0.115 OA 
HETATM   37  C   UNL     1     -10.422   6.711  71.168  1.00  0.00    -0.217 C  
HETATM   38  H   UNL     1      -8.654   5.199  72.392  1.00  0.00     0.000 HD 
HETATM   39  C   UNL     1     -10.261   6.644  73.737  1.00  0.00    -0.354 C  
HETATM   40  H   UNL     1     -11.374   6.888  68.775  1.00  0.00     0.000 HD 
HETATM   41  C   UNL     1      -9.056   8.407  72.460  1.00  0.00    -0.256 C  
BRANCH  37  42
HETATM   42  N   UNL     1     -10.596   5.238  71.009  1.00  0.00    -0.207 NA 
HETATM   43  H   UNL     1     -11.160   4.714  71.678  1.00  0.00     0.000 HD 
HETATM   44  C   UNL     1      -9.963   4.557  69.906  1.00  0.00    -0.203 C  
ENDBRANCH  37  42
ENDBRANCH  30  31
ENDBRANCH  10  30
ENDBRANCH   3   5
ENDBRANCH   2   3
TORSDOF 8
ENDMDL
MODEL       90
REMARK 921   NORMALIZED FREE ENERGY PREDICTED BY IDOCK:   -5.80 KCAL/MOL
REMARK 922        TOTAL FREE ENERGY PREDICTED BY IDOCK:   -9.25 KCAL/MOL
REMARK 923 INTER-LIGAND FREE ENERGY PREDICTED BY IDOCK:   -7.84 KCAL/MOL
REMARK 924 INTRA-LIGAND FREE ENERGY PREDICTED BY IDOCK:   -1.41 KCAL/MOL
REMARK 927      BINDING AFFINITY PREDICTED BY RF-SCORE:    0.00 PKD
ROOT
HETATM    1  C   UNL     1     -13.224  12.379  71.842  1.00  0.00    -0.486 C  
HETATM    2  C   UNL     1     -13.093  10.870  71.996  1.00  0.00    -0.356 C  
ENDROOT
BRANCH   2   3
HETATM    3  N   UNL     1     -12.977  10.234  70.681  1.00  0.00    -0.529 NA 
HETATM    4  H   UNL     1     -12.748  10.934  69.974  1.00  0.00     0.000 HD 
BRANCH   3   5
HETATM    5  C   UNL     1     -12.019   9.097  70.602  1.00  0.00    -0.124 C  
HETATM    6  C   UNL     1     -12.270   8.073  71.719  1.00  0.00    -0.352 C  
HETATM    7  C   UNL     1     -11.319   6.876  71.618  1.00  0.00    -0.260 C  
HETATM    8  C   UNL     1      -9.845   7.336  71.791  1.00  0.00    -0.160 C  
HETATM    9  N   UNL     1     -11.709   5.887  72.644  1.00  0.00    -0.491 NA 
HETATM   10  C   UNL     1     -10.537   9.563  70.507  1.00  0.00    -0.297 C  
HETATM   11  H2  UNL     1     -12.690   5.616  72.576  1.00  0.00     0.000 HD 
HETATM   12  H1  UNL     1     -11.076   5.091  72.577  1.00  0.00     0.000 HD 
HETATM   13  C   UNL     1      -9.483   8.478  70.805  1.00  0.00    -0.178 C  
HETATM   14  H   UNL     1      -8.097   9.910  70.663  1.00  0.00     0.000 HD 
HETATM   15  O   UNL     1      -8.318   9.210  71.266  1.00  0.00    -0.288 OA 
BRANCH   8  16
HETATM   16  O   UNL     1      -8.971   6.181  71.576  1.00  0.00    -0.142 OA 
BRANCH  16  17
HETATM   17  C   UNL     1      -8.023   5.945  72.642  1.00  0.00    -0.105 C  
HETATM   18  H1  UNL     1      -5.349   6.273  70.450  1.00  0.00     0.000 HD 
HETATM   19  O   UNL     1      -8.464   4.838  73.438  1.00  0.00    -0.103 OA 
HETATM   20  C   UNL     1      -7.920   3.608  73.140  1.00  0.00    -0.075 C  
HETATM   21  H2  UNL     1      -6.760   7.167  70.530  1.00  0.00     0.000 HD 
HETATM   22  N   UNL     1      -6.322   6.274  70.753  1.00  0.00    -0.039 NA 
HETATM   23  C   UNL     1      -6.641   3.497  72.760  1.00  0.00    -0.029 C  
HETATM   24  C   UNL     1      -6.528   5.943  72.177  1.00  0.00    -0.054 C  
HETATM   25  C   UNL     1      -5.767   4.697  72.640  1.00  0.00    -0.008 C  
BRANCH  20  26
HETATM   26  C   UNL     1      -8.879   2.460  73.359  1.00  0.00    -0.070 C  
HETATM   27  N   UNL     1      -9.988   2.391  72.410  1.00  0.00    -0.141 NA 
HETATM   28  H2  UNL     1      -9.633   2.376  71.454  1.00  0.00     0.000 HD 
HETATM   29  H1  UNL     1     -10.636   1.617  72.557  1.00  0.00     0.000 HD 
ENDBRANCH  20  26
ENDBRANCH  16  17
ENDBRANCH   8  16
BRANCH  10  30
HETATM   30  O   UNL     1     -10.236  10.334  69.291  1.00  0.00    -0.201 OA 
BRANCH  30  31
HETATM   31  C   UNL     1     -11.127  10.160  68.172  1.00  0.00    -0.230 C  
HETATM   32  O   UNL     1      -9.357   8.922  67.000  1.00  0.00    -0.141 OA 
HETATM   33  C   UNL     1     -10.934  12.312  66.188  1.00  0.00    -0.293 C  
HETATM   34  C   UNL     1     -10.450   9.833  66.793  1.00  0.00    -0.189 C  
HETATM   35  O   UNL     1     -11.981  11.290  68.073  1.00  0.00    -0.621 OA 
HETATM   36  O   UNL     1     -12.186  12.180  65.484  1.00  0.00    -0.549 OA 
HETATM   37  C   UNL     1     -10.017  11.062  65.929  1.00  0.00    -0.240 C  
HETATM   38  H   UNL     1     -12.002  12.103  64.555  1.00  0.00     0.000 HD 
HETATM   39  C   UNL     1     -10.296  13.612  65.692  1.00  0.00    -0.309 C  
HETATM   40  H   UNL     1      -8.948   8.724  66.166  1.00  0.00     0.000 HD 
HETATM   41  C   UNL     1     -11.228  12.436  67.677  1.00  0.00    -0.288 C  
BRANCH  37  42
HETATM   42  N   UNL     1     -10.011  10.794  64.462  1.00  0.00    -0.307 NA 
HETATM   43  H   UNL     1     -10.889  10.761  63.943  1.00  0.00     0.000 HD 
HETATM   44  C   UNL     1      -8.759  10.581  63.778  1.00  0.00    -0.180 C  
ENDBRANCH  37  42
ENDBRANCH  30  31
ENDBRANCH  10  30
ENDBRANCH   3   5
ENDBRANCH   2   3
TORSDOF 8
ENDMDL
MODEL       91
REMARK 921   NORMALIZED FREE ENERGY PREDICTED BY IDOCK:   -5.79 KCAL/MOL
REMARK 922        TOTAL FREE ENERGY PREDICTED BY IDOCK:   -9.24 KCAL/MOL
REMARK 923 INTER-LIGAND FREE ENERGY PREDICTED BY IDOCK:   -7.31 KCAL/MOL
REMARK 924 INTRA-LIGAND FREE ENERGY PREDICTED BY IDOCK:   -1.93 KCAL/MOL
REMARK 927      BINDING AFFINITY PREDICTED BY RF-SCORE:    0.00 PKD
ROOT
HETATM    1  C   UNL     1     -10.584   9.145  71.356  1.00  0.00    -0.412 C  
HETATM    2  C   UNL     1     -10.061   8.203  70.280  1.00  0.00    -0.192 C  
ENDROOT
BRANCH   2   3
HETATM    3  N   UNL     1     -11.135   7.855  69.345  1.00  0.00    -0.439 NA 
HETATM    4  H   UNL     1     -11.569   8.703  68.981  1.00  0.00     0.000 HD 
BRANCH   3   5
HETATM    5  C   UNL     1     -10.740   6.961  68.222  1.00  0.00    -0.214 C  
HETATM    6  C   UNL     1     -10.170   5.630  68.736  1.00  0.00    -0.269 C  
HETATM    7  C   UNL     1      -9.805   4.685  67.588  1.00  0.00    -0.141 C  
HETATM    8  C   UNL     1      -8.690   5.309  66.704  1.00  0.00    -0.113 C  
HETATM    9  N   UNL     1      -9.387   3.392  68.167  1.00  0.00    -0.185 NA 
HETATM   10  C   UNL     1      -9.826   7.669  67.181  1.00  0.00    -0.202 C  
HETATM   11  H2  UNL     1     -10.088   2.997  68.794  1.00  0.00     0.000 HD 
HETATM   12  H1  UNL     1      -9.144   2.763  67.403  1.00  0.00     0.000 HD 
HETATM   13  C   UNL     1      -9.075   6.730  66.215  1.00  0.00    -0.139 C  
HETATM   14  H   UNL     1      -8.133   8.347  65.515  1.00  0.00     0.000 HD 
HETATM   15  O   UNL     1      -7.898   7.477  65.814  1.00  0.00    -0.095 OA 
BRANCH   8  16
HETATM   16  O   UNL     1      -8.455   4.423  65.561  1.00  0.00    -0.113 OA 
BRANCH  16  17
HETATM   17  C   UNL     1      -7.060   4.216  65.245  1.00  0.00    -0.063 C  
HETATM   18  H1  UNL     1      -7.886   2.284  62.479  1.00  0.00     0.000 HD 
HETATM   19  O   UNL     1      -6.340   3.896  66.442  1.00  0.00    -0.034 OA 
HETATM   20  C   UNL     1      -6.131   2.559  66.698  1.00  0.00    -0.024 C  
HETATM   21  H2  UNL     1      -8.601   3.692  63.031  1.00  0.00     0.000 HD 
HETATM   22  N   UNL     1      -8.044   2.879  63.292  1.00  0.00    -0.076 NA 
HETATM   23  C   UNL     1      -5.887   1.699  65.700  1.00  0.00    -0.017 C  
HETATM   24  C   UNL     1      -6.817   3.303  63.996  1.00  0.00    -0.044 C  
HETATM   25  C   UNL     1      -5.841   2.157  64.284  1.00  0.00    -0.013 C  
BRANCH  20  26
HETATM   26  C   UNL     1      -6.138   2.223  68.171  1.00  0.00    -0.024 C  
HETATM   27  N   UNL     1      -6.263   3.371  69.067  1.00  0.00    -0.028 NA 
HETATM   28  H2  UNL     1      -7.091   3.915  68.827  1.00  0.00     0.000 HD 
HETATM   29  H1  UNL     1      -6.267   3.144  70.062  1.00  0.00     0.000 HD 
ENDBRANCH  20  26
ENDBRANCH  16  17
ENDBRANCH   8  16
BRANCH  10  30
HETATM   30  O   UNL     1     -10.474   8.797  66.494  1.00  0.00    -0.242 OA 
BRANCH  30  31
HETATM   31  C   UNL     1      -9.953  10.111  66.767  1.00  0.00    -0.211 C  
HETATM   32  O   UNL     1     -11.956  10.588  68.108  1.00  0.00    -0.788 OA 
HETATM   33  C   UNL     1     -10.790  12.124  64.804  1.00  0.00    -0.307 C  
HETATM   34  C   UNL     1     -11.001  11.191  67.218  1.00  0.00    -0.296 C  
HETATM   35  O   UNL     1      -9.199  10.559  65.650  1.00  0.00    -0.170 OA 
HETATM   36  O   UNL     1      -9.801  13.157  64.998  1.00  0.00    -0.520 OA 
HETATM   37  C   UNL     1     -11.706  11.988  66.073  1.00  0.00    -0.241 C  
HETATM   38  H   UNL     1     -10.252  13.978  65.160  1.00  0.00     0.000 HD 
HETATM   39  C   UNL     1     -11.583  12.516  63.556  1.00  0.00    -0.584 C  
HETATM   40  H   UNL     1     -12.589  11.241  68.381  1.00  0.00     0.000 HD 
HETATM   41  C   UNL     1     -10.068  10.808  64.545  1.00  0.00    -0.350 C  
BRANCH  37  42
HETATM   42  N   UNL     1     -12.142  13.357  66.473  1.00  0.00    -0.399 NA 
HETATM   43  H   UNL     1     -12.697  13.925  65.833  1.00  0.00     0.000 HD 
HETATM   44  C   UNL     1     -11.776  13.875  67.768  1.00  0.00    -0.366 C  
ENDBRANCH  37  42
ENDBRANCH  30  31
ENDBRANCH  10  30
ENDBRANCH   3   5
ENDBRANCH   2   3
TORSDOF 8
ENDMDL
MODEL       92
REMARK 921   NORMALIZED FREE ENERGY PREDICTED BY IDOCK:   -5.79 KCAL/MOL
REMARK 922        TOTAL FREE ENERGY PREDICTED BY IDOCK:   -9.23 KCAL/MOL
REMARK 923 INTER-LIGAND FREE ENERGY PREDICTED BY IDOCK:   -8.01 KCAL/MOL
REMARK 924 INTRA-LIGAND FREE ENERGY PREDICTED BY IDOCK:   -1.23 KCAL/MOL
REMARK 927      BINDING AFFINITY PREDICTED BY RF-SCORE:    0.00 PKD
ROOT
HETATM    1  C   UNL     1     -11.847  13.096  63.618  1.00  0.00    -0.549 C  
HETATM    2  C   UNL     1     -11.100  11.856  64.090  1.00  0.00    -0.375 C  
ENDROOT
BRANCH   2   3
HETATM    3  N   UNL     1     -11.262  11.688  65.538  1.00  0.00    -0.253 NA 
HETATM    4  H   UNL     1     -12.179  11.290  65.743  1.00  0.00     0.000 HD 
BRANCH   3   5
HETATM    5  C   UNL     1     -10.198  10.895  66.213  1.00  0.00    -0.247 C  
HETATM    6  C   UNL     1      -9.911   9.586  65.462  1.00  0.00    -0.304 C  
HETATM    7  C   UNL     1      -8.784   8.786  66.124  1.00  0.00    -0.160 C  
HETATM    8  C   UNL     1      -9.189   8.366  67.564  1.00  0.00    -0.140 C  
HETATM    9  N   UNL     1      -8.488   7.615  65.274  1.00  0.00    -0.277 NA 
HETATM   10  C   UNL     1     -10.469  10.694  67.732  1.00  0.00    -0.221 C  
HETATM   11  H2  UNL     1      -8.273   7.872  64.311  1.00  0.00     0.000 HD 
HETATM   12  H1  UNL     1      -7.739   7.082  65.714  1.00  0.00     0.000 HD 
HETATM   13  C   UNL     1      -9.639   9.586  68.410  1.00  0.00    -0.142 C  
HETATM   14  H   UNL     1     -10.717   9.910  70.061  1.00  0.00     0.000 HD 
HETATM   15  O   UNL     1     -10.442   9.163  69.543  1.00  0.00    -0.209 OA 
BRANCH   8  16
HETATM   16  O   UNL     1      -8.044   7.704  68.192  1.00  0.00    -0.121 OA 
BRANCH  16  17
HETATM   17  C   UNL     1      -8.396   6.605  69.063  1.00  0.00    -0.120 C  
HETATM   18  H1  UNL     1      -5.058   5.719  69.434  1.00  0.00     0.000 HD 
HETATM   19  O   UNL     1      -9.509   5.892  68.508  1.00  0.00    -0.119 OA 
HETATM   20  C   UNL     1      -9.214   4.768  67.768  1.00  0.00    -0.125 C  
HETATM   21  H2  UNL     1      -5.745   7.244  69.400  1.00  0.00     0.000 HD 
HETATM   22  N   UNL     1      -5.856   6.270  69.118  1.00  0.00    -0.019 NA 
HETATM   23  C   UNL     1      -8.203   3.962  68.118  1.00  0.00    -0.092 C  
HETATM   24  C   UNL     1      -7.172   5.758  69.549  1.00  0.00    -0.066 C  
HETATM   25  C   UNL     1      -7.360   4.256  69.309  1.00  0.00    -0.054 C  
BRANCH  20  26
HETATM   26  C   UNL     1     -10.173   4.536  66.623  1.00  0.00    -0.162 C  
HETATM   27  N   UNL     1     -11.124   5.621  66.384  1.00  0.00    -0.758 NA 
HETATM   28  H2  UNL     1     -10.627   6.502  66.254  1.00  0.00     0.000 HD 
HETATM   29  H1  UNL     1     -11.771   5.465  65.611  1.00  0.00     0.000 HD 
ENDBRANCH  20  26
ENDBRANCH  16  17
ENDBRANCH   8  16
BRANCH  10  30
HETATM   30  O   UNL     1     -10.486  11.948  68.501  1.00  0.00    -0.213 OA 
BRANCH  30  31
HETATM   31  C   UNL     1     -11.575  12.855  68.244  1.00  0.00    -0.335 C  
HETATM   32  O   UNL     1     -10.041  14.271  66.947  1.00  0.00    -0.256 OA 
HETATM   33  C   UNL     1     -11.824  14.973  70.258  1.00  0.00    -0.309 C  
HETATM   34  C   UNL     1     -11.174  14.317  67.831  1.00  0.00    -0.285 C  
HETATM   35  O   UNL     1     -12.458  12.856  69.355  1.00  0.00    -0.027 OA 
HETATM   36  O   UNL     1     -13.187  15.406  70.066  1.00  0.00    -0.600 OA 
HETATM   37  C   UNL     1     -10.948  15.327  69.003  1.00  0.00    -0.254 C  
HETATM   38  H   UNL     1     -13.187  16.347  69.928  1.00  0.00     0.000 HD 
HETATM   39  C   UNL     1     -11.326  15.668  71.527  1.00  0.00    -0.454 C  
HETATM   40  H   UNL     1      -9.799  15.155  66.697  1.00  0.00     0.000 HD 
HETATM   41  C   UNL     1     -11.824  13.466  70.480  1.00  0.00    -0.158 C  
BRANCH  37  42
HETATM   42  N   UNL     1     -11.223  16.746  68.636  1.00  0.00    -0.250 NA 
HETATM   43  H   UNL     1     -12.136  17.158  68.831  1.00  0.00     0.000 HD 
HETATM   44  C   UNL     1     -10.194  17.535  68.004  1.00  0.00    -0.354 C  
ENDBRANCH  37  42
ENDBRANCH  30  31
ENDBRANCH  10  30
ENDBRANCH   3   5
ENDBRANCH   2   3
TORSDOF 8
ENDMDL
MODEL       93
REMARK 921   NORMALIZED FREE ENERGY PREDICTED BY IDOCK:   -5.72 KCAL/MOL
REMARK 922        TOTAL FREE ENERGY PREDICTED BY IDOCK:   -9.14 KCAL/MOL
REMARK 923 INTER-LIGAND FREE ENERGY PREDICTED BY IDOCK:   -7.44 KCAL/MOL
REMARK 924 INTRA-LIGAND FREE ENERGY PREDICTED BY IDOCK:   -1.70 KCAL/MOL
REMARK 927      BINDING AFFINITY PREDICTED BY RF-SCORE:    0.00 PKD
ROOT
HETATM    1  C   UNL     1     -12.276  13.945  65.921  1.00  0.00    -0.497 C  
HETATM    2  C   UNL     1     -12.000  12.536  66.426  1.00  0.00    -0.318 C  
ENDROOT
BRANCH   2   3
HETATM    3  N   UNL     1     -11.757  12.554  67.872  1.00  0.00    -0.352 NA 
HETATM    4  H   UNL     1     -12.592  12.873  68.362  1.00  0.00     0.000 HD 
BRANCH   3   5
HETATM    5  C   UNL     1     -11.279  11.271  68.457  1.00  0.00    -0.252 C  
HETATM    6  C   UNL     1     -11.908  11.013  69.835  1.00  0.00    -0.431 C  
HETATM    7  C   UNL     1     -11.458   9.673  70.423  1.00  0.00    -0.263 C  
HETATM    8  C   UNL     1      -9.922   9.667  70.653  1.00  0.00    -0.231 C  
HETATM    9  N   UNL     1     -12.201   9.447  71.680  1.00  0.00    -0.365 NA 
HETATM   10  C   UNL     1      -9.729  11.144  68.446  1.00  0.00    -0.191 C  
HETATM   11  H2  UNL     1     -13.212   9.502  71.555  1.00  0.00     0.000 HD 
HETATM   12  H1  UNL     1     -11.902   8.555  72.072  1.00  0.00     0.000 HD 
HETATM   13  C   UNL     1      -9.149  10.047  69.362  1.00  0.00    -0.215 C  
HETATM   14  H   UNL     1      -7.333  10.731  68.885  1.00  0.00     0.000 HD 
HETATM   15  O   UNL     1      -7.806  10.498  69.675  1.00  0.00    -0.149 OA 
BRANCH   8  16
HETATM   16  O   UNL     1      -9.526   8.333  71.109  1.00  0.00    -0.151 OA 
BRANCH  16  17
HETATM   17  C   UNL     1      -9.196   8.258  72.515  1.00  0.00    -0.269 C  
HETATM   18  H1  UNL     1      -5.866   7.595  71.784  1.00  0.00     0.000 HD 
HETATM   19  O   UNL     1     -10.188   7.481  73.198  1.00  0.00    -0.263 OA 
HETATM   20  C   UNL     1      -9.895   6.151  73.405  1.00  0.00    -0.167 C  
HETATM   21  H2  UNL     1      -6.912   8.673  71.046  1.00  0.00     0.000 HD 
HETATM   22  N   UNL     1      -6.843   7.818  71.598  1.00  0.00    -0.056 NA 
HETATM   23  C   UNL     1      -8.645   5.759  73.684  1.00  0.00    -0.119 C  
HETATM   24  C   UNL     1      -7.695   7.916  72.800  1.00  0.00    -0.116 C  
HETATM   25  C   UNL     1      -7.531   6.743  73.772  1.00  0.00    -0.083 C  
BRANCH  20  26
HETATM   26  C   UNL     1     -11.111   5.255  73.355  1.00  0.00    -0.303 C  
HETATM   27  N   UNL     1     -12.285   5.841  72.709  1.00  0.00    -0.517 NA 
HETATM   28  H2  UNL     1     -12.046   6.163  71.772  1.00  0.00     0.000 HD 
HETATM   29  H1  UNL     1     -13.106   5.237  72.675  1.00  0.00     0.000 HD 
ENDBRANCH  20  26
ENDBRANCH  16  17
ENDBRANCH   8  16
BRANCH  10  30
HETATM   30  O   UNL     1      -9.144  11.130  67.097  1.00  0.00    -0.146 OA 
BRANCH  30  31
HETATM   31  C   UNL     1      -8.912   9.839  66.501  1.00  0.00    -0.150 C  
HETATM   32  O   UNL     1      -6.513  10.096  66.966  1.00  0.00    -0.067 OA 
HETATM   33  C   UNL     1      -8.367   9.969  63.622  1.00  0.00    -0.166 C  
HETATM   34  C   UNL     1      -7.445   9.556  66.014  1.00  0.00    -0.100 C  
HETATM   35  O   UNL     1      -9.852   9.627  65.459  1.00  0.00    -0.302 OA 
HETATM   36  O   UNL     1      -8.653   8.618  63.205  1.00  0.00    -0.380 OA 
HETATM   37  C   UNL     1      -7.104  10.005  64.557  1.00  0.00    -0.139 C  
HETATM   38  H   UNL     1      -7.897   8.280  62.738  1.00  0.00     0.000 HD 
HETATM   39  C   UNL     1      -8.164  10.781  62.341  1.00  0.00    -0.264 C  
HETATM   40  H   UNL     1      -5.626   9.924  66.672  1.00  0.00     0.000 HD 
HETATM   41  C   UNL     1      -9.578  10.509  64.370  1.00  0.00    -0.300 C  
BRANCH  37  42
HETATM   42  N   UNL     1      -6.033   9.192  63.912  1.00  0.00    -0.078 NA 
HETATM   43  H   UNL     1      -5.683   9.446  62.988  1.00  0.00     0.000 HD 
HETATM   44  C   UNL     1      -5.493   8.045  64.599  1.00  0.00    -0.040 C  
ENDBRANCH  37  42
ENDBRANCH  30  31
ENDBRANCH  10  30
ENDBRANCH   3   5
ENDBRANCH   2   3
TORSDOF 8
ENDMDL
MODEL       94
REMARK 921   NORMALIZED FREE ENERGY PREDICTED BY IDOCK:   -5.71 KCAL/MOL
REMARK 922        TOTAL FREE ENERGY PREDICTED BY IDOCK:   -9.12 KCAL/MOL
REMARK 923 INTER-LIGAND FREE ENERGY PREDICTED BY IDOCK:   -8.24 KCAL/MOL
REMARK 924 INTRA-LIGAND FREE ENERGY PREDICTED BY IDOCK:   -0.88 KCAL/MOL
REMARK 927      BINDING AFFINITY PREDICTED BY RF-SCORE:    0.00 PKD
ROOT
HETATM    1  C   UNL     1     -10.268   5.914  72.305  1.00  0.00    -0.222 C  
HETATM    2  C   UNL     1     -11.754   5.853  71.979  1.00  0.00    -0.193 C  
ENDROOT
BRANCH   2   3
HETATM    3  N   UNL     1     -12.046   6.664  70.793  1.00  0.00    -0.379 NA 
HETATM    4  H   UNL     1     -13.038   6.602  70.564  1.00  0.00     0.000 HD 
BRANCH   3   5
HETATM    5  C   UNL     1     -11.630   8.091  70.875  1.00  0.00    -0.269 C  
HETATM    6  C   UNL     1     -12.753   8.972  71.442  1.00  0.00    -0.361 C  
HETATM    7  C   UNL     1     -12.318  10.435  71.574  1.00  0.00    -0.368 C  
HETATM    8  C   UNL     1     -11.979  11.029  70.179  1.00  0.00    -0.360 C  
HETATM    9  N   UNL     1     -13.405  11.183  72.239  1.00  0.00    -0.552 NA 
HETATM   10  C   UNL     1     -11.036   8.623  69.540  1.00  0.00    -0.055 C  
HETATM   11  H2  UNL     1     -13.676  10.772  73.132  1.00  0.00     0.000 HD 
HETATM   12  H1  UNL     1     -13.115  12.157  72.327  1.00  0.00     0.000 HD 
HETATM   13  C   UNL     1     -10.941  10.158  69.423  1.00  0.00    -0.245 C  
HETATM   14  H   UNL     1     -10.346   9.891  67.535  1.00  0.00     0.000 HD 
HETATM   15  O   UNL     1     -10.981  10.424  67.998  1.00  0.00    -0.252 OA 
BRANCH   8  16
HETATM   16  O   UNL     1     -11.463  12.387  70.367  1.00  0.00    -0.005 OA 
BRANCH  16  17
HETATM   17  C   UNL     1     -12.368  13.432  69.941  1.00  0.00    -0.195 C  
HETATM   18  H1  UNL     1      -9.838  15.012  68.161  1.00  0.00     0.000 HD 
HETATM   19  O   UNL     1     -13.155  13.868  71.057  1.00  0.00    -0.310 OA 
HETATM   20  C   UNL     1     -12.713  14.989  71.723  1.00  0.00    -0.339 C  
HETATM   21  H2  UNL     1     -10.169  13.377  68.294  1.00  0.00     0.000 HD 
HETATM   22  N   UNL     1     -10.276  14.291  68.734  1.00  0.00    -0.234 NA 
HETATM   23  C   UNL     1     -12.148  16.005  71.057  1.00  0.00    -0.372 C  
HETATM   24  C   UNL     1     -11.694  14.539  69.062  1.00  0.00    -0.311 C  
HETATM   25  C   UNL     1     -11.972  15.954  69.579  1.00  0.00    -0.274 C  
BRANCH  20  26
HETATM   26  C   UNL     1     -13.001  14.957  73.206  1.00  0.00    -0.519 C  
HETATM   27  N   UNL     1     -12.633  16.169  73.935  1.00  0.00    -0.593 NA 
HETATM   28  H2  UNL     1     -13.074  16.984  73.508  1.00  0.00     0.000 HD 
HETATM   29  H1  UNL     1     -12.828  16.148  74.936  1.00  0.00     0.000 HD 
ENDBRANCH  20  26
ENDBRANCH  16  17
ENDBRANCH   8  16
BRANCH  10  30
HETATM   30  O   UNL     1      -9.799   7.941  69.128  1.00  0.00    -0.168 OA 
BRANCH  30  31
HETATM   31  C   UNL     1      -9.573   7.801  67.713  1.00  0.00    -0.146 C  
HETATM   32  O   UNL     1     -11.378   6.136  67.625  1.00  0.00    -0.510 OA 
HETATM   33  C   UNL     1      -7.619   5.716  67.049  1.00  0.00    -0.096 C  
HETATM   34  C   UNL     1     -10.103   6.476  67.056  1.00  0.00    -0.179 C  
HETATM   35  O   UNL     1      -8.195   8.000  67.436  1.00  0.00    -0.120 OA 
HETATM   36  O   UNL     1      -7.223   6.094  65.715  1.00  0.00    -0.071 OA 
HETATM   37  C   UNL     1      -9.123   5.258  67.073  1.00  0.00    -0.112 C  
HETATM   38  H   UNL     1      -7.341   5.345  65.142  1.00  0.00     0.000 HD 
HETATM   39  C   UNL     1      -6.667   4.599  67.481  1.00  0.00    -0.051 C  
HETATM   40  H   UNL     1     -11.698   5.335  67.228  1.00  0.00     0.000 HD 
HETATM   41  C   UNL     1      -7.431   6.917  67.967  1.00  0.00    -0.099 C  
BRANCH  37  42
HETATM   42  N   UNL     1      -9.330   4.303  65.947  1.00  0.00    -0.151 NA 
HETATM   43  H   UNL     1      -9.677   4.639  65.048  1.00  0.00     0.000 HD 
HETATM   44  C   UNL     1      -9.038   2.903  66.132  1.00  0.00    -0.130 C  
ENDBRANCH  37  42
ENDBRANCH  30  31
ENDBRANCH  10  30
ENDBRANCH   3   5
ENDBRANCH   2   3
TORSDOF 8
ENDMDL
MODEL       95
REMARK 921   NORMALIZED FREE ENERGY PREDICTED BY IDOCK:   -5.70 KCAL/MOL
REMARK 922        TOTAL FREE ENERGY PREDICTED BY IDOCK:   -9.10 KCAL/MOL
REMARK 923 INTER-LIGAND FREE ENERGY PREDICTED BY IDOCK:   -7.71 KCAL/MOL
REMARK 924 INTRA-LIGAND FREE ENERGY PREDICTED BY IDOCK:   -1.39 KCAL/MOL
REMARK 927      BINDING AFFINITY PREDICTED BY RF-SCORE:    0.00 PKD
ROOT
HETATM    1  C   UNL     1      -7.678   9.116  70.176  1.00  0.00    -0.105 C  
HETATM    2  C   UNL     1      -7.007  10.445  69.858  1.00  0.00    -0.149 C  
ENDROOT
BRANCH   2   3
HETATM    3  N   UNL     1      -7.489  10.962  68.574  1.00  0.00    -0.096 NA 
HETATM    4  H   UNL     1      -8.428  10.611  68.387  1.00  0.00     0.000 HD 
BRANCH   3   5
HETATM    5  C   UNL     1      -7.461  12.444  68.429  1.00  0.00    -0.123 C  
HETATM    6  C   UNL     1      -6.396  13.077  69.337  1.00  0.00    -0.111 C  
HETATM    7  C   UNL     1      -6.327  14.597  69.160  1.00  0.00    -0.106 C  
HETATM    8  C   UNL     1      -7.674  15.253  69.570  1.00  0.00    -0.212 C  
HETATM    9  N   UNL     1      -5.201  15.107  69.968  1.00  0.00    -0.102 NA 
HETATM   10  C   UNL     1      -8.868  13.090  68.577  1.00  0.00    -0.038 C  
HETATM   11  H2  UNL     1      -4.318  14.645  69.748  1.00  0.00     0.000 HD 
HETATM   12  H1  UNL     1      -5.155  16.118  69.851  1.00  0.00     0.000 HD 
HETATM   13  C   UNL     1      -8.873  14.613  68.822  1.00  0.00    -0.166 C  
HETATM   14  H   UNL     1     -10.852  14.479  69.063  1.00  0.00     0.000 HD 
HETATM   15  O   UNL     1     -10.118  14.871  69.521  1.00  0.00    -0.190 OA 
BRANCH   8  16
HETATM   16  O   UNL     1      -7.599  16.686  69.279  1.00  0.00    -0.227 OA 
BRANCH  16  17
HETATM   17  C   UNL     1      -7.619  17.010  67.869  1.00  0.00    -0.173 C  
HETATM   18  H1  UNL     1      -4.464  18.449  68.067  1.00  0.00     0.000 HD 
HETATM   19  O   UNL     1      -8.894  17.567  67.525  1.00  0.00    -0.226 OA 
HETATM   20  C   UNL     1      -8.979  18.941  67.495  1.00  0.00    -0.284 C  
HETATM   21  H2  UNL     1      -5.033  17.053  68.794  1.00  0.00     0.000 HD 
HETATM   22  N   UNL     1      -5.294  17.953  68.392  1.00  0.00    -0.154 NA 
HETATM   23  C   UNL     1      -7.953  19.683  67.058  1.00  0.00    -0.311 C  
HETATM   24  C   UNL     1      -6.345  17.771  67.371  1.00  0.00    -0.154 C  
HETATM   25  C   UNL     1      -6.686  19.050  66.598  1.00  0.00    -0.207 C  
BRANCH  20  26
HETATM   26  C   UNL     1     -10.330  19.467  67.922  1.00  0.00    -0.430 C  
HETATM   27  N   UNL     1     -10.427  19.853  69.329  1.00  0.00    -0.544 NA 
HETATM   28  H2  UNL     1      -9.697  20.528  69.559  1.00  0.00     0.000 HD 
HETATM   29  H1  UNL     1     -11.338  20.208  69.618  1.00  0.00     0.000 HD 
ENDBRANCH  20  26
ENDBRANCH  16  17
ENDBRANCH   8  16
BRANCH  10  30
HETATM   30  O   UNL     1      -9.823  12.675  67.539  1.00  0.00    -0.198 OA 
BRANCH  30  31
HETATM   31  C   UNL     1      -9.537  13.087  66.188  1.00  0.00    -0.202 C  
HETATM   32  O   UNL     1     -10.509  15.287  66.692  1.00  0.00    -0.278 OA 
HETATM   33  C   UNL     1     -11.732  12.548  64.318  1.00  0.00    -0.382 C  
HETATM   34  C   UNL     1     -10.364  14.309  65.649  1.00  0.00    -0.336 C  
HETATM   35  O   UNL     1      -9.646  11.967  65.323  1.00  0.00    -0.205 OA 
HETATM   36  O   UNL     1     -11.053  12.581  63.046  1.00  0.00    -0.695 OA 
HETATM   37  C   UNL     1     -11.737  13.972  64.982  1.00  0.00    -0.364 C  
HETATM   38  H   UNL     1     -11.503  13.198  62.481  1.00  0.00     0.000 HD 
HETATM   39  C   UNL     1     -13.146  12.033  64.039  1.00  0.00    -0.125 C  
HETATM   40  H   UNL     1     -11.009  16.026  66.366  1.00  0.00     0.000 HD 
HETATM   41  C   UNL     1     -11.010  11.559  65.225  1.00  0.00    -0.228 C  
BRANCH  37  42
HETATM   42  N   UNL     1     -12.163  14.959  63.948  1.00  0.00    -1.016 NA 
HETATM   43  H   UNL     1     -12.836  14.690  63.230  1.00  0.00     0.000 HD 
HETATM   44  C   UNL     1     -11.618  16.294  63.965  1.00  0.00     0.425 C  
ENDBRANCH  37  42
ENDBRANCH  30  31
ENDBRANCH  10  30
ENDBRANCH   3   5
ENDBRANCH   2   3
TORSDOF 8
ENDMDL
MODEL       96
REMARK 921   NORMALIZED FREE ENERGY PREDICTED BY IDOCK:   -5.69 KCAL/MOL
REMARK 922        TOTAL FREE ENERGY PREDICTED BY IDOCK:   -9.09 KCAL/MOL
REMARK 923 INTER-LIGAND FREE ENERGY PREDICTED BY IDOCK:   -6.96 KCAL/MOL
REMARK 924 INTRA-LIGAND FREE ENERGY PREDICTED BY IDOCK:   -2.13 KCAL/MOL
REMARK 927      BINDING AFFINITY PREDICTED BY RF-SCORE:    0.00 PKD
ROOT
HETATM    1  C   UNL     1     -11.601  14.038  65.846  1.00  0.00    -0.350 C  
HETATM    2  C   UNL     1     -12.175  12.837  66.585  1.00  0.00    -0.092 C  
ENDROOT
BRANCH   2   3
HETATM    3  N   UNL     1     -11.708  12.828  67.975  1.00  0.00    -0.345 NA 
HETATM    4  H   UNL     1     -12.400  13.273  68.578  1.00  0.00     0.000 HD 
BRANCH   3   5
HETATM    5  C   UNL     1     -11.342  11.491  68.518  1.00  0.00    -0.277 C  
HETATM    6  C   UNL     1     -11.973  11.252  69.898  1.00  0.00    -0.440 C  
HETATM    7  C   UNL     1     -11.640   9.860  70.443  1.00  0.00    -0.282 C  
HETATM    8  C   UNL     1     -10.107   9.709  70.649  1.00  0.00    -0.256 C  
HETATM    9  N   UNL     1     -12.383   9.668  71.706  1.00  0.00    -0.387 NA 
HETATM   10  C   UNL     1      -9.810  11.224  68.480  1.00  0.00    -0.197 C  
HETATM   11  H2  UNL     1     -13.387   9.818  71.598  1.00  0.00     0.000 HD 
HETATM   12  H1  UNL     1     -12.162   8.741  72.069  1.00  0.00     0.000 HD 
HETATM   13  C   UNL     1      -9.321  10.054  69.357  1.00  0.00    -0.223 C  
HETATM   14  H   UNL     1      -7.456  10.583  68.870  1.00  0.00     0.000 HD 
HETATM   15  O   UNL     1      -7.938  10.372  69.661  1.00  0.00    -0.161 OA 
BRANCH   8  16
HETATM   16  O   UNL     1      -9.829   8.332  71.063  1.00  0.00    -0.178 OA 
BRANCH  16  17
HETATM   17  C   UNL     1      -9.870   7.367  69.986  1.00  0.00    -0.179 C  
HETATM   18  H1  UNL     1     -12.444   5.624  71.535  1.00  0.00     0.000 HD 
HETATM   19  O   UNL     1      -8.534   6.977  69.643  1.00  0.00    -0.131 OA 
HETATM   20  C   UNL     1      -8.065   5.814  70.214  1.00  0.00    -0.105 C  
HETATM   21  H2  UNL     1     -12.221   7.277  71.404  1.00  0.00     0.000 HD 
HETATM   22  N   UNL     1     -11.760   6.368  71.400  1.00  0.00    -0.317 NA 
HETATM   23  C   UNL     1      -8.879   4.768  70.408  1.00  0.00    -0.138 C  
HETATM   24  C   UNL     1     -10.921   6.225  70.193  1.00  0.00    -0.347 C  
HETATM   25  C   UNL     1     -10.316   4.828  70.021  1.00  0.00    -0.153 C  
BRANCH  20  26
HETATM   26  C   UNL     1      -6.583   5.846  70.506  1.00  0.00    -0.047 C  
HETATM   27  N   UNL     1      -5.750   6.361  69.421  1.00  0.00    -0.013 NA 
HETATM   28  H2  UNL     1      -6.073   7.287  69.139  1.00  0.00     0.000 HD 
HETATM   29  H1  UNL     1      -4.749   6.383  69.618  1.00  0.00     0.000 HD 
ENDBRANCH  20  26
ENDBRANCH  16  17
ENDBRANCH   8  16
BRANCH  10  30
HETATM   30  O   UNL     1      -9.247  11.195  67.121  1.00  0.00    -0.156 OA 
BRANCH  30  31
HETATM   31  C   UNL     1      -9.315   9.942  66.415  1.00  0.00    -0.167 C  
HETATM   32  O   UNL     1      -6.921   9.605  66.853  1.00  0.00    -0.083 OA 
HETATM   33  C   UNL     1      -8.754  10.191  63.546  1.00  0.00    -0.216 C  
HETATM   34  C   UNL     1      -7.951   9.375  65.878  1.00  0.00    -0.106 C  
HETATM   35  O   UNL     1     -10.279  10.040  65.377  1.00  0.00    -0.289 OA 
HETATM   36  O   UNL     1      -9.341   8.982  63.023  1.00  0.00    -0.438 OA 
HETATM   37  C   UNL     1      -7.516   9.859  64.457  1.00  0.00    -0.140 C  
HETATM   38  H   UNL     1      -8.681   8.523  62.515  1.00  0.00     0.000 HD 
HETATM   39  C   UNL     1      -8.370  11.044  62.335  1.00  0.00    -0.286 C  
HETATM   40  H   UNL     1      -6.097   9.262  66.528  1.00  0.00     0.000 HD 
HETATM   41  C   UNL     1      -9.810  10.927  64.361  1.00  0.00    -0.309 C  
BRANCH  37  42
HETATM   42  N   UNL     1      -6.658   8.882  63.725  1.00  0.00    -0.088 NA 
HETATM   43  H   UNL     1      -7.069   8.037  63.329  1.00  0.00     0.000 HD 
HETATM   44  C   UNL     1      -5.246   9.138  63.581  1.00  0.00    -0.061 C  
ENDBRANCH  37  42
ENDBRANCH  30  31
ENDBRANCH  10  30
ENDBRANCH   3   5
ENDBRANCH   2   3
TORSDOF 8
ENDMDL
MODEL       97
REMARK 921   NORMALIZED FREE ENERGY PREDICTED BY IDOCK:   -5.67 KCAL/MOL
REMARK 922        TOTAL FREE ENERGY PREDICTED BY IDOCK:   -9.07 KCAL/MOL
REMARK 923 INTER-LIGAND FREE ENERGY PREDICTED BY IDOCK:   -7.27 KCAL/MOL
REMARK 924 INTRA-LIGAND FREE ENERGY PREDICTED BY IDOCK:   -1.80 KCAL/MOL
REMARK 927      BINDING AFFINITY PREDICTED BY RF-SCORE:    0.00 PKD
ROOT
HETATM    1  C   UNL     1      -9.953   8.215  72.867  1.00  0.00    -0.336 C  
HETATM    2  C   UNL     1     -11.017   8.508  71.818  1.00  0.00    -0.306 C  
ENDROOT
BRANCH   2   3
HETATM    3  N   UNL     1     -10.388   8.906  70.556  1.00  0.00    -0.193 NA 
HETATM    4  H   UNL     1      -9.383   9.023  70.688  1.00  0.00     0.000 HD 
BRANCH   3   5
HETATM    5  C   UNL     1     -10.649   8.006  69.398  1.00  0.00    -0.205 C  
HETATM    6  C   UNL     1     -10.100   6.594  69.650  1.00  0.00    -0.202 C  
HETATM    7  C   UNL     1     -10.406   5.648  68.484  1.00  0.00    -0.199 C  
HETATM    8  C   UNL     1      -9.713   6.145  67.185  1.00  0.00    -0.135 C  
HETATM    9  N   UNL     1      -9.959   4.291  68.859  1.00  0.00    -0.054 NA 
HETATM   10  C   UNL     1     -10.192   8.619  68.044  1.00  0.00    -0.210 C  
HETATM   11  H2  UNL     1     -10.364   3.973  69.740  1.00  0.00     0.000 HD 
HETATM   12  H1  UNL     1     -10.162   3.662  68.083  1.00  0.00     0.000 HD 
HETATM   13  C   UNL     1     -10.073   7.622  66.874  1.00  0.00    -0.278 C  
HETATM   14  H   UNL     1      -9.318   9.119  65.788  1.00  0.00     0.000 HD 
HETATM   15  O   UNL     1      -9.098   8.215  65.979  1.00  0.00    -0.183 OA 
BRANCH   8  16
HETATM   16  O   UNL     1     -10.124   5.276  66.080  1.00  0.00    -0.174 OA 
BRANCH  16  17
HETATM   17  C   UNL     1      -9.062   4.947  65.155  1.00  0.00    -0.144 C  
HETATM   18  H1  UNL     1     -11.229   3.054  63.210  1.00  0.00     0.000 HD 
HETATM   19  O   UNL     1      -7.885   4.585  65.887  1.00  0.00    -0.093 OA 
HETATM   20  C   UNL     1      -7.671   3.238  66.084  1.00  0.00    -0.078 C  
HETATM   21  H2  UNL     1     -11.499   4.525  63.959  1.00  0.00     0.000 HD 
HETATM   22  N   UNL     1     -10.942   3.671  63.969  1.00  0.00    -0.299 NA 
HETATM   23  C   UNL     1      -7.988   2.347  65.135  1.00  0.00    -0.078 C  
HETATM   24  C   UNL     1      -9.502   3.999  63.989  1.00  0.00    -0.158 C  
HETATM   25  C   UNL     1      -8.587   2.780  63.842  1.00  0.00    -0.086 C  
BRANCH  20  26
HETATM   26  C   UNL     1      -7.001   2.924  67.402  1.00  0.00    -0.049 C  
HETATM   27  N   UNL     1      -7.099   3.977  68.411  1.00  0.00    -0.054 NA 
HETATM   28  H2  UNL     1      -8.075   4.228  68.564  1.00  0.00     0.000 HD 
HETATM   29  H1  UNL     1      -6.647   3.765  69.301  1.00  0.00     0.000 HD 
ENDBRANCH  20  26
ENDBRANCH  16  17
ENDBRANCH   8  16
BRANCH  10  30
HETATM   30  O   UNL     1     -10.913   9.848  67.676  1.00  0.00    -0.289 OA 
BRANCH  30  31
HETATM   31  C   UNL     1     -10.133  11.055  67.577  1.00  0.00    -0.180 C  
HETATM   32  O   UNL     1     -10.984  11.744  69.777  1.00  0.00    -0.460 OA 
HETATM   33  C   UNL     1     -11.583  13.275  66.323  1.00  0.00    -0.346 C  
HETATM   34  C   UNL     1     -10.588  12.249  68.491  1.00  0.00    -0.234 C  
HETATM   35  O   UNL     1     -10.050  11.449  66.216  1.00  0.00    -0.211 OA 
HETATM   36  O   UNL     1     -10.504  14.140  65.912  1.00  0.00    -0.288 OA 
HETATM   37  C   UNL     1     -11.671  13.204  67.890  1.00  0.00    -0.357 C  
HETATM   38  H   UNL     1     -10.662  15.008  66.265  1.00  0.00     0.000 HD 
HETATM   39  C   UNL     1     -12.856  13.848  65.697  1.00  0.00    -0.467 C  
HETATM   40  H   UNL     1     -11.259  12.466  70.329  1.00  0.00     0.000 HD 
HETATM   41  C   UNL     1     -11.329  11.884  65.756  1.00  0.00    -0.299 C  
BRANCH  37  42
HETATM   42  N   UNL     1     -11.604  14.597  68.417  1.00  0.00    -0.308 NA 
HETATM   43  H   UNL     1     -11.243  15.350  67.831  1.00  0.00     0.000 HD 
HETATM   44  C   UNL     1     -12.050  14.877  69.760  1.00  0.00    -0.314 C  
ENDBRANCH  37  42
ENDBRANCH  30  31
ENDBRANCH  10  30
ENDBRANCH   3   5
ENDBRANCH   2   3
TORSDOF 8
ENDMDL
MODEL       98
REMARK 921   NORMALIZED FREE ENERGY PREDICTED BY IDOCK:   -5.67 KCAL/MOL
REMARK 922        TOTAL FREE ENERGY PREDICTED BY IDOCK:   -9.06 KCAL/MOL
REMARK 923 INTER-LIGAND FREE ENERGY PREDICTED BY IDOCK:   -7.57 KCAL/MOL
REMARK 924 INTRA-LIGAND FREE ENERGY PREDICTED BY IDOCK:   -1.48 KCAL/MOL
REMARK 927      BINDING AFFINITY PREDICTED BY RF-SCORE:    0.00 PKD
ROOT
HETATM    1  C   UNL     1      -8.342   8.176  72.756  1.00  0.00    -0.240 C  
HETATM    2  C   UNL     1      -8.761   8.724  71.399  1.00  0.00    -0.214 C  
ENDROOT
BRANCH   2   3
HETATM    3  N   UNL     1      -7.617   8.738  70.482  1.00  0.00    -0.075 NA 
HETATM    4  H   UNL     1      -7.193   7.811  70.440  1.00  0.00     0.000 HD 
BRANCH   3   5
HETATM    5  C   UNL     1      -7.905   9.230  69.107  1.00  0.00    -0.086 C  
HETATM    6  C   UNL     1      -7.916  10.765  69.050  1.00  0.00    -0.137 C  
HETATM    7  C   UNL     1      -8.164  11.281  67.629  1.00  0.00    -0.120 C  
HETATM    8  C   UNL     1      -9.563  10.830  67.124  1.00  0.00    -0.161 C  
HETATM    9  N   UNL     1      -8.034  12.752  67.641  1.00  0.00    -0.152 NA 
HETATM   10  C   UNL     1      -9.172   8.576  68.485  1.00  0.00    -0.135 C  
HETATM   11  H2  UNL     1      -7.140  13.064  68.022  1.00  0.00     0.000 HD 
HETATM   12  H1  UNL     1      -8.199  13.095  66.696  1.00  0.00     0.000 HD 
HETATM   13  C   UNL     1      -9.749   9.295  67.249  1.00  0.00    -0.167 C  
HETATM   14  H   UNL     1     -11.269   8.001  67.314  1.00  0.00     0.000 HD 
HETATM   15  O   UNL     1     -11.155   8.940  67.237  1.00  0.00     0.009 OA 
BRANCH   8  16
HETATM   16  O   UNL     1      -9.708  11.249  65.729  1.00  0.00    -0.209 OA 
BRANCH  16  17
HETATM   17  C   UNL     1     -11.078  11.424  65.299  1.00  0.00    -0.129 C  
HETATM   18  H1  UNL     1     -10.052  12.269  62.090  1.00  0.00     0.000 HD 
HETATM   19  O   UNL     1     -11.798  12.169  66.289  1.00  0.00    -0.553 OA 
HETATM   20  C   UNL     1     -11.915  13.525  66.078  1.00  0.00    -0.409 C  
HETATM   21  H2  UNL     1      -9.454  11.084  63.109  1.00  0.00     0.000 HD 
HETATM   22  N   UNL     1      -9.956  11.970  63.060  1.00  0.00    -0.303 NA 
HETATM   23  C   UNL     1     -12.073  14.015  64.842  1.00  0.00    -0.435 C  
HETATM   24  C   UNL     1     -11.225  11.882  63.809  1.00  0.00    -0.440 C  
HETATM   25  C   UNL     1     -12.122  13.115  63.656  1.00  0.00    -0.583 C  
BRANCH  20  26
HETATM   26  C   UNL     1     -11.916  14.332  67.355  1.00  0.00    -0.391 C  
HETATM   27  N   UNL     1     -11.984  13.545  68.585  1.00  0.00    -0.358 NA 
HETATM   28  H2  UNL     1     -11.231  12.857  68.604  1.00  0.00     0.000 HD 
HETATM   29  H1  UNL     1     -11.985  14.089  69.447  1.00  0.00     0.000 HD 
ENDBRANCH  20  26
ENDBRANCH  16  17
ENDBRANCH   8  16
BRANCH  10  30
HETATM   30  O   UNL     1      -9.057   7.121  68.299  1.00  0.00    -0.135 OA 
BRANCH  30  31
HETATM   31  C   UNL     1      -8.769   6.657  66.966  1.00  0.00    -0.113 C  
HETATM   32  O   UNL     1     -11.146   6.101  66.684  1.00  0.00    -0.675 OA 
HETATM   33  C   UNL     1      -8.090   3.805  66.850  1.00  0.00    -0.095 C  
HETATM   34  C   UNL     1      -9.819   5.673  66.335  1.00  0.00    -0.154 C  
HETATM   35  O   UNL     1      -7.461   6.106  66.933  1.00  0.00    -0.084 OA 
HETATM   36  O   UNL     1      -7.403   3.715  65.585  1.00  0.00    -0.073 OA 
HETATM   37  C   UNL     1      -9.607   4.153  66.634  1.00  0.00    -0.206 C  
HETATM   38  H   UNL     1      -7.818   3.036  65.065  1.00  0.00     0.000 HD 
HETATM   39  C   UNL     1      -7.898   2.454  67.542  1.00  0.00    -0.064 C  
HETATM   40  H   UNL     1     -11.781   5.506  66.303  1.00  0.00     0.000 HD 
HETATM   41  C   UNL     1      -7.425   4.892  67.684  1.00  0.00    -0.079 C  
BRANCH  37  42
HETATM   42  N   UNL     1     -10.138   3.251  65.572  1.00  0.00    -0.367 NA 
HETATM   43  H   UNL     1     -10.276   2.259  65.765  1.00  0.00     0.000 HD 
HETATM   44  C   UNL     1     -10.456   3.786  64.271  1.00  0.00    -0.241 C  
ENDBRANCH  37  42
ENDBRANCH  30  31
ENDBRANCH  10  30
ENDBRANCH   3   5
ENDBRANCH   2   3
TORSDOF 8
ENDMDL
MODEL       99
REMARK 921   NORMALIZED FREE ENERGY PREDICTED BY IDOCK:   -5.62 KCAL/MOL
REMARK 922        TOTAL FREE ENERGY PREDICTED BY IDOCK:   -8.99 KCAL/MOL
REMARK 923 INTER-LIGAND FREE ENERGY PREDICTED BY IDOCK:   -7.61 KCAL/MOL
REMARK 924 INTRA-LIGAND FREE ENERGY PREDICTED BY IDOCK:   -1.38 KCAL/MOL
REMARK 927      BINDING AFFINITY PREDICTED BY RF-SCORE:    0.00 PKD
ROOT
HETATM    1  C   UNL     1     -11.602  16.162  69.587  1.00  0.00    -0.244 C  
HETATM    2  C   UNL     1     -11.109  15.018  70.463  1.00  0.00    -0.211 C  
ENDROOT
BRANCH   2   3
HETATM    3  N   UNL     1     -11.649  13.743  69.982  1.00  0.00    -0.450 NA 
HETATM    4  H   UNL     1     -12.471  13.909  69.400  1.00  0.00     0.000 HD 
BRANCH   3   5
HETATM    5  C   UNL     1     -10.682  12.869  69.263  1.00  0.00     0.080 C  
HETATM    6  C   UNL     1      -9.631  13.696  68.508  1.00  0.00    -0.165 C  
HETATM    7  C   UNL     1      -8.604  12.805  67.803  1.00  0.00    -0.184 C  
HETATM    8  C   UNL     1      -9.297  11.922  66.729  1.00  0.00    -0.201 C  
HETATM    9  N   UNL     1      -7.565  13.673  67.212  1.00  0.00    -0.344 NA 
HETATM   10  C   UNL     1     -11.382  11.796  68.380  1.00  0.00    -0.270 C  
HETATM   11  H2  UNL     1      -7.139  14.298  67.896  1.00  0.00     0.000 HD 
HETATM   12  H1  UNL     1      -6.882  13.080  66.743  1.00  0.00     0.000 HD 
HETATM   13  C   UNL     1     -10.482  11.118  67.327  1.00  0.00    -0.226 C  
HETATM   14  H   UNL     1     -12.119  10.195  66.650  1.00  0.00     0.000 HD 
HETATM   15  O   UNL     1     -11.393  10.686  66.284  1.00  0.00     0.052 OA 
BRANCH   8  16
HETATM   16  O   UNL     1      -8.298  11.011  66.164  1.00  0.00    -0.166 OA 
BRANCH  16  17
HETATM   17  C   UNL     1      -7.483  10.335  67.149  1.00  0.00    -0.092 C  
HETATM   18  H1  UNL     1      -4.568  11.383  65.577  1.00  0.00     0.000 HD 
HETATM   19  O   UNL     1      -8.011   9.025  67.389  1.00  0.00    -0.099 OA 
HETATM   20  C   UNL     1      -7.430   7.988  66.692  1.00  0.00    -0.089 C  
HETATM   21  H2  UNL     1      -5.983  12.233  65.846  1.00  0.00     0.000 HD 
HETATM   22  N   UNL     1      -5.571  11.306  65.745  1.00  0.00    -0.192 NA 
HETATM   23  C   UNL     1      -6.113   7.981  66.445  1.00  0.00    -0.045 C  
HETATM   24  C   UNL     1      -5.943  10.453  66.891  1.00  0.00    -0.057 C  
HETATM   25  C   UNL     1      -5.237   9.093  66.906  1.00  0.00    -0.039 C  
BRANCH  20  26
HETATM   26  C   UNL     1      -8.402   6.889  66.332  1.00  0.00    -0.125 C  
HETATM   27  N   UNL     1      -9.814   7.255  66.432  1.00  0.00    -0.419 NA 
HETATM   28  H2  UNL     1     -10.002   8.088  65.874  1.00  0.00     0.000 HD 
HETATM   29  H1  UNL     1     -10.471   6.513  66.189  1.00  0.00     0.000 HD 
ENDBRANCH  20  26
ENDBRANCH  16  17
ENDBRANCH   8  16
BRANCH  10  30
HETATM   30  O   UNL     1     -12.191  10.835  69.145  1.00  0.00    -0.387 OA 
BRANCH  30  31
HETATM   31  C   UNL     1     -11.804  10.602  70.512  1.00  0.00    -0.357 C  
HETATM   32  O   UNL     1     -10.161   8.951  69.729  1.00  0.00    -0.190 OA 
HETATM   33  C   UNL     1     -13.338   8.460  71.804  1.00  0.00    -0.357 C  
HETATM   34  C   UNL     1     -11.073   9.241  70.802  1.00  0.00    -0.285 C  
HETATM   35  O   UNL     1     -12.934  10.770  71.355  1.00  0.00    -0.390 OA 
HETATM   36  O   UNL     1     -13.129   8.748  73.202  1.00  0.00    -0.794 OA 
HETATM   37  C   UNL     1     -11.993   8.019  71.122  1.00  0.00    -0.277 C  
HETATM   38  H   UNL     1     -12.796   7.964  73.625  1.00  0.00     0.000 HD 
HETATM   39  C   UNL     1     -14.405   7.366  71.745  1.00  0.00    -0.586 C  
HETATM   40  H   UNL     1      -9.719   8.129  69.904  1.00  0.00     0.000 HD 
HETATM   41  C   UNL     1     -13.871   9.717  71.128  1.00  0.00    -0.007 C  
BRANCH  37  42
HETATM   42  N   UNL     1     -11.350   6.995  71.995  1.00  0.00    -0.256 NA 
HETATM   43  H   UNL     1     -11.179   7.196  72.980  1.00  0.00     0.000 HD 
HETATM   44  C   UNL     1     -10.971   5.718  71.442  1.00  0.00    -0.237 C  
ENDBRANCH  37  42
ENDBRANCH  30  31
ENDBRANCH  10  30
ENDBRANCH   3   5
ENDBRANCH   2   3
TORSDOF 8
ENDMDL
MODEL      100
REMARK 921   NORMALIZED FREE ENERGY PREDICTED BY IDOCK:   -5.62 KCAL/MOL
REMARK 922        TOTAL FREE ENERGY PREDICTED BY IDOCK:   -8.99 KCAL/MOL
REMARK 923 INTER-LIGAND FREE ENERGY PREDICTED BY IDOCK:   -7.80 KCAL/MOL
REMARK 924 INTRA-LIGAND FREE ENERGY PREDICTED BY IDOCK:   -1.19 KCAL/MOL
REMARK 927      BINDING AFFINITY PREDICTED BY RF-SCORE:    0.00 PKD
ROOT
HETATM    1  C   UNL     1     -11.685  12.837  63.374  1.00  0.00    -0.556 C  
HETATM    2  C   UNL     1     -10.341  12.122  63.393  1.00  0.00    -0.402 C  
ENDROOT
BRANCH   2   3
HETATM    3  N   UNL     1     -10.501  10.757  63.903  1.00  0.00    -0.491 NA 
HETATM    4  H   UNL     1     -10.222  10.083  63.190  1.00  0.00     0.000 HD 
BRANCH   3   5
HETATM    5  C   UNL     1      -9.797  10.465  65.183  1.00  0.00    -0.313 C  
HETATM    6  C   UNL     1      -9.353   8.997  65.258  1.00  0.00    -0.158 C  
HETATM    7  C   UNL     1      -8.587   8.699  66.550  1.00  0.00    -0.116 C  
HETATM    8  C   UNL     1      -9.498   8.927  67.787  1.00  0.00    -0.141 C  
HETATM    9  N   UNL     1      -8.090   7.310  66.485  1.00  0.00    -0.110 NA 
HETATM   10  C   UNL     1     -10.597  10.938  66.431  1.00  0.00    -0.229 C  
HETATM   11  H2  UNL     1      -7.534   7.130  65.648  1.00  0.00     0.000 HD 
HETATM   12  H1  UNL     1      -7.580   7.111  67.345  1.00  0.00     0.000 HD 
HETATM   13  C   UNL     1     -10.134  10.343  67.776  1.00  0.00    -0.181 C  
HETATM   14  H   UNL     1     -11.699  11.256  68.618  1.00  0.00     0.000 HD 
HETATM   15  O   UNL     1     -11.309  10.390  68.625  1.00  0.00    -0.256 OA 
BRANCH   8  16
HETATM   16  O   UNL     1      -8.694   8.740  68.997  1.00  0.00    -0.130 OA 
BRANCH  16  17
HETATM   17  C   UNL     1      -9.400   8.109  70.090  1.00  0.00    -0.159 C  
HETATM   18  H1  UNL     1      -7.365   9.683  72.424  1.00  0.00     0.000 HD 
HETATM   19  O   UNL     1      -9.601   6.722  69.792  1.00  0.00    -0.151 OA 
HETATM   20  C   UNL     1      -8.686   5.838  70.320  1.00  0.00    -0.137 C  
HETATM   21  H2  UNL     1      -8.024  10.300  71.014  1.00  0.00     0.000 HD 
HETATM   22  N   UNL     1      -7.735   9.452  71.502  1.00  0.00    -0.267 NA 
HETATM   23  C   UNL     1      -8.162   6.038  71.536  1.00  0.00    -0.123 C  
HETATM   24  C   UNL     1      -8.832   8.464  71.505  1.00  0.00    -0.185 C  
HETATM   25  C   UNL     1      -8.545   7.222  72.355  1.00  0.00    -0.133 C  
BRANCH  20  26
HETATM   26  C   UNL     1      -8.424   4.645  69.430  1.00  0.00    -0.081 C  
HETATM   27  N   UNL     1      -9.615   3.905  69.021  1.00  0.00    -0.169 NA 
HETATM   28  H2  UNL     1     -10.285   4.534  68.578  1.00  0.00     0.000 HD 
HETATM   29  H1  UNL     1      -9.439   3.099  68.420  1.00  0.00     0.000 HD 
ENDBRANCH  20  26
ENDBRANCH  16  17
ENDBRANCH   8  16
BRANCH  10  30
HETATM   30  O   UNL     1     -10.799  12.394  66.489  1.00  0.00    -0.239 OA 
BRANCH  30  31
HETATM   31  C   UNL     1      -9.935  13.136  67.370  1.00  0.00    -0.229 C  
HETATM   32  O   UNL     1     -11.842  13.496  68.878  1.00  0.00    -0.309 OA 
HETATM   33  C   UNL     1      -9.863  16.009  66.779  1.00  0.00    -0.250 C  
HETATM   34  C   UNL     1     -10.647  14.114  68.373  1.00  0.00    -0.259 C  
HETATM   35  O   UNL     1      -8.949  13.811  66.603  1.00  0.00    -0.217 OA 
HETATM   36  O   UNL     1      -8.636  16.413  67.420  1.00  0.00    -0.174 OA 
HETATM   37  C   UNL     1     -10.925  15.559  67.846  1.00  0.00    -0.316 C  
HETATM   38  H   UNL     1      -8.827  17.135  68.008  1.00  0.00     0.000 HD 
HETATM   39  C   UNL     1     -10.338  17.211  65.960  1.00  0.00    -0.317 C  
HETATM   40  H   UNL     1     -12.272  14.087  69.485  1.00  0.00     0.000 HD 
HETATM   41  C   UNL     1      -9.557  14.851  65.837  1.00  0.00    -0.308 C  
BRANCH  37  42
HETATM   42  N   UNL     1     -10.963  16.594  68.920  1.00  0.00    -0.316 NA 
HETATM   43  H   UNL     1     -10.806  17.576  68.690  1.00  0.00     0.000 HD 
HETATM   44  C   UNL     1     -11.223  16.203  70.283  1.00  0.00    -0.381 C  
ENDBRANCH  37  42
ENDBRANCH  30  31
ENDBRANCH  10  30
ENDBRANCH   3   5
ENDBRANCH   2   3
TORSDOF 8
ENDMDL
MODEL      101
REMARK 921   NORMALIZED FREE ENERGY PREDICTED BY IDOCK:   -5.62 KCAL/MOL
REMARK 922        TOTAL FREE ENERGY PREDICTED BY IDOCK:   -8.98 KCAL/MOL
REMARK 923 INTER-LIGAND FREE ENERGY PREDICTED BY IDOCK:   -7.05 KCAL/MOL
REMARK 924 INTRA-LIGAND FREE ENERGY PREDICTED BY IDOCK:   -1.93 KCAL/MOL
REMARK 927      BINDING AFFINITY PREDICTED BY RF-SCORE:    0.00 PKD
ROOT
HETATM    1  C   UNL     1     -12.716  14.129  65.243  1.00  0.00    -0.425 C  
HETATM    2  C   UNL     1     -12.176  12.707  65.317  1.00  0.00    -0.475 C  
ENDROOT
BRANCH   2   3
HETATM    3  N   UNL     1     -10.947  12.673  66.115  1.00  0.00    -0.275 NA 
HETATM    4  H   UNL     1     -10.761  13.595  66.510  1.00  0.00     0.000 HD 
BRANCH   3   5
HETATM    5  C   UNL     1     -10.909  11.642  67.189  1.00  0.00    -0.261 C  
HETATM    6  C   UNL     1     -11.747  12.065  68.405  1.00  0.00    -0.390 C  
HETATM    7  C   UNL     1     -11.752  10.989  69.495  1.00  0.00    -0.329 C  
HETATM    8  C   UNL     1     -10.314  10.755  70.034  1.00  0.00     0.195 C  
HETATM    9  N   UNL     1     -12.675  11.418  70.565  1.00  0.00    -0.188 NA 
HETATM   10  C   UNL     1      -9.461  11.204  67.552  1.00  0.00    -0.168 C  
HETATM   11  H2  UNL     1     -13.610  11.629  70.216  1.00  0.00     0.000 HD 
HETATM   12  H1  UNL     1     -12.678  10.702  71.291  1.00  0.00     0.000 HD 
HETATM   13  C   UNL     1      -9.316  10.445  68.887  1.00  0.00    -0.186 C  
HETATM   14  H   UNL     1      -7.339  10.504  68.605  1.00  0.00     0.000 HD 
HETATM   15  O   UNL     1      -7.950  10.693  69.307  1.00  0.00    -0.147 OA 
BRANCH   8  16
HETATM   16  O   UNL     1     -10.352   9.645  70.989  1.00  0.00    -0.298 OA 
BRANCH  16  17
HETATM   17  C   UNL     1     -10.944   8.432  70.469  1.00  0.00    -0.242 C  
HETATM   18  H1  UNL     1     -13.326   8.411  72.997  1.00  0.00     0.000 HD 
HETATM   19  O   UNL     1      -9.909   7.499  70.136  1.00  0.00    -0.179 OA 
HETATM   20  C   UNL     1      -9.610   6.544  71.083  1.00  0.00    -0.171 C  
HETATM   21  H2  UNL     1     -12.734   9.706  72.119  1.00  0.00     0.000 HD 
HETATM   22  N   UNL     1     -12.542   8.760  72.446  1.00  0.00    -0.387 NA 
HETATM   23  C   UNL     1     -10.574   6.003  71.839  1.00  0.00    -0.272 C  
HETATM   24  C   UNL     1     -12.148   7.897  71.315  1.00  0.00    -0.296 C  
HETATM   25  C   UNL     1     -11.997   6.418  71.688  1.00  0.00    -0.347 C  
BRANCH  20  26
HETATM   26  C   UNL     1      -8.150   6.157  71.103  1.00  0.00    -0.121 C  
HETATM   27  N   UNL     1      -7.454   6.302  69.826  1.00  0.00    -0.079 NA 
HETATM   28  H2  UNL     1      -7.561   7.253  69.473  1.00  0.00     0.000 HD 
HETATM   29  H1  UNL     1      -6.468   6.040  69.839  1.00  0.00     0.000 HD 
ENDBRANCH  20  26
ENDBRANCH  16  17
ENDBRANCH   8  16
BRANCH  10  30
HETATM   30  O   UNL     1      -8.742  10.555  66.445  1.00  0.00    -0.138 OA 
BRANCH  30  31
HETATM   31  C   UNL     1      -9.483   9.604  65.657  1.00  0.00    -0.255 C  
HETATM   32  O   UNL     1      -8.664   7.807  67.120  1.00  0.00    -0.122 OA 
HETATM   33  C   UNL     1      -7.938   8.490  63.426  1.00  0.00    -0.161 C  
HETATM   34  C   UNL     1      -9.014   8.108  65.758  1.00  0.00    -0.119 C  
HETATM   35  O   UNL     1      -9.522  10.043  64.307  1.00  0.00    -0.280 OA 
HETATM   36  O   UNL     1      -8.980   7.994  62.561  1.00  0.00    -0.373 OA 
HETATM   37  C   UNL     1      -7.890   7.669  64.765  1.00  0.00    -0.129 C  
HETATM   38  H   UNL     1      -8.805   7.079  62.372  1.00  0.00     0.000 HD 
HETATM   39  C   UNL     1      -6.633   8.383  62.633  1.00  0.00    -0.091 C  
HETATM   40  H   UNL     1      -8.381   6.903  67.181  1.00  0.00     0.000 HD 
HETATM   41  C   UNL     1      -8.220   9.956  63.729  1.00  0.00    -0.158 C  
BRANCH  37  42
HETATM   42  N   UNL     1      -7.927   6.219  64.416  1.00  0.00    -0.118 NA 
HETATM   43  H   UNL     1      -8.553   5.885  63.682  1.00  0.00     0.000 HD 
HETATM   44  C   UNL     1      -7.077   5.291  65.119  1.00  0.00    -0.065 C  
ENDBRANCH  37  42
ENDBRANCH  30  31
ENDBRANCH  10  30
ENDBRANCH   3   5
ENDBRANCH   2   3
TORSDOF 8
ENDMDL
MODEL      102
REMARK 921   NORMALIZED FREE ENERGY PREDICTED BY IDOCK:   -5.61 KCAL/MOL
REMARK 922        TOTAL FREE ENERGY PREDICTED BY IDOCK:   -8.98 KCAL/MOL
REMARK 923 INTER-LIGAND FREE ENERGY PREDICTED BY IDOCK:   -7.36 KCAL/MOL
REMARK 924 INTRA-LIGAND FREE ENERGY PREDICTED BY IDOCK:   -1.62 KCAL/MOL
REMARK 927      BINDING AFFINITY PREDICTED BY RF-SCORE:    0.00 PKD
ROOT
HETATM    1  C   UNL     1      -5.715  14.814  70.376  1.00  0.00    -0.148 C  
HETATM    2  C   UNL     1      -5.295  13.645  69.495  1.00  0.00    -0.085 C  
ENDROOT
BRANCH   2   3
HETATM    3  N   UNL     1      -6.330  13.368  68.494  1.00  0.00    -0.080 NA 
HETATM    4  H   UNL     1      -5.930  13.412  67.557  1.00  0.00     0.000 HD 
BRANCH   3   5
HETATM    5  C   UNL     1      -7.068  12.087  68.674  1.00  0.00    -0.103 C  
HETATM    6  C   UNL     1      -6.496  11.268  69.841  1.00  0.00    -0.132 C  
HETATM    7  C   UNL     1      -7.279   9.970  70.063  1.00  0.00    -0.156 C  
HETATM    8  C   UNL     1      -7.177   9.053  68.813  1.00  0.00    -0.075 C  
HETATM    9  N   UNL     1      -6.747   9.310  71.272  1.00  0.00    -0.219 NA 
HETATM   10  C   UNL     1      -7.201  11.278  67.352  1.00  0.00    -0.110 C  
HETATM   11  H2  UNL     1      -6.757   9.920  72.090  1.00  0.00     0.000 HD 
HETATM   12  H1  UNL     1      -7.268   8.446  71.420  1.00  0.00     0.000 HD 
HETATM   13  C   UNL     1      -7.601   9.799  67.520  1.00  0.00    -0.091 C  
HETATM   14  H   UNL     1      -7.331   9.592  65.551  1.00  0.00     0.000 HD 
HETATM   15  O   UNL     1      -7.072   9.136  66.343  1.00  0.00    -0.082 OA 
BRANCH   8  16
HETATM   16  O   UNL     1      -8.029   7.881  69.028  1.00  0.00    -0.117 OA 
BRANCH  16  17
HETATM   17  C   UNL     1      -9.445   8.142  68.897  1.00  0.00    -0.151 C  
HETATM   18  H1  UNL     1      -9.959   7.512  72.274  1.00  0.00     0.000 HD 
HETATM   19  O   UNL     1      -9.946   7.488  67.725  1.00  0.00    -0.155 OA 
HETATM   20  C   UNL     1     -10.535   6.256  67.910  1.00  0.00    -0.230 C  
HETATM   21  H2  UNL     1      -8.705   8.338  71.536  1.00  0.00     0.000 HD 
HETATM   22  N   UNL     1      -9.432   7.635  71.409  1.00  0.00    -0.148 NA 
HETATM   23  C   UNL     1     -11.271   6.005  69.001  1.00  0.00    -0.298 C  
HETATM   24  C   UNL     1     -10.253   7.955  70.225  1.00  0.00    -0.200 C  
HETATM   25  C   UNL     1     -11.471   7.042  70.051  1.00  0.00    -0.262 C  
BRANCH  20  26
HETATM   26  C   UNL     1     -10.317   5.308  66.754  1.00  0.00    -0.273 C  
HETATM   27  N   UNL     1      -9.435   5.809  65.701  1.00  0.00    -0.365 NA 
HETATM   28  H2  UNL     1      -8.539   6.091  66.098  1.00  0.00     0.000 HD 
HETATM   29  H1  UNL     1      -9.288   5.169  64.920  1.00  0.00     0.000 HD 
ENDBRANCH  20  26
ENDBRANCH  16  17
ENDBRANCH   8  16
BRANCH  10  30
HETATM   30  O   UNL     1      -7.981  11.967  66.312  1.00  0.00     0.041 OA 
BRANCH  30  31
HETATM   31  C   UNL     1      -9.416  11.903  66.426  1.00  0.00    -0.228 C  
HETATM   32  O   UNL     1      -9.524  11.035  64.129  1.00  0.00    -0.225 OA 
HETATM   33  C   UNL     1     -10.760  14.362  65.558  1.00  0.00    -0.336 C  
HETATM   34  C   UNL     1     -10.216  11.869  65.074  1.00  0.00    -0.278 C  
HETATM   35  O   UNL     1      -9.867  12.955  67.266  1.00  0.00    -0.212 OA 
HETATM   36  O   UNL     1     -12.046  14.239  66.199  1.00  0.00    -0.407 OA 
HETATM   37  C   UNL     1     -10.582  13.257  64.455  1.00  0.00    -0.419 C  
HETATM   38  H   UNL     1     -12.723  14.333  65.538  1.00  0.00     0.000 HD 
HETATM   39  C   UNL     1     -10.702  15.776  64.976  1.00  0.00    -0.443 C  
HETATM   40  H   UNL     1     -10.007  11.015  63.312  1.00  0.00     0.000 HD 
HETATM   41  C   UNL     1      -9.677  14.212  66.618  1.00  0.00    -0.288 C  
BRANCH  37  42
HETATM   42  N   UNL     1     -11.820  13.236  63.622  1.00  0.00    -0.663 NA 
HETATM   43  H   UNL     1     -12.239  14.111  63.307  1.00  0.00     0.000 HD 
HETATM   44  C   UNL     1     -12.422  11.975  63.265  1.00  0.00    -0.425 C  
ENDBRANCH  37  42
ENDBRANCH  30  31
ENDBRANCH  10  30
ENDBRANCH   3   5
ENDBRANCH   2   3
TORSDOF 8
ENDMDL
MODEL      103
REMARK 921   NORMALIZED FREE ENERGY PREDICTED BY IDOCK:   -5.58 KCAL/MOL
REMARK 922        TOTAL FREE ENERGY PREDICTED BY IDOCK:   -8.94 KCAL/MOL
REMARK 923 INTER-LIGAND FREE ENERGY PREDICTED BY IDOCK:   -7.29 KCAL/MOL
REMARK 924 INTRA-LIGAND FREE ENERGY PREDICTED BY IDOCK:   -1.65 KCAL/MOL
REMARK 927      BINDING AFFINITY PREDICTED BY RF-SCORE:    0.00 PKD
ROOT
HETATM    1  C   UNL     1      -5.267   6.288  69.721  1.00  0.00    -0.013 C  
HETATM    2  C   UNL     1      -5.999   5.120  70.368  1.00  0.00    -0.018 C  
ENDROOT
BRANCH   2   3
HETATM    3  N   UNL     1      -7.235   4.829  69.637  1.00  0.00    -0.054 NA 
HETATM    4  H   UNL     1      -7.518   3.862  69.798  1.00  0.00     0.000 HD 
BRANCH   3   5
HETATM    5  C   UNL     1      -8.375   5.746  69.914  1.00  0.00    -0.119 C  
HETATM    6  C   UNL     1      -9.287   5.192  71.019  1.00  0.00    -0.198 C  
HETATM    7  C   UNL     1     -10.435   6.152  71.344  1.00  0.00    -0.225 C  
HETATM    8  C   UNL     1     -11.349   6.347  70.103  1.00  0.00    -0.420 C  
HETATM    9  N   UNL     1     -11.184   5.605  72.495  1.00  0.00    -0.283 NA 
HETATM   10  C   UNL     1      -9.141   6.162  68.626  1.00  0.00    -0.125 C  
HETATM   11  H2  UNL     1     -10.586   5.420  73.300  1.00  0.00     0.000 HD 
HETATM   12  H1  UNL     1     -11.949   6.243  72.711  1.00  0.00     0.000 HD 
HETATM   13  C   UNL     1     -10.534   6.783  68.857  1.00  0.00    -0.207 C  
HETATM   14  H   UNL     1     -10.769   6.776  66.873  1.00  0.00     0.000 HD 
HETATM   15  O   UNL     1     -11.268   6.509  67.636  1.00  0.00    -0.324 OA 
BRANCH   8  16
HETATM   16  O   UNL     1     -12.362   7.353  70.427  1.00  0.00    -0.013 OA 
BRANCH  16  17
HETATM   17  C   UNL     1     -11.917   8.368  71.356  1.00  0.00    -0.297 C  
HETATM   18  H1  UNL     1     -15.104   8.644  72.710  1.00  0.00     0.000 HD 
HETATM   19  O   UNL     1     -11.095   9.320  70.669  1.00  0.00    -0.243 OA 
HETATM   20  C   UNL     1     -11.715  10.471  70.234  1.00  0.00    -0.332 C  
HETATM   21  H2  UNL     1     -14.275   7.268  72.240  1.00  0.00     0.000 HD 
HETATM   22  N   UNL     1     -14.365   8.276  72.111  1.00  0.00    -0.418 NA 
HETATM   23  C   UNL     1     -12.680  11.047  70.963  1.00  0.00    -0.485 C  
HETATM   24  C   UNL     1     -13.053   8.932  72.276  1.00  0.00    -0.436 C  
HETATM   25  C   UNL     1     -13.119  10.463  72.260  1.00  0.00    -0.284 C  
BRANCH  20  26
HETATM   26  C   UNL     1     -11.145  11.006  68.941  1.00  0.00    -0.239 C  
HETATM   27  N   UNL     1     -11.760  10.474  67.727  1.00  0.00    -0.656 NA 
HETATM   28  H2  UNL     1     -12.769  10.618  67.752  1.00  0.00     0.000 HD 
HETATM   29  H1  UNL     1     -11.375  10.836  66.854  1.00  0.00     0.000 HD 
ENDBRANCH  20  26
ENDBRANCH  16  17
ENDBRANCH   8  16
BRANCH  10  30
HETATM   30  O   UNL     1      -8.325   6.928  67.672  1.00  0.00    -0.122 OA 
BRANCH  30  31
HETATM   31  C   UNL     1      -8.389   8.364  67.766  1.00  0.00    -0.130 C  
HETATM   32  O   UNL     1      -9.995   8.379  65.906  1.00  0.00    -0.465 OA 
HETATM   33  C   UNL     1      -6.419   9.729  66.074  1.00  0.00    -0.080 C  
HETATM   34  C   UNL     1      -8.909   9.118  66.489  1.00  0.00    -0.134 C  
HETATM   35  O   UNL     1      -7.127   8.864  68.183  1.00  0.00    -0.076 OA 
HETATM   36  O   UNL     1      -6.354  11.033  66.687  1.00  0.00    -0.099 OA 
HETATM   37  C   UNL     1      -7.830   9.493  65.422  1.00  0.00    -0.109 C  
HETATM   38  H   UNL     1      -6.514  11.689  66.018  1.00  0.00     0.000 HD 
HETATM   39  C   UNL     1      -5.290   9.681  65.043  1.00  0.00    -0.047 C  
HETATM   40  H   UNL     1     -10.310   8.835  65.135  1.00  0.00     0.000 HD 
HETATM   41  C   UNL     1      -6.164   8.678  67.146  1.00  0.00    -0.056 C  
BRANCH  37  42
HETATM   42  N   UNL     1      -8.173  10.701  64.619  1.00  0.00    -0.338 NA 
HETATM   43  H   UNL     1      -7.795  11.613  64.878  1.00  0.00     0.000 HD 
HETATM   44  C   UNL     1      -9.041  10.577  63.474  1.00  0.00    -0.247 C  
ENDBRANCH  37  42
ENDBRANCH  30  31
ENDBRANCH  10  30
ENDBRANCH   3   5
ENDBRANCH   2   3
TORSDOF 8
ENDMDL
MODEL      104
REMARK 921   NORMALIZED FREE ENERGY PREDICTED BY IDOCK:   -5.58 KCAL/MOL
REMARK 922        TOTAL FREE ENERGY PREDICTED BY IDOCK:   -8.93 KCAL/MOL
REMARK 923 INTER-LIGAND FREE ENERGY PREDICTED BY IDOCK:   -8.30 KCAL/MOL
REMARK 924 INTRA-LIGAND FREE ENERGY PREDICTED BY IDOCK:   -0.63 KCAL/MOL
REMARK 927      BINDING AFFINITY PREDICTED BY RF-SCORE:    0.00 PKD
ROOT
HETATM    1  C   UNL     1     -12.118  12.756  63.334  1.00  0.00    -0.619 C  
HETATM    2  C   UNL     1     -10.764  12.674  64.025  1.00  0.00    -0.425 C  
ENDROOT
BRANCH   2   3
HETATM    3  N   UNL     1     -10.405  11.274  64.272  1.00  0.00    -0.313 NA 
HETATM    4  H   UNL     1      -9.632  10.999  63.665  1.00  0.00     0.000 HD 
BRANCH   3   5
HETATM    5  C   UNL     1     -10.089  10.934  65.687  1.00  0.00    -0.261 C  
HETATM    6  C   UNL     1      -9.885   9.422  65.869  1.00  0.00    -0.362 C  
HETATM    7  C   UNL     1      -9.514   9.069  67.313  1.00  0.00    -0.149 C  
HETATM    8  C   UNL     1     -10.663   9.459  68.282  1.00  0.00    -0.171 C  
HETATM    9  N   UNL     1      -9.214   7.623  67.372  1.00  0.00    -0.131 NA 
HETATM   10  C   UNL     1     -11.100  11.552  66.695  1.00  0.00    -0.295 C  
HETATM   11  H2  UNL     1      -8.498   7.342  66.702  1.00  0.00     0.000 HD 
HETATM   12  H1  UNL     1      -8.967   7.387  68.333  1.00  0.00     0.000 HD 
HETATM   13  C   UNL     1     -11.074  10.946  68.112  1.00  0.00    -0.280 C  
HETATM   14  H   UNL     1     -12.656  12.090  68.537  1.00  0.00     0.000 HD 
HETATM   15  O   UNL     1     -12.405  11.180  68.640  1.00  0.00    -0.549 OA 
BRANCH   8  16
HETATM   16  O   UNL     1     -10.219   9.206  69.654  1.00  0.00    -0.188 OA 
BRANCH  16  17
HETATM   17  C   UNL     1     -10.851   8.069  70.285  1.00  0.00    -0.241 C  
HETATM   18  H1  UNL     1     -12.668  10.144  72.396  1.00  0.00     0.000 HD 
HETATM   19  O   UNL     1      -9.865   7.066  70.561  1.00  0.00    -0.179 OA 
HETATM   20  C   UNL     1      -9.340   7.052  71.835  1.00  0.00    -0.140 C  
HETATM   21  H2  UNL     1     -12.323  10.338  70.770  1.00  0.00     0.000 HD 
HETATM   22  N   UNL     1     -12.028   9.898  71.642  1.00  0.00    -0.388 NA 
HETATM   23  C   UNL     1     -10.107   7.333  72.896  1.00  0.00    -0.272 C  
HETATM   24  C   UNL     1     -11.834   8.447  71.443  1.00  0.00    -0.296 C  
HETATM   25  C   UNL     1     -11.547   7.678  72.737  1.00  0.00    -0.334 C  
BRANCH  20  26
HETATM   26  C   UNL     1      -7.891   6.627  71.880  1.00  0.00    -0.098 C  
HETATM   27  N   UNL     1      -7.005   7.350  70.969  1.00  0.00    -0.058 NA 
HETATM   28  H2  UNL     1      -7.083   8.355  71.127  1.00  0.00     0.000 HD 
HETATM   29  H1  UNL     1      -6.027   7.063  70.999  1.00  0.00     0.000 HD 
ENDBRANCH  20  26
ENDBRANCH  16  17
ENDBRANCH   8  16
BRANCH  10  30
HETATM   30  O   UNL     1     -11.106  13.023  66.701  1.00  0.00    -0.278 OA 
BRANCH  30  31
HETATM   31  C   UNL     1     -10.526  13.671  67.849  1.00  0.00    -0.247 C  
HETATM   32  O   UNL     1     -12.488  15.146  67.964  1.00  0.00    -0.358 OA 
HETATM   33  C   UNL     1      -8.840  15.969  67.157  1.00  0.00    -0.204 C  
HETATM   34  C   UNL     1     -11.067  15.109  68.178  1.00  0.00    -0.304 C  
HETATM   35  O   UNL     1      -9.112  13.667  67.725  1.00  0.00    -0.181 OA 
HETATM   36  O   UNL     1      -8.035  16.115  68.345  1.00  0.00    -0.150 OA 
HETATM   37  C   UNL     1     -10.346  16.297  67.463  1.00  0.00    -0.288 C  
HETATM   38  H   UNL     1      -8.113  17.011  68.653  1.00  0.00     0.000 HD 
HETATM   39  C   UNL     1      -8.242  16.914  66.112  1.00  0.00    -0.295 C  
HETATM   40  H   UNL     1     -12.815  16.016  68.163  1.00  0.00     0.000 HD 
HETATM   41  C   UNL     1      -8.714  14.534  66.663  1.00  0.00    -0.129 C  
BRANCH  37  42
HETATM   42  N   UNL     1     -10.390  17.577  68.228  1.00  0.00    -0.359 NA 
HETATM   43  H   UNL     1     -10.318  18.469  67.738  1.00  0.00     0.000 HD 
HETATM   44  C   UNL     1     -10.535  17.548  69.663  1.00  0.00     0.243 C  
ENDBRANCH  37  42
ENDBRANCH  30  31
ENDBRANCH  10  30
ENDBRANCH   3   5
ENDBRANCH   2   3
TORSDOF 8
ENDMDL
MODEL      105
REMARK 921   NORMALIZED FREE ENERGY PREDICTED BY IDOCK:   -5.56 KCAL/MOL
REMARK 922        TOTAL FREE ENERGY PREDICTED BY IDOCK:   -8.90 KCAL/MOL
REMARK 923 INTER-LIGAND FREE ENERGY PREDICTED BY IDOCK:   -8.00 KCAL/MOL
REMARK 924 INTRA-LIGAND FREE ENERGY PREDICTED BY IDOCK:   -0.90 KCAL/MOL
REMARK 927      BINDING AFFINITY PREDICTED BY RF-SCORE:    0.00 PKD
ROOT
HETATM    1  C   UNL     1      -9.285  10.895  62.460  1.00  0.00    -0.339 C  
HETATM    2  C   UNL     1      -9.450  11.503  63.846  1.00  0.00    -0.119 C  
ENDROOT
BRANCH   2   3
HETATM    3  N   UNL     1     -10.554  10.851  64.557  1.00  0.00    -0.322 NA 
HETATM    4  H   UNL     1     -10.386   9.847  64.617  1.00  0.00     0.000 HD 
BRANCH   3   5
HETATM    5  C   UNL     1     -10.857  11.398  65.909  1.00  0.00    -0.234 C  
HETATM    6  C   UNL     1     -11.060  12.920  65.867  1.00  0.00    -0.310 C  
HETATM    7  C   UNL     1     -11.418  13.485  67.244  1.00  0.00    -0.339 C  
HETATM    8  C   UNL     1     -10.259  13.242  68.250  1.00  0.00    -0.250 C  
HETATM    9  N   UNL     1     -11.718  14.924  67.091  1.00  0.00    -0.327 NA 
HETATM   10  C   UNL     1      -9.836  10.936  66.988  1.00  0.00    -0.183 C  
HETATM   11  H2  UNL     1     -12.440  15.102  66.393  1.00  0.00     0.000 HD 
HETATM   12  H1  UNL     1     -11.957  15.300  68.008  1.00  0.00     0.000 HD 
HETATM   13  C   UNL     1      -9.849  11.747  68.300  1.00  0.00    -0.198 C  
HETATM   14  H   UNL     1      -8.262  10.678  68.875  1.00  0.00     0.000 HD 
HETATM   15  O   UNL     1      -8.513  11.593  68.844  1.00  0.00    -0.076 OA 
BRANCH   8  16
HETATM   16  O   UNL     1     -10.691  13.697  69.573  1.00  0.00    -0.033 OA 
BRANCH  16  17
HETATM   17  C   UNL     1     -12.126  13.756  69.744  1.00  0.00    -0.340 C  
HETATM   18  H1  UNL     1     -11.848  16.507  71.846  1.00  0.00     0.000 HD 
HETATM   19  O   UNL     1     -12.635  12.436  69.974  1.00  0.00    -0.012 OA 
HETATM   20  C   UNL     1     -12.833  12.071  71.288  1.00  0.00    -0.265 C  
HETATM   21  H2  UNL     1     -11.008  16.168  70.439  1.00  0.00     0.000 HD 
HETATM   22  N   UNL     1     -11.534  15.768  71.216  1.00  0.00    -0.393 NA 
HETATM   23  C   UNL     1     -13.271  12.962  72.188  1.00  0.00    -0.552 C  
HETATM   24  C   UNL     1     -12.607  14.889  70.711  1.00  0.00    -0.354 C  
HETATM   25  C   UNL     1     -13.550  14.373  71.803  1.00  0.00    -0.479 C  
BRANCH  20  26
HETATM   26  C   UNL     1     -12.580  10.604  71.547  1.00  0.00    -0.412 C  
HETATM   27  N   UNL     1     -13.563   9.950  72.409  1.00  0.00    -0.623 NA 
HETATM   28  H2  UNL     1     -14.503  10.085  72.037  1.00  0.00     0.000 HD 
HETATM   29  H1  UNL     1     -13.392   8.960  72.584  1.00  0.00     0.000 HD 
ENDBRANCH  20  26
ENDBRANCH  16  17
ENDBRANCH   8  16
BRANCH  10  30
HETATM   30  O   UNL     1      -9.828   9.483  67.214  1.00  0.00    -0.159 OA 
BRANCH  30  31
HETATM   31  C   UNL     1      -8.548   8.825  67.175  1.00  0.00    -0.117 C  
HETATM   32  O   UNL     1      -8.969   8.219  64.831  1.00  0.00    -0.404 OA 
HETATM   33  C   UNL     1      -8.675   5.992  67.928  1.00  0.00    -0.112 C  
HETATM   34  C   UNL     1      -8.356   7.751  66.044  1.00  0.00    -0.133 C  
HETATM   35  O   UNL     1      -8.260   8.283  68.455  1.00  0.00    -0.127 OA 
HETATM   36  O   UNL     1      -7.303   5.716  68.276  1.00  0.00    -0.074 OA 
HETATM   37  C   UNL     1      -8.807   6.295  66.391  1.00  0.00    -0.143 C  
HETATM   38  H   UNL     1      -7.010   4.964  67.773  1.00  0.00     0.000 HD 
HETATM   39  C   UNL     1      -9.482   4.761  68.347  1.00  0.00    -0.196 C  
HETATM   40  H   UNL     1      -8.853   7.571  64.147  1.00  0.00     0.000 HD 
HETATM   41  C   UNL     1      -9.144   7.196  68.734  1.00  0.00    -0.134 C  
BRANCH  37  42
HETATM   42  N   UNL     1      -8.059   5.240  65.649  1.00  0.00    -0.113 NA 
HETATM   43  H   UNL     1      -7.040   5.210  65.690  1.00  0.00     0.000 HD 
HETATM   44  C   UNL     1      -8.780   4.262  64.873  1.00  0.00    -0.130 C  
ENDBRANCH  37  42
ENDBRANCH  30  31
ENDBRANCH  10  30
ENDBRANCH   3   5
ENDBRANCH   2   3
TORSDOF 8
ENDMDL
MODEL      106
REMARK 921   NORMALIZED FREE ENERGY PREDICTED BY IDOCK:   -5.52 KCAL/MOL
REMARK 922        TOTAL FREE ENERGY PREDICTED BY IDOCK:   -8.84 KCAL/MOL
REMARK 923 INTER-LIGAND FREE ENERGY PREDICTED BY IDOCK:   -8.93 KCAL/MOL
REMARK 924 INTRA-LIGAND FREE ENERGY PREDICTED BY IDOCK:    0.09 KCAL/MOL
REMARK 927      BINDING AFFINITY PREDICTED BY RF-SCORE:    0.00 PKD
ROOT
HETATM    1  C   UNL     1      -9.890  11.129  62.913  1.00  0.00    -0.323 C  
HETATM    2  C   UNL     1      -9.916  12.236  63.959  1.00  0.00    -0.258 C  
ENDROOT
BRANCH   2   3
HETATM    3  N   UNL     1     -11.128  12.130  64.777  1.00  0.00    -0.306 NA 
HETATM    4  H   UNL     1     -11.077  11.303  65.372  1.00  0.00     0.000 HD 
BRANCH   3   5
HETATM    5  C   UNL     1     -11.451  13.329  65.599  1.00  0.00    -0.318 C  
HETATM    6  C   UNL     1     -10.845  14.605  64.995  1.00  0.00    -0.431 C  
HETATM    7  C   UNL     1     -11.212  15.850  65.808  1.00  0.00     0.037 C  
HETATM    8  C   UNL     1     -10.635  15.750  67.247  1.00  0.00    -0.313 C  
HETATM    9  N   UNL     1     -10.699  17.037  65.094  1.00  0.00    -0.664 NA 
HETATM   10  C   UNL     1     -11.117  13.135  67.106  1.00  0.00    -0.279 C  
HETATM   11  H2  UNL     1     -11.026  17.087  64.129  1.00  0.00     0.000 HD 
HETATM   12  H1  UNL     1     -10.943  17.866  65.635  1.00  0.00     0.000 HD 
HETATM   13  C   UNL     1     -11.060  14.429  67.942  1.00  0.00    -0.274 C  
HETATM   14  H   UNL     1     -10.433  13.309  69.473  1.00  0.00     0.000 HD 
HETATM   15  O   UNL     1     -10.173  14.117  69.047  1.00  0.00    -0.211 OA 
BRANCH   8  16
HETATM   16  O   UNL     1     -11.105  16.904  68.016  1.00  0.00    -0.336 OA 
BRANCH  16  17
HETATM   17  C   UNL     1     -10.049  17.684  68.624  1.00  0.00    -0.377 C  
HETATM   18  H1  UNL     1     -10.625  20.323  66.441  1.00  0.00     0.000 HD 
HETATM   19  O   UNL     1      -8.897  16.855  68.825  1.00  0.00    -0.261 OA 
HETATM   20  C   UNL     1      -7.919  16.912  67.856  1.00  0.00    -0.183 C  
HETATM   21  H2  UNL     1     -11.732  19.338  67.217  1.00  0.00     0.000 HD 
HETATM   22  N   UNL     1     -10.773  19.413  66.877  1.00  0.00    -0.472 NA 
HETATM   23  C   UNL     1      -7.628  18.067  67.243  1.00  0.00    -0.213 C  
HETATM   24  C   UNL     1      -9.820  19.080  67.954  1.00  0.00    -0.337 C  
HETATM   25  C   UNL     1      -8.354  19.323  67.581  1.00  0.00    -0.325 C  
BRANCH  20  26
HETATM   26  C   UNL     1      -7.209  15.596  67.644  1.00  0.00    -0.173 C  
HETATM   27  N   UNL     1      -7.788  14.739  66.611  1.00  0.00    -0.209 NA 
HETATM   28  H2  UNL     1      -7.856  15.248  65.730  1.00  0.00     0.000 HD 
HETATM   29  H1  UNL     1      -7.308  13.850  66.468  1.00  0.00     0.000 HD 
ENDBRANCH  20  26
ENDBRANCH  16  17
ENDBRANCH   8  16
BRANCH  10  30
HETATM   30  O   UNL     1     -11.898  12.070  67.753  1.00  0.00    -0.488 OA 
BRANCH  30  31
HETATM   31  C   UNL     1     -11.371  10.732  67.668  1.00  0.00    -0.252 C  
HETATM   32  O   UNL     1     -12.410  10.223  69.836  1.00  0.00    -0.501 OA 
HETATM   33  C   UNL     1      -8.713  10.452  68.878  1.00  0.00    -0.157 C  
HETATM   34  C   UNL     1     -11.256   9.947  69.024  1.00  0.00    -0.087 C  
HETATM   35  O   UNL     1     -10.129  10.760  66.981  1.00  0.00    -0.194 OA 
HETATM   36  O   UNL     1      -8.231   9.242  68.258  1.00  0.00    -0.113 OA 
HETATM   37  C   UNL     1      -9.929  10.144  69.825  1.00  0.00    -0.220 C  
HETATM   38  H   UNL     1      -7.962   8.640  68.943  1.00  0.00     0.000 HD 
HETATM   39  C   UNL     1      -7.526  11.051  69.634  1.00  0.00     0.029 C  
HETATM   40  H   UNL     1     -12.341   9.748  70.656  1.00  0.00     0.000 HD 
HETATM   41  C   UNL     1      -9.145  11.416  67.781  1.00  0.00    -0.158 C  
BRANCH  37  42
HETATM   42  N   UNL     1      -9.561   8.978  70.679  1.00  0.00    -0.216 NA 
HETATM   43  H   UNL     1      -8.818   8.343  70.386  1.00  0.00     0.000 HD 
HETATM   44  C   UNL     1     -10.261   8.749  71.919  1.00  0.00    -0.345 C  
ENDBRANCH  37  42
ENDBRANCH  30  31
ENDBRANCH  10  30
ENDBRANCH   3   5
ENDBRANCH   2   3
TORSDOF 8
ENDMDL
MODEL      107
REMARK 921   NORMALIZED FREE ENERGY PREDICTED BY IDOCK:   -5.51 KCAL/MOL
REMARK 922        TOTAL FREE ENERGY PREDICTED BY IDOCK:   -8.83 KCAL/MOL
REMARK 923 INTER-LIGAND FREE ENERGY PREDICTED BY IDOCK:   -8.16 KCAL/MOL
REMARK 924 INTRA-LIGAND FREE ENERGY PREDICTED BY IDOCK:   -0.67 KCAL/MOL
REMARK 927      BINDING AFFINITY PREDICTED BY RF-SCORE:    0.00 PKD
ROOT
HETATM    1  C   UNL     1      -7.111  13.341  67.467  1.00  0.00    -0.156 C  
HETATM    2  C   UNL     1      -6.191  12.154  67.216  1.00  0.00    -0.152 C  
ENDROOT
BRANCH   2   3
HETATM    3  N   UNL     1      -6.974  10.985  66.805  1.00  0.00    -0.123 NA 
HETATM    4  H   UNL     1      -6.440  10.423  66.141  1.00  0.00     0.000 HD 
BRANCH   3   5
HETATM    5  C   UNL     1      -7.472  10.126  67.914  1.00  0.00    -0.088 C  
HETATM    6  C   UNL     1      -6.695   8.803  67.995  1.00  0.00    -0.069 C  
HETATM    7  C   UNL     1      -7.169   7.934  69.163  1.00  0.00    -0.081 C  
HETATM    8  C   UNL     1      -8.659   7.536  68.974  1.00  0.00    -0.136 C  
HETATM    9  N   UNL     1      -6.292   6.748  69.244  1.00  0.00    -0.037 NA 
HETATM   10  C   UNL     1      -9.016   9.939  67.884  1.00  0.00    -0.128 C  
HETATM   11  H2  UNL     1      -5.304   6.994  69.313  1.00  0.00     0.000 HD 
HETATM   12  H1  UNL     1      -6.608   6.169  70.021  1.00  0.00     0.000 HD 
HETATM   13  C   UNL     1      -9.558   8.780  68.745  1.00  0.00    -0.158 C  
HETATM   14  H   UNL     1     -11.361   9.166  67.974  1.00  0.00     0.000 HD 
HETATM   15  O   UNL     1     -10.810   8.405  68.115  1.00  0.00    -0.085 OA 
BRANCH   8  16
HETATM   16  O   UNL     1      -9.097   6.804  70.164  1.00  0.00    -0.154 OA 
BRANCH  16  17
HETATM   17  C   UNL     1      -8.953   7.538  71.402  1.00  0.00    -0.133 C  
HETATM   18  H1  UNL     1      -8.027   4.653  73.102  1.00  0.00     0.000 HD 
HETATM   19  O   UNL     1     -10.071   8.418  71.570  1.00  0.00    -0.193 OA 
HETATM   20  C   UNL     1     -11.105   7.959  72.357  1.00  0.00    -0.333 C  
HETATM   21  H2  UNL     1      -7.589   5.158  71.568  1.00  0.00     0.000 HD 
HETATM   22  N   UNL     1      -8.291   5.232  72.304  1.00  0.00    -0.121 NA 
HETATM   23  C   UNL     1     -10.861   7.215  73.444  1.00  0.00    -0.360 C  
HETATM   24  C   UNL     1      -8.548   6.649  72.627  1.00  0.00    -0.123 C  
HETATM   25  C   UNL     1      -9.470   6.852  73.833  1.00  0.00    -0.255 C  
BRANCH  20  26
HETATM   26  C   UNL     1     -12.463   8.442  71.903  1.00  0.00    -0.347 C  
HETATM   27  N   UNL     1     -13.445   8.621  72.970  1.00  0.00    -0.866 NA 
HETATM   28  H2  UNL     1     -13.073   9.241  73.690  1.00  0.00     0.000 HD 
HETATM   29  H1  UNL     1     -14.362   8.946  72.664  1.00  0.00     0.000 HD 
ENDBRANCH  20  26
ENDBRANCH  16  17
ENDBRANCH   8  16
BRANCH  10  30
HETATM   30  O   UNL     1      -9.768  11.189  68.070  1.00  0.00    -0.167 OA 
BRANCH  30  31
HETATM   31  C   UNL     1     -10.974  11.345  67.298  1.00  0.00    -0.282 C  
HETATM   32  O   UNL     1      -9.679  10.910  65.255  1.00  0.00    -0.215 OA 
HETATM   33  C   UNL     1     -11.440  14.103  66.413  1.00  0.00    -0.354 C  
HETATM   34  C   UNL     1     -10.781  11.674  65.773  1.00  0.00    -0.280 C  
HETATM   35  O   UNL     1     -11.816  12.298  67.929  1.00  0.00    -0.383 OA 
HETATM   36  O   UNL     1     -12.853  14.087  66.122  1.00  0.00    -0.479 OA 
HETATM   37  C   UNL     1     -10.655  13.188  65.405  1.00  0.00    -0.299 C  
HETATM   38  H   UNL     1     -12.981  14.401  65.235  1.00  0.00     0.000 HD 
HETATM   39  C   UNL     1     -11.000  15.566  66.331  1.00  0.00    -0.238 C  
HETATM   40  H   UNL     1      -9.563  11.109  64.333  1.00  0.00     0.000 HD 
HETATM   41  C   UNL     1     -11.235  13.598  67.836  1.00  0.00    -0.274 C  
BRANCH  37  42
HETATM   42  N   UNL     1     -11.126  13.514  64.028  1.00  0.00    -0.568 NA 
HETATM   43  H   UNL     1     -10.796  14.358  63.561  1.00  0.00     0.000 HD 
HETATM   44  C   UNL     1     -12.049  12.631  63.359  1.00  0.00    -0.525 C  
ENDBRANCH  37  42
ENDBRANCH  30  31
ENDBRANCH  10  30
ENDBRANCH   3   5
ENDBRANCH   2   3
TORSDOF 8
ENDMDL
MODEL      108
REMARK 921   NORMALIZED FREE ENERGY PREDICTED BY IDOCK:   -5.51 KCAL/MOL
REMARK 922        TOTAL FREE ENERGY PREDICTED BY IDOCK:   -8.83 KCAL/MOL
REMARK 923 INTER-LIGAND FREE ENERGY PREDICTED BY IDOCK:   -8.84 KCAL/MOL
REMARK 924 INTRA-LIGAND FREE ENERGY PREDICTED BY IDOCK:    0.01 KCAL/MOL
REMARK 927      BINDING AFFINITY PREDICTED BY RF-SCORE:    0.00 PKD
ROOT
HETATM    1  C   UNL     1      -6.199  10.198  64.359  1.00  0.00    -0.133 C  
HETATM    2  C   UNL     1      -7.393   9.704  63.554  1.00  0.00    -0.113 C  
ENDROOT
BRANCH   2   3
HETATM    3  N   UNL     1      -8.327   8.983  64.423  1.00  0.00    -0.169 NA 
HETATM    4  H   UNL     1      -7.840   8.639  65.250  1.00  0.00     0.000 HD 
BRANCH   3   5
HETATM    5  C   UNL     1      -9.542   9.743  64.826  1.00  0.00    -0.214 C  
HETATM    6  C   UNL     1      -9.966  10.743  63.740  1.00  0.00    -0.411 C  
HETATM    7  C   UNL     1     -11.243  11.496  64.126  1.00  0.00    -0.314 C  
HETATM    8  C   UNL     1     -11.009  12.341  65.409  1.00  0.00    -0.301 C  
HETATM    9  N   UNL     1     -11.648  12.338  62.982  1.00  0.00    -0.659 NA 
HETATM   10  C   UNL     1      -9.414  10.378  66.241  1.00  0.00    -0.171 C  
HETATM   11  H2  UNL     1     -11.753  11.805  62.119  1.00  0.00     0.000 HD 
HETATM   12  H1  UNL     1     -12.498  12.839  63.239  1.00  0.00     0.000 HD 
HETATM   13  C   UNL     1     -10.445  11.476  66.568  1.00  0.00    -0.244 C  
HETATM   14  H   UNL     1      -9.452  11.778  68.275  1.00  0.00     0.000 HD 
HETATM   15  O   UNL     1      -9.798  12.307  67.566  1.00  0.00    -0.189 OA 
BRANCH   8  16
HETATM   16  O   UNL     1     -12.282  12.950  65.801  1.00  0.00    -0.444 OA 
BRANCH  16  17
HETATM   17  C   UNL     1     -12.222  14.382  65.994  1.00  0.00    -0.336 C  
HETATM   18  H1  UNL     1      -9.262  14.586  64.187  1.00  0.00     0.000 HD 
HETATM   19  O   UNL     1     -12.520  14.694  67.360  1.00  0.00    -0.058 OA 
HETATM   20  C   UNL     1     -11.444  14.877  68.201  1.00  0.00    -0.330 C  
HETATM   21  H2  UNL     1     -10.623  13.662  63.879  1.00  0.00     0.000 HD 
HETATM   22  N   UNL     1     -10.085  14.146  64.598  1.00  0.00    -0.237 NA 
HETATM   23  C   UNL     1     -10.326  15.471  67.764  1.00  0.00    -0.263 C  
HETATM   24  C   UNL     1     -10.959  15.058  65.362  1.00  0.00    -0.373 C  
HETATM   25  C   UNL     1     -10.205  15.947  66.358  1.00  0.00    -0.311 C  
BRANCH  20  26
HETATM   26  C   UNL     1     -11.704  14.415  69.615  1.00  0.00    -0.309 C  
HETATM   27  N   UNL     1     -11.321  13.032  69.895  1.00  0.00    -0.501 NA 
HETATM   28  H2  UNL     1     -10.342  12.883  69.650  1.00  0.00     0.000 HD 
HETATM   29  H1  UNL     1     -11.496  12.720  70.850  1.00  0.00     0.000 HD 
ENDBRANCH  20  26
ENDBRANCH  16  17
ENDBRANCH   8  16
BRANCH  10  30
HETATM   30  O   UNL     1      -9.267   9.391  67.322  1.00  0.00    -0.129 OA 
BRANCH  30  31
HETATM   31  C   UNL     1     -10.466   9.009  68.022  1.00  0.00    -0.216 C  
HETATM   32  O   UNL     1      -9.719  10.337  69.951  1.00  0.00    -0.373 OA 
HETATM   33  C   UNL     1     -10.159   6.553  69.596  1.00  0.00    -0.181 C  
HETATM   34  C   UNL     1     -10.422   9.137  69.588  1.00  0.00    -0.223 C  
HETATM   35  O   UNL     1     -10.848   7.703  67.621  1.00  0.00    -0.197 OA 
HETATM   36  O   UNL     1     -11.531   6.141  69.774  1.00  0.00    -0.433 OA 
HETATM   37  C   UNL     1      -9.878   7.894  70.365  1.00  0.00    -0.183 C  
HETATM   38  H   UNL     1     -11.690   6.019  70.703  1.00  0.00     0.000 HD 
HETATM   39  C   UNL     1      -9.294   5.399  70.107  1.00  0.00    -0.193 C  
HETATM   40  H   UNL     1      -9.692  10.413  70.897  1.00  0.00     0.000 HD 
HETATM   41  C   UNL     1      -9.904   6.748  68.108  1.00  0.00    -0.137 C  
BRANCH  37  42
HETATM   42  N   UNL     1     -10.432   7.757  71.744  1.00  0.00    -0.211 NA 
HETATM   43  H   UNL     1     -11.410   7.503  71.879  1.00  0.00     0.000 HD 
HETATM   44  C   UNL     1      -9.579   7.986  72.884  1.00  0.00    -0.279 C  
ENDBRANCH  37  42
ENDBRANCH  30  31
ENDBRANCH  10  30
ENDBRANCH   3   5
ENDBRANCH   2   3
TORSDOF 8
ENDMDL
MODEL      109
REMARK 921   NORMALIZED FREE ENERGY PREDICTED BY IDOCK:   -5.51 KCAL/MOL
REMARK 922        TOTAL FREE ENERGY PREDICTED BY IDOCK:   -8.82 KCAL/MOL
REMARK 923 INTER-LIGAND FREE ENERGY PREDICTED BY IDOCK:   -7.25 KCAL/MOL
REMARK 924 INTRA-LIGAND FREE ENERGY PREDICTED BY IDOCK:   -1.57 KCAL/MOL
REMARK 927      BINDING AFFINITY PREDICTED BY RF-SCORE:    0.00 PKD
ROOT
HETATM    1  C   UNL     1     -11.142  12.453  63.735  1.00  0.00    -0.506 C  
HETATM    2  C   UNL     1     -12.298  12.462  64.726  1.00  0.00    -0.423 C  
ENDROOT
BRANCH   2   3
HETATM    3  N   UNL     1     -11.788  12.421  66.100  1.00  0.00    -0.540 NA 
HETATM    4  H   UNL     1     -12.535  12.159  66.743  1.00  0.00     0.000 HD 
BRANCH   3   5
HETATM    5  C   UNL     1     -10.601  11.547  66.316  1.00  0.00    -0.263 C  
HETATM    6  C   UNL     1     -11.016  10.101  66.626  1.00  0.00     0.007 C  
HETATM    7  C   UNL     1      -9.801   9.186  66.803  1.00  0.00    -0.226 C  
HETATM    8  C   UNL     1      -8.944   9.648  68.014  1.00  0.00    -0.122 C  
HETATM    9  N   UNL     1     -10.285   7.801  66.971  1.00  0.00    -0.277 NA 
HETATM   10  C   UNL     1      -9.596  12.141  67.345  1.00  0.00    -0.177 C  
HETATM   11  H2  UNL     1     -10.894   7.502  66.209  1.00  0.00     0.000 HD 
HETATM   12  H1  UNL     1      -9.477   7.191  67.089  1.00  0.00     0.000 HD 
HETATM   13  C   UNL     1      -8.558  11.147  67.903  1.00  0.00    -0.135 C  
HETATM   14  H   UNL     1      -7.955  12.602  69.132  1.00  0.00     0.000 HD 
HETATM   15  O   UNL     1      -8.191  11.684  69.200  1.00  0.00     0.041 OA 
BRANCH   8  16
HETATM   16  O   UNL     1      -7.741   8.815  68.075  1.00  0.00    -0.099 OA 
BRANCH  16  17
HETATM   17  C   UNL     1      -7.595   8.068  69.305  1.00  0.00    -0.096 C  
HETATM   18  H1  UNL     1      -7.501   5.062  67.566  1.00  0.00     0.000 HD 
HETATM   19  O   UNL     1      -8.517   8.569  70.281  1.00  0.00    -0.118 OA 
HETATM   20  C   UNL     1      -9.710   7.891  70.408  1.00  0.00    -0.179 C  
HETATM   21  H2  UNL     1      -6.787   6.525  67.179  1.00  0.00     0.000 HD 
HETATM   22  N   UNL     1      -7.541   6.073  67.696  1.00  0.00    -0.089 NA 
HETATM   23  C   UNL     1      -9.758   6.559  70.282  1.00  0.00    -0.181 C  
HETATM   24  C   UNL     1      -7.534   6.516  69.105  1.00  0.00    -0.095 C  
HETATM   25  C   UNL     1      -8.530   5.767  69.995  1.00  0.00    -0.124 C  
BRANCH  20  26
HETATM   26  C   UNL     1     -10.873   8.788  70.761  1.00  0.00    -0.234 C  
HETATM   27  N   UNL     1     -10.636  10.217  70.561  1.00  0.00    -0.410 NA 
HETATM   28  H2  UNL     1     -10.335  10.392  69.603  1.00  0.00     0.000 HD 
HETATM   29  H1  UNL     1     -11.421  10.823  70.800  1.00  0.00     0.000 HD 
ENDBRANCH  20  26
ENDBRANCH  16  17
ENDBRANCH   8  16
BRANCH  10  30
HETATM   30  O   UNL     1      -8.996  13.415  66.920  1.00  0.00    -0.229 OA 
BRANCH  30  31
HETATM   31  C   UNL     1      -9.421  14.600  67.621  1.00  0.00    -0.205 C  
HETATM   32  O   UNL     1     -10.742  15.247  65.652  1.00  0.00    -0.325 OA 
HETATM   33  C   UNL     1      -7.654  16.901  67.190  1.00  0.00    -0.179 C  
HETATM   34  C   UNL     1      -9.950  15.779  66.727  1.00  0.00    -0.252 C  
HETATM   35  O   UNL     1      -8.381  15.033  68.485  1.00  0.00    -0.146 OA 
HETATM   36  O   UNL     1      -7.985  17.744  68.313  1.00  0.00    -0.261 OA 
HETATM   37  C   UNL     1      -8.873  16.785  66.205  1.00  0.00    -0.263 C  
HETATM   38  H   UNL     1      -8.218  18.605  67.984  1.00  0.00     0.000 HD 
HETATM   39  C   UNL     1      -6.429  17.532  66.524  1.00  0.00    -0.269 C  
HETATM   40  H   UNL     1     -11.061  15.960  65.112  1.00  0.00     0.000 HD 
HETATM   41  C   UNL     1      -7.282  15.521  67.716  1.00  0.00    -0.157 C  
BRANCH  37  42
HETATM   42  N   UNL     1      -9.400  18.159  65.962  1.00  0.00    -0.519 NA 
HETATM   43  H   UNL     1      -8.801  18.869  65.540  1.00  0.00     0.000 HD 
HETATM   44  C   UNL     1     -10.758  18.480  66.327  1.00  0.00    -0.198 C  
ENDBRANCH  37  42
ENDBRANCH  30  31
ENDBRANCH  10  30
ENDBRANCH   3   5
ENDBRANCH   2   3
TORSDOF 8
ENDMDL
MODEL      110
REMARK 921   NORMALIZED FREE ENERGY PREDICTED BY IDOCK:   -5.50 KCAL/MOL
REMARK 922        TOTAL FREE ENERGY PREDICTED BY IDOCK:   -8.82 KCAL/MOL
REMARK 923 INTER-LIGAND FREE ENERGY PREDICTED BY IDOCK:   -9.60 KCAL/MOL
REMARK 924 INTRA-LIGAND FREE ENERGY PREDICTED BY IDOCK:    0.78 KCAL/MOL
REMARK 927      BINDING AFFINITY PREDICTED BY RF-SCORE:    0.00 PKD
ROOT
HETATM    1  C   UNL     1      -9.441  15.953  66.028  1.00  0.00    -0.389 C  
HETATM    2  C   UNL     1      -9.903  14.600  66.552  1.00  0.00    -0.275 C  
ENDROOT
BRANCH   2   3
HETATM    3  N   UNL     1      -8.925  13.563  66.209  1.00  0.00    -0.460 NA 
HETATM    4  H   UNL     1      -7.985  13.876  66.450  1.00  0.00     0.000 HD 
BRANCH   3   5
HETATM    5  C   UNL     1      -9.183  12.221  66.800  1.00  0.00    -0.210 C  
HETATM    6  C   UNL     1      -9.175  11.123  65.726  1.00  0.00    -0.234 C  
HETATM    7  C   UNL     1      -9.393   9.732  66.332  1.00  0.00    -0.171 C  
HETATM    8  C   UNL     1     -10.787   9.647  67.012  1.00  0.00    -0.078 C  
HETATM    9  N   UNL     1      -9.246   8.731  65.256  1.00  0.00    -0.433 NA 
HETATM   10  C   UNL     1     -10.446  12.194  67.708  1.00  0.00    -0.205 C  
HETATM   11  H2  UNL     1      -8.356   8.810  64.763  1.00  0.00     0.000 HD 
HETATM   12  H1  UNL     1      -9.391   7.806  65.658  1.00  0.00     0.000 HD 
HETATM   13  C   UNL     1     -10.992  10.791  68.040  1.00  0.00    -0.283 C  
HETATM   14  H   UNL     1     -12.528  11.697  68.941  1.00  0.00     0.000 HD 
HETATM   15  O   UNL     1     -12.402  10.997  68.312  1.00  0.00    -0.479 OA 
BRANCH   8  16
HETATM   16  O   UNL     1     -10.902   8.344  67.670  1.00  0.00    -0.169 OA 
BRANCH  16  17
HETATM   17  C   UNL     1     -10.026   8.171  68.807  1.00  0.00    -0.189 C  
HETATM   18  H1  UNL     1      -8.387   5.534  67.251  1.00  0.00     0.000 HD 
HETATM   19  O   UNL     1     -10.795   8.227  70.016  1.00  0.00    -0.247 OA 
HETATM   20  C   UNL     1     -11.180   7.021  70.558  1.00  0.00    -0.295 C  
HETATM   21  H2  UNL     1      -8.920   6.978  66.593  1.00  0.00     0.000 HD 
HETATM   22  N   UNL     1      -9.048   6.304  67.349  1.00  0.00    -0.112 NA 
HETATM   23  C   UNL     1     -10.370   5.955  70.506  1.00  0.00    -0.297 C  
HETATM   24  C   UNL     1      -9.011   6.989  68.657  1.00  0.00    -0.130 C  
HETATM   25  C   UNL     1      -9.033   6.035  69.856  1.00  0.00    -0.144 C  
BRANCH  20  26
HETATM   26  C   UNL     1     -12.525   7.076  71.246  1.00  0.00    -0.386 C  
HETATM   27  N   UNL     1     -12.707   6.110  72.327  1.00  0.00    -0.415 NA 
HETATM   28  H2  UNL     1     -11.957   6.203  73.013  1.00  0.00     0.000 HD 
HETATM   29  H1  UNL     1     -13.614   6.147  72.792  1.00  0.00     0.000 HD 
ENDBRANCH  20  26
ENDBRANCH  16  17
ENDBRANCH   8  16
BRANCH  10  30
HETATM   30  O   UNL     1     -10.343  13.063  68.891  1.00  0.00    -0.170 OA 
BRANCH  30  31
HETATM   31  C   UNL     1     -11.081  14.299  68.857  1.00  0.00    -0.262 C  
HETATM   32  O   UNL     1      -9.259  15.379  70.105  1.00  0.00    -0.305 OA 
HETATM   33  C   UNL     1     -12.864  14.652  71.160  1.00  0.00    -0.343 C  
HETATM   34  C   UNL     1     -10.687  15.369  69.939  1.00  0.00    -0.303 C  
HETATM   35  O   UNL     1     -12.472  14.017  68.892  1.00  0.00    -0.197 OA 
HETATM   36  O   UNL     1     -13.790  15.644  70.669  1.00  0.00    -0.840 OA 
HETATM   37  C   UNL     1     -11.425  15.264  71.313  1.00  0.00    -0.380 C  
HETATM   38  H   UNL     1     -13.811  16.367  71.285  1.00  0.00     0.000 HD 
HETATM   39  C   UNL     1     -13.429  14.158  72.493  1.00  0.00    -0.634 C  
HETATM   40  H   UNL     1      -9.022  16.026  70.758  1.00  0.00     0.000 HD 
HETATM   41  C   UNL     1     -12.830  13.494  70.171  1.00  0.00     0.136 C  
BRANCH  37  42
HETATM   42  N   UNL     1     -11.554  16.567  72.028  1.00  0.00    -0.483 NA 
HETATM   43  H   UNL     1     -11.465  17.444  71.514  1.00  0.00     0.000 HD 
HETATM   44  C   UNL     1     -11.804  16.582  73.448  1.00  0.00    -0.215 C  
ENDBRANCH  37  42
ENDBRANCH  30  31
ENDBRANCH  10  30
ENDBRANCH   3   5
ENDBRANCH   2   3
TORSDOF 8
ENDMDL
MODEL      111
REMARK 921   NORMALIZED FREE ENERGY PREDICTED BY IDOCK:   -5.50 KCAL/MOL
REMARK 922        TOTAL FREE ENERGY PREDICTED BY IDOCK:   -8.81 KCAL/MOL
REMARK 923 INTER-LIGAND FREE ENERGY PREDICTED BY IDOCK:   -7.20 KCAL/MOL
REMARK 924 INTRA-LIGAND FREE ENERGY PREDICTED BY IDOCK:   -1.61 KCAL/MOL
REMARK 927      BINDING AFFINITY PREDICTED BY RF-SCORE:    0.00 PKD
ROOT
HETATM    1  C   UNL     1      -7.425   7.065  65.163  1.00  0.00    -0.094 C  
HETATM    2  C   UNL     1      -8.016   7.527  66.488  1.00  0.00    -0.107 C  
ENDROOT
BRANCH   2   3
HETATM    3  N   UNL     1      -9.469   7.676  66.371  1.00  0.00    -0.301 NA 
HETATM    4  H   UNL     1      -9.939   6.994  66.966  1.00  0.00     0.000 HD 
BRANCH   3   5
HETATM    5  C   UNL     1      -9.997   9.041  66.645  1.00  0.00    -0.278 C  
HETATM    6  C   UNL     1      -9.830   9.963  65.427  1.00  0.00    -0.384 C  
HETATM    7  C   UNL     1     -10.413  11.356  65.684  1.00  0.00    -0.262 C  
HETATM    8  C   UNL     1      -9.660  12.055  66.848  1.00  0.00    -0.203 C  
HETATM    9  N   UNL     1     -10.325  12.132  64.430  1.00  0.00    -0.301 NA 
HETATM   10  C   UNL     1      -9.442   9.648  67.965  1.00  0.00    -0.132 C  
HETATM   11  H2  UNL     1     -10.769  11.659  63.643  1.00  0.00     0.000 HD 
HETATM   12  H1  UNL     1     -10.714  13.059  64.601  1.00  0.00     0.000 HD 
HETATM   13  C   UNL     1      -9.630  11.170  68.123  1.00  0.00    -0.179 C  
HETATM   14  H   UNL     1      -8.546  11.042  69.796  1.00  0.00     0.000 HD 
HETATM   15  O   UNL     1      -8.564  11.584  69.016  1.00  0.00    -0.030 OA 
BRANCH   8  16
HETATM   16  O   UNL     1     -10.322  13.330  67.129  1.00  0.00    -0.246 OA 
BRANCH  16  17
HETATM   17  C   UNL     1      -9.600  14.492  66.660  1.00  0.00    -0.276 C  
HETATM   18  H1  UNL     1      -9.970  16.069  69.732  1.00  0.00     0.000 HD 
HETATM   19  O   UNL     1     -10.064  14.847  65.351  1.00  0.00    -0.346 OA 
HETATM   20  C   UNL     1     -11.022  15.835  65.283  1.00  0.00    -0.344 C  
HETATM   21  H2  UNL     1      -9.627  14.464  69.407  1.00  0.00     0.000 HD 
HETATM   22  N   UNL     1     -10.045  15.320  69.044  1.00  0.00    -0.228 NA 
HETATM   23  C   UNL     1     -10.994  16.876  66.125  1.00  0.00     0.157 C  
HETATM   24  C   UNL     1      -9.484  15.642  67.717  1.00  0.00    -0.208 C  
HETATM   25  C   UNL     1      -9.935  16.998  67.165  1.00  0.00    -0.281 C  
BRANCH  20  26
HETATM   26  C   UNL     1     -12.005  15.640  64.152  1.00  0.00    -0.039 C  
HETATM   27  N   UNL     1     -12.117  14.268  63.660  1.00  0.00    -0.973 NA 
HETATM   28  H2  UNL     1     -12.336  13.635  64.429  1.00  0.00     0.000 HD 
HETATM   29  H1  UNL     1     -12.780  14.136  62.896  1.00  0.00     0.000 HD 
ENDBRANCH  20  26
ENDBRANCH  16  17
ENDBRANCH   8  16
BRANCH  10  30
HETATM   30  O   UNL     1      -9.827   8.897  69.170  1.00  0.00    -0.172 OA 
BRANCH  30  31
HETATM   31  C   UNL     1      -8.886   7.921  69.657  1.00  0.00    -0.138 C  
HETATM   32  O   UNL     1     -10.292   6.143  68.707  1.00  0.00    -0.169 OA 
HETATM   33  C   UNL     1      -9.502   6.960  72.360  1.00  0.00    -0.139 C  
HETATM   34  C   UNL     1      -9.429   6.454  69.814  1.00  0.00    -0.152 C  
HETATM   35  O   UNL     1      -8.308   8.389  70.866  1.00  0.00    -0.115 OA 
HETATM   36  O   UNL     1      -8.232   6.422  72.780  1.00  0.00    -0.108 OA 
HETATM   37  C   UNL     1     -10.103   6.111  71.182  1.00  0.00    -0.190 C  
HETATM   38  H   UNL     1      -8.365   5.525  73.065  1.00  0.00     0.000 HD 
HETATM   39  C   UNL     1     -10.403   6.954  73.597  1.00  0.00    -0.397 C  
HETATM   40  H   UNL     1     -10.620   5.257  68.801  1.00  0.00     0.000 HD 
HETATM   41  C   UNL     1      -9.289   8.398  71.903  1.00  0.00    -0.244 C  
BRANCH  37  42
HETATM   42  N   UNL     1     -10.003   4.671  71.557  1.00  0.00    -0.189 NA 
HETATM   43  H   UNL     1     -10.512   4.317  72.367  1.00  0.00     0.000 HD 
HETATM   44  C   UNL     1      -9.184   3.781  70.771  1.00  0.00    -0.131 C  
ENDBRANCH  37  42
ENDBRANCH  30  31
ENDBRANCH  10  30
ENDBRANCH   3   5
ENDBRANCH   2   3
TORSDOF 8
ENDMDL
MODEL      112
REMARK 921   NORMALIZED FREE ENERGY PREDICTED BY IDOCK:   -5.48 KCAL/MOL
REMARK 922        TOTAL FREE ENERGY PREDICTED BY IDOCK:   -8.79 KCAL/MOL
REMARK 923 INTER-LIGAND FREE ENERGY PREDICTED BY IDOCK:   -7.50 KCAL/MOL
REMARK 924 INTRA-LIGAND FREE ENERGY PREDICTED BY IDOCK:   -1.29 KCAL/MOL
REMARK 927      BINDING AFFINITY PREDICTED BY RF-SCORE:    0.00 PKD
ROOT
HETATM    1  C   UNL     1      -9.010  10.102  62.429  1.00  0.00    -0.287 C  
HETATM    2  C   UNL     1      -9.177  10.681  63.827  1.00  0.00    -0.254 C  
ENDROOT
BRANCH   2   3
HETATM    3  N   UNL     1     -10.142   9.887  64.593  1.00  0.00    -0.359 NA 
HETATM    4  H   UNL     1      -9.679   9.075  65.003  1.00  0.00     0.000 HD 
BRANCH   3   5
HETATM    5  C   UNL     1     -10.894  10.630  65.642  1.00  0.00     0.060 C  
HETATM    6  C   UNL     1     -10.884  12.143  65.375  1.00  0.00    -0.335 C  
HETATM    7  C   UNL     1     -11.694  12.911  66.424  1.00  0.00    -0.395 C  
HETATM    8  C   UNL     1     -11.070  12.728  67.835  1.00  0.00    -0.246 C  
HETATM    9  N   UNL     1     -11.738  14.333  66.025  1.00  0.00    -0.368 NA 
HETATM   10  C   UNL     1     -10.450  10.249  67.084  1.00  0.00    -0.254 C  
HETATM   11  H2  UNL     1     -12.094  14.464  65.078  1.00  0.00     0.000 HD 
HETATM   12  H1  UNL     1     -12.277  14.844  66.722  1.00  0.00     0.000 HD 
HETATM   13  C   UNL     1     -10.893  11.228  68.191  1.00  0.00    -0.217 C  
HETATM   14  H   UNL     1      -9.804  10.140  69.465  1.00  0.00     0.000 HD 
HETATM   15  O   UNL     1      -9.913  11.058  69.247  1.00  0.00    -0.171 OA 
BRANCH   8  16
HETATM   16  O   UNL     1     -11.939  13.384  68.814  1.00  0.00    -0.335 OA 
BRANCH  16  17
HETATM   17  C   UNL     1     -11.253  13.854  69.998  1.00  0.00     0.031 C  
HETATM   18  H1  UNL     1     -14.265  14.292  71.671  1.00  0.00     0.000 HD 
HETATM   19  O   UNL     1     -10.235  14.789  69.621  1.00  0.00    -0.149 OA 
HETATM   20  C   UNL     1     -10.565  16.124  69.695  1.00  0.00    -0.311 C  
HETATM   21  H2  UNL     1     -13.796  13.047  70.656  1.00  0.00     0.000 HD 
HETATM   22  N   UNL     1     -13.642  14.023  70.909  1.00  0.00    -0.071 NA 
HETATM   23  C   UNL     1     -11.354  16.582  70.675  1.00  0.00    -0.066 C  
HETATM   24  C   UNL     1     -12.209  14.266  71.167  1.00  0.00    -0.356 C  
HETATM   25  C   UNL     1     -11.906  15.666  71.711  1.00  0.00    -0.524 C  
BRANCH  20  26
HETATM   26  C   UNL     1      -9.898  16.966  68.632  1.00  0.00    -0.270 C  
HETATM   27  N   UNL     1     -10.517  16.899  67.310  1.00  0.00    -0.315 NA 
HETATM   28  H2  UNL     1     -11.508  17.133  67.374  1.00  0.00     0.000 HD 
HETATM   29  H1  UNL     1     -10.067  17.467  66.592  1.00  0.00     0.000 HD 
ENDBRANCH  20  26
ENDBRANCH  16  17
ENDBRANCH   8  16
BRANCH  10  30
HETATM   30  O   UNL     1     -10.704   8.842  67.430  1.00  0.00    -0.272 OA 
BRANCH  30  31
HETATM   31  C   UNL     1      -9.562   7.965  67.466  1.00  0.00    -0.152 C  
HETATM   32  O   UNL     1     -10.874   6.267  66.268  1.00  0.00    -0.492 OA 
HETATM   33  C   UNL     1      -9.497   6.239  69.837  1.00  0.00    -0.149 C  
HETATM   34  C   UNL     1      -9.860   6.434  67.273  1.00  0.00    -0.138 C  
HETATM   35  O   UNL     1      -8.825   8.202  68.656  1.00  0.00    -0.134 OA 
HETATM   36  O   UNL     1      -8.107   5.855  69.886  1.00  0.00    -0.111 OA 
HETATM   37  C   UNL     1     -10.198   5.629  68.570  1.00  0.00    -0.193 C  
HETATM   38  H   UNL     1      -8.059   4.906  69.917  1.00  0.00     0.000 HD 
HETATM   39  C   UNL     1     -10.126   5.746  71.142  1.00  0.00    -0.257 C  
HETATM   40  H   UNL     1     -11.054   5.341  66.152  1.00  0.00     0.000 HD 
HETATM   41  C   UNL     1      -9.575   7.760  69.788  1.00  0.00    -0.167 C  
BRANCH  37  42
HETATM   42  N   UNL     1      -9.832   4.185  68.494  1.00  0.00    -0.077 NA 
HETATM   43  H   UNL     1     -10.088   3.552  69.252  1.00  0.00     0.000 HD 
HETATM   44  C   UNL     1      -9.115   3.688  67.346  1.00  0.00    -0.161 C  
ENDBRANCH  37  42
ENDBRANCH  30  31
ENDBRANCH  10  30
ENDBRANCH   3   5
ENDBRANCH   2   3
TORSDOF 8
ENDMDL
MODEL      113
REMARK 921   NORMALIZED FREE ENERGY PREDICTED BY IDOCK:   -5.48 KCAL/MOL
REMARK 922        TOTAL FREE ENERGY PREDICTED BY IDOCK:   -8.79 KCAL/MOL
REMARK 923 INTER-LIGAND FREE ENERGY PREDICTED BY IDOCK:   -6.69 KCAL/MOL
REMARK 924 INTRA-LIGAND FREE ENERGY PREDICTED BY IDOCK:   -2.10 KCAL/MOL
REMARK 927      BINDING AFFINITY PREDICTED BY RF-SCORE:    0.00 PKD
ROOT
HETATM    1  C   UNL     1      -5.546  14.399  70.651  1.00  0.00    -0.156 C  
HETATM    2  C   UNL     1      -5.287  13.093  69.914  1.00  0.00    -0.095 C  
ENDROOT
BRANCH   2   3
HETATM    3  N   UNL     1      -6.327  12.864  68.907  1.00  0.00    -0.084 NA 
HETATM    4  H   UNL     1      -5.903  12.746  67.987  1.00  0.00     0.000 HD 
BRANCH   3   5
HETATM    5  C   UNL     1      -7.254  11.733  69.190  1.00  0.00    -0.043 C  
HETATM    6  C   UNL     1      -6.639  10.739  70.187  1.00  0.00    -0.144 C  
HETATM    7  C   UNL     1      -7.604   9.597  70.520  1.00  0.00    -0.132 C  
HETATM    8  C   UNL     1      -7.928   8.769  69.246  1.00  0.00    -0.108 C  
HETATM    9  N   UNL     1      -6.988   8.763  71.573  1.00  0.00    -0.087 NA 
HETATM   10  C   UNL     1      -7.797  11.061  67.897  1.00  0.00    -0.110 C  
HETATM   11  H2  UNL     1      -6.719   9.303  72.396  1.00  0.00     0.000 HD 
HETATM   12  H1  UNL     1      -7.630   8.002  71.795  1.00  0.00     0.000 HD 
HETATM   13  C   UNL     1      -8.439   9.673  68.093  1.00  0.00    -0.118 C  
HETATM   14  H   UNL     1      -8.602   9.564  66.104  1.00  0.00     0.000 HD 
HETATM   15  O   UNL     1      -8.289   9.011  66.810  1.00  0.00    -0.113 OA 
BRANCH   8  16
HETATM   16  O   UNL     1      -8.935   7.764  69.590  1.00  0.00    -0.142 OA 
BRANCH  16  17
HETATM   17  C   UNL     1      -8.463   6.399  69.519  1.00  0.00    -0.133 C  
HETATM   18  H1  UNL     1     -11.075   5.515  67.407  1.00  0.00     0.000 HD 
HETATM   19  O   UNL     1      -8.112   5.945  70.833  1.00  0.00    -0.115 OA 
HETATM   20  C   UNL     1      -9.068   5.221  71.511  1.00  0.00    -0.145 C  
HETATM   21  H2  UNL     1     -10.149   6.909  67.410  1.00  0.00     0.000 HD 
HETATM   22  N   UNL     1     -10.489   6.129  67.973  1.00  0.00    -0.200 NA 
HETATM   23  C   UNL     1      -9.870   4.366  70.863  1.00  0.00    -0.266 C  
HETATM   24  C   UNL     1      -9.363   5.457  68.651  1.00  0.00    -0.118 C  
HETATM   25  C   UNL     1      -9.761   4.175  69.390  1.00  0.00    -0.233 C  
BRANCH  20  26
HETATM   26  C   UNL     1      -9.044   5.449  73.005  1.00  0.00    -0.128 C  
HETATM   27  N   UNL     1      -8.680   6.803  73.418  1.00  0.00    -0.122 NA 
HETATM   28  H2  UNL     1      -9.291   7.484  72.969  1.00  0.00     0.000 HD 
HETATM   29  H1  UNL     1      -8.663   6.957  74.427  1.00  0.00     0.000 HD 
ENDBRANCH  20  26
ENDBRANCH  16  17
ENDBRANCH   8  16
BRANCH  10  30
HETATM   30  O   UNL     1      -8.613  11.956  67.062  1.00  0.00    -0.164 OA 
BRANCH  30  31
HETATM   31  C   UNL     1     -10.014  12.048  67.383  1.00  0.00    -0.191 C  
HETATM   32  O   UNL     1     -10.504  10.516  65.525  1.00  0.00    -0.237 OA 
HETATM   33  C   UNL     1     -11.393  14.212  65.960  1.00  0.00    -0.330 C  
HETATM   34  C   UNL     1     -11.014  11.657  66.236  1.00  0.00    -0.289 C  
HETATM   35  O   UNL     1     -10.294  13.343  67.894  1.00  0.00    -0.228 OA 
HETATM   36  O   UNL     1     -12.568  14.401  66.776  1.00  0.00    -0.540 OA 
HETATM   37  C   UNL     1     -11.425  12.806  65.258  1.00  0.00    -0.325 C  
HETATM   38  H   UNL     1     -13.334  14.337  66.217  1.00  0.00     0.000 HD 
HETATM   39  C   UNL     1     -11.377  15.363  64.953  1.00  0.00    -0.367 C  
HETATM   40  H   UNL     1     -11.109  10.280  64.832  1.00  0.00     0.000 HD 
HETATM   41  C   UNL     1     -10.164  14.314  66.855  1.00  0.00    -0.266 C  
BRANCH  37  42
HETATM   42  N   UNL     1     -12.776  12.626  64.653  1.00  0.00    -0.704 NA 
HETATM   43  H   UNL     1     -13.604  12.976  65.135  1.00  0.00     0.000 HD 
HETATM   44  C   UNL     1     -12.908  11.956  63.383  1.00  0.00    -0.256 C  
ENDBRANCH  37  42
ENDBRANCH  30  31
ENDBRANCH  10  30
ENDBRANCH   3   5
ENDBRANCH   2   3
TORSDOF 8
ENDMDL
MODEL      114
REMARK 921   NORMALIZED FREE ENERGY PREDICTED BY IDOCK:   -5.48 KCAL/MOL
REMARK 922        TOTAL FREE ENERGY PREDICTED BY IDOCK:   -8.78 KCAL/MOL
REMARK 923 INTER-LIGAND FREE ENERGY PREDICTED BY IDOCK:   -7.02 KCAL/MOL
REMARK 924 INTRA-LIGAND FREE ENERGY PREDICTED BY IDOCK:   -1.76 KCAL/MOL
REMARK 927      BINDING AFFINITY PREDICTED BY RF-SCORE:    0.00 PKD
ROOT
HETATM    1  C   UNL     1      -6.865   7.959  73.350  1.00  0.00    -0.111 C  
HETATM    2  C   UNL     1      -7.837   8.244  72.213  1.00  0.00    -0.130 C  
ENDROOT
BRANCH   2   3
HETATM    3  N   UNL     1      -7.323   7.693  70.956  1.00  0.00    -0.069 NA 
HETATM    4  H   UNL     1      -7.540   6.698  70.895  1.00  0.00     0.000 HD 
BRANCH   3   5
HETATM    5  C   UNL     1      -7.774   8.390  69.720  1.00  0.00    -0.093 C  
HETATM    6  C   UNL     1      -7.904   9.904  69.944  1.00  0.00    -0.182 C  
HETATM    7  C   UNL     1      -8.323  10.635  68.665  1.00  0.00    -0.137 C  
HETATM    8  C   UNL     1      -9.725  10.156  68.199  1.00  0.00    -0.139 C  
HETATM    9  N   UNL     1      -8.302  12.088  68.934  1.00  0.00    -0.365 NA 
HETATM   10  C   UNL     1      -9.042   7.743  69.092  1.00  0.00    -0.145 C  
HETATM   11  H2  UNL     1      -7.403  12.408  69.293  1.00  0.00     0.000 HD 
HETATM   12  H1  UNL     1      -8.581  12.574  68.083  1.00  0.00     0.000 HD 
HETATM   13  C   UNL     1      -9.784   8.612  68.057  1.00  0.00    -0.158 C  
HETATM   14  H   UNL     1     -11.191   7.194  68.005  1.00  0.00     0.000 HD 
HETATM   15  O   UNL     1     -11.155   8.140  68.092  1.00  0.00     0.129 OA 
BRANCH   8  16
HETATM   16  O   UNL     1     -10.032  10.797  66.918  1.00  0.00    -0.188 OA 
BRANCH  16  17
HETATM   17  C   UNL     1     -11.279  11.530  66.903  1.00  0.00    -0.298 C  
HETATM   18  H1  UNL     1      -9.637  14.469  66.046  1.00  0.00     0.000 HD 
HETATM   19  O   UNL     1     -12.054  11.180  68.056  1.00  0.00    -0.635 OA 
HETATM   20  C   UNL     1     -11.962  12.025  69.141  1.00  0.00    -0.268 C  
HETATM   21  H2  UNL     1      -9.370  12.913  65.491  1.00  0.00     0.000 HD 
HETATM   22  N   UNL     1      -9.741  13.476  66.256  1.00  0.00    -0.289 NA 
HETATM   23  C   UNL     1     -11.850  13.349  68.972  1.00  0.00    -0.378 C  
HETATM   24  C   UNL     1     -11.118  13.054  66.581  1.00  0.00    -0.289 C  
HETATM   25  C   UNL     1     -11.814  13.951  67.610  1.00  0.00    -0.422 C  
BRANCH  20  26
HETATM   26  C   UNL     1     -12.074  11.310  70.467  1.00  0.00    -0.387 C  
HETATM   27  N   UNL     1     -12.586   9.944  70.393  1.00  0.00    -0.514 NA 
HETATM   28  H2  UNL     1     -12.026   9.393  69.742  1.00  0.00     0.000 HD 
HETATM   29  H1  UNL     1     -12.662   9.461  71.288  1.00  0.00     0.000 HD 
ENDBRANCH  20  26
ENDBRANCH  16  17
ENDBRANCH   8  16
BRANCH  10  30
HETATM   30  O   UNL     1      -8.836   6.360  68.636  1.00  0.00    -0.121 OA 
BRANCH  30  31
HETATM   31  C   UNL     1      -8.574   6.169  67.232  1.00  0.00    -0.103 C  
HETATM   32  O   UNL     1     -10.915   5.487  66.925  1.00  0.00    -0.457 OA 
HETATM   33  C   UNL     1      -7.696   3.449  66.572  1.00  0.00    -0.080 C  
HETATM   34  C   UNL     1      -9.577   5.236  66.462  1.00  0.00    -0.156 C  
HETATM   35  O   UNL     1      -7.232   5.740  67.059  1.00  0.00    -0.072 OA 
HETATM   36  O   UNL     1      -7.060   3.645  65.292  1.00  0.00    -0.063 OA 
HETATM   37  C   UNL     1      -9.242   3.709  66.470  1.00  0.00    -0.171 C  
HETATM   38  H   UNL     1      -7.448   3.042  64.668  1.00  0.00     0.000 HD 
HETATM   39  C   UNL     1      -7.376   2.014  66.997  1.00  0.00    -0.060 C  
HETATM   40  H   UNL     1     -11.521   4.923  66.459  1.00  0.00     0.000 HD 
HETATM   41  C   UNL     1      -7.075   4.417  67.572  1.00  0.00    -0.064 C  
BRANCH  37  42
HETATM   42  N   UNL     1      -9.753   2.976  65.276  1.00  0.00    -0.359 NA 
HETATM   43  H   UNL     1      -9.674   1.960  65.227  1.00  0.00     0.000 HD 
HETATM   44  C   UNL     1     -10.356   3.708  64.189  1.00  0.00    -0.246 C  
ENDBRANCH  37  42
ENDBRANCH  30  31
ENDBRANCH  10  30
ENDBRANCH   3   5
ENDBRANCH   2   3
TORSDOF 8
ENDMDL
MODEL      115
REMARK 921   NORMALIZED FREE ENERGY PREDICTED BY IDOCK:   -5.48 KCAL/MOL
REMARK 922        TOTAL FREE ENERGY PREDICTED BY IDOCK:   -8.78 KCAL/MOL
REMARK 923 INTER-LIGAND FREE ENERGY PREDICTED BY IDOCK:   -7.10 KCAL/MOL
REMARK 924 INTRA-LIGAND FREE ENERGY PREDICTED BY IDOCK:   -1.68 KCAL/MOL
REMARK 927      BINDING AFFINITY PREDICTED BY RF-SCORE:    0.00 PKD
ROOT
HETATM    1  C   UNL     1     -11.476  12.866  63.827  1.00  0.00    -0.519 C  
HETATM    2  C   UNL     1     -10.807  11.500  63.889  1.00  0.00    -0.401 C  
ENDROOT
BRANCH   2   3
HETATM    3  N   UNL     1      -9.417  11.637  64.333  1.00  0.00    -0.426 NA 
HETATM    4  H   UNL     1      -9.201  12.619  64.508  1.00  0.00     0.000 HD 
BRANCH   3   5
HETATM    5  C   UNL     1      -9.039  10.814  65.515  1.00  0.00    -0.199 C  
HETATM    6  C   UNL     1      -8.373   9.496  65.093  1.00  0.00    -0.148 C  
HETATM    7  C   UNL     1      -7.938   8.664  66.303  1.00  0.00    -0.102 C  
HETATM    8  C   UNL     1      -9.172   8.258  67.155  1.00  0.00    -0.144 C  
HETATM    9  N   UNL     1      -7.200   7.482  65.811  1.00  0.00    -0.065 NA 
HETATM   10  C   UNL     1     -10.213  10.624  66.518  1.00  0.00    -0.233 C  
HETATM   11  H2  UNL     1      -6.418   7.732  65.205  1.00  0.00     0.000 HD 
HETATM   12  H1  UNL     1      -6.910   6.928  66.617  1.00  0.00     0.000 HD 
HETATM   13  C   UNL     1     -10.026   9.493  67.548  1.00  0.00    -0.186 C  
HETATM   14  H   UNL     1     -11.897   9.852  68.152  1.00  0.00     0.000 HD 
HETATM   15  O   UNL     1     -11.373   9.096  67.912  1.00  0.00     0.218 OA 
BRANCH   8  16
HETATM   16  O   UNL     1      -8.698   7.564  68.355  1.00  0.00    -0.124 OA 
BRANCH  16  17
HETATM   17  C   UNL     1      -9.601   6.549  68.851  1.00  0.00    -0.127 C  
HETATM   18  H1  UNL     1      -7.218   5.412  71.107  1.00  0.00     0.000 HD 
HETATM   19  O   UNL     1     -10.245   5.900  67.747  1.00  0.00    -0.148 OA 
HETATM   20  C   UNL     1      -9.689   4.715  67.317  1.00  0.00    -0.185 C  
HETATM   21  H2  UNL     1      -7.598   6.985  70.681  1.00  0.00     0.000 HD 
HETATM   22  N   UNL     1      -7.620   6.009  70.385  1.00  0.00    -0.093 NA 
HETATM   23  C   UNL     1      -9.159   3.850  68.192  1.00  0.00    -0.187 C  
HETATM   24  C   UNL     1      -8.983   5.633  69.960  1.00  0.00    -0.137 C  
HETATM   25  C   UNL     1      -9.146   4.141  69.652  1.00  0.00    -0.184 C  
BRANCH  20  26
HETATM   26  C   UNL     1      -9.816   4.499  65.827  1.00  0.00    -0.222 C  
HETATM   27  N   UNL     1      -9.137   5.493  64.998  1.00  0.00    -0.359 NA 
HETATM   28  H2  UNL     1      -8.154   5.559  65.261  1.00  0.00     0.000 HD 
HETATM   29  H1  UNL     1      -9.223   5.348  63.992  1.00  0.00     0.000 HD 
ENDBRANCH  20  26
ENDBRANCH  16  17
ENDBRANCH   8  16
BRANCH  10  30
HETATM   30  O   UNL     1     -10.683  11.879  67.125  1.00  0.00    -0.223 OA 
BRANCH  30  31
HETATM   31  C   UNL     1     -10.170  12.202  68.432  1.00  0.00    -0.210 C  
HETATM   32  O   UNL     1     -12.326  11.536  69.403  1.00  0.00    -0.231 OA 
HETATM   33  C   UNL     1     -10.673  14.981  69.224  1.00  0.00    -0.248 C  
HETATM   34  C   UNL     1     -11.242  12.468  69.549  1.00  0.00    -0.093 C  
HETATM   35  O   UNL     1      -9.257  13.283  68.324  1.00  0.00    -0.206 OA 
HETATM   36  O   UNL     1      -9.694  15.174  70.266  1.00  0.00    -0.457 OA 
HETATM   37  C   UNL     1     -11.760  13.938  69.671  1.00  0.00    -0.311 C  
HETATM   38  H   UNL     1     -10.140  15.488  71.044  1.00  0.00     0.000 HD 
HETATM   39  C   UNL     1     -11.274  16.358  68.937  1.00  0.00    -0.304 C  
HETATM   40  H   UNL     1     -12.974  11.697  70.079  1.00  0.00     0.000 HD 
HETATM   41  C   UNL     1      -9.957  14.478  67.977  1.00  0.00    -0.222 C  
BRANCH  37  42
HETATM   42  N   UNL     1     -12.211  14.305  71.044  1.00  0.00    -0.339 NA 
HETATM   43  H   UNL     1     -11.666  14.962  71.604  1.00  0.00     0.000 HD 
HETATM   44  C   UNL     1     -13.420  13.728  71.579  1.00  0.00    -0.284 C  
ENDBRANCH  37  42
ENDBRANCH  30  31
ENDBRANCH  10  30
ENDBRANCH   3   5
ENDBRANCH   2   3
TORSDOF 8
ENDMDL
MODEL      116
REMARK 921   NORMALIZED FREE ENERGY PREDICTED BY IDOCK:   -5.46 KCAL/MOL
REMARK 922        TOTAL FREE ENERGY PREDICTED BY IDOCK:   -8.76 KCAL/MOL
REMARK 923 INTER-LIGAND FREE ENERGY PREDICTED BY IDOCK:   -7.27 KCAL/MOL
REMARK 924 INTRA-LIGAND FREE ENERGY PREDICTED BY IDOCK:   -1.49 KCAL/MOL
REMARK 927      BINDING AFFINITY PREDICTED BY RF-SCORE:    0.00 PKD
ROOT
HETATM    1  C   UNL     1      -9.655   9.998  62.571  1.00  0.00    -0.119 C  
HETATM    2  C   UNL     1      -9.567  10.438  64.026  1.00  0.00    -0.317 C  
ENDROOT
BRANCH   2   3
HETATM    3  N   UNL     1      -9.292   9.284  64.888  1.00  0.00    -0.448 NA 
HETATM    4  H   UNL     1      -8.286   9.128  64.952  1.00  0.00     0.000 HD 
BRANCH   3   5
HETATM    5  C   UNL     1      -9.887   9.347  66.251  1.00  0.00    -0.281 C  
HETATM    6  C   UNL     1     -10.560  10.704  66.508  1.00  0.00    -0.257 C  
HETATM    7  C   UNL     1     -11.216  10.761  67.891  1.00  0.00    -0.318 C  
HETATM    8  C   UNL     1     -10.146  10.603  69.007  1.00  0.00    -0.213 C  
HETATM    9  N   UNL     1     -11.943  12.042  68.007  1.00  0.00    -0.521 NA 
HETATM   10  C   UNL     1      -8.885   8.929  67.366  1.00  0.00    -0.129 C  
HETATM   11  H2  UNL     1     -12.611  12.184  67.249  1.00  0.00     0.000 HD 
HETATM   12  H1  UNL     1     -12.379  12.080  68.927  1.00  0.00     0.000 HD 
HETATM   13  C   UNL     1      -9.287   9.328  68.800  1.00  0.00    -0.139 C  
HETATM   14  H   UNL     1      -7.508   8.643  69.396  1.00  0.00     0.000 HD 
HETATM   15  O   UNL     1      -8.033   9.424  69.523  1.00  0.00    -0.083 OA 
BRANCH   8  16
HETATM   16  O   UNL     1     -10.830  10.552  70.301  1.00  0.00    -0.279 OA 
BRANCH  16  17
HETATM   17  C   UNL     1     -11.972   9.665  70.336  1.00  0.00    -0.106 C  
HETATM   18  H1  UNL     1     -13.823  11.982  72.145  1.00  0.00     0.000 HD 
HETATM   19  O   UNL     1     -11.537   8.339  70.662  1.00  0.00    -0.271 OA 
HETATM   20  C   UNL     1     -11.634   7.965  71.984  1.00  0.00    -0.308 C  
HETATM   21  H2  UNL     1     -12.779  12.238  70.863  1.00  0.00     0.000 HD 
HETATM   22  N   UNL     1     -13.025  11.612  71.629  1.00  0.00    -0.427 NA 
HETATM   23  C   UNL     1     -12.660   8.376  72.740  1.00  0.00    -0.091 C  
HETATM   24  C   UNL     1     -13.197  10.233  71.128  1.00  0.00    -0.343 C  
HETATM   25  C   UNL     1     -13.725   9.254  72.181  1.00  0.00    -0.517 C  
BRANCH  20  26
HETATM   26  C   UNL     1     -10.535   7.025  72.422  1.00  0.00    -0.209 C  
HETATM   27  N   UNL     1     -10.920   6.058  73.448  1.00  0.00    -0.425 NA 
HETATM   28  H2  UNL     1     -11.737   5.527  73.143  1.00  0.00     0.000 HD 
HETATM   29  H1  UNL     1     -10.179   5.423  73.744  1.00  0.00     0.000 HD 
ENDBRANCH  20  26
ENDBRANCH  16  17
ENDBRANCH   8  16
BRANCH  10  30
HETATM   30  O   UNL     1      -8.436   7.532  67.265  1.00  0.00    -0.117 OA 
BRANCH  30  31
HETATM   31  C   UNL     1      -9.344   6.521  67.742  1.00  0.00    -0.118 C  
HETATM   32  O   UNL     1      -8.006   6.338  69.795  1.00  0.00    -0.113 OA 
HETATM   33  C   UNL     1      -8.553   3.798  66.987  1.00  0.00    -0.108 C  
HETATM   34  C   UNL     1      -8.794   5.573  68.868  1.00  0.00    -0.107 C  
HETATM   35  O   UNL     1      -9.841   5.778  66.639  1.00  0.00    -0.148 OA 
HETATM   36  O   UNL     1      -9.794   3.078  67.134  1.00  0.00    -0.357 OA 
HETATM   37  C   UNL     1      -8.032   4.297  68.383  1.00  0.00    -0.078 C  
HETATM   38  H   UNL     1      -9.644   2.333  67.706  1.00  0.00     0.000 HD 
HETATM   39  C   UNL     1      -7.573   2.837  66.312  1.00  0.00    -0.076 C  
HETATM   40  H   UNL     1      -7.673   5.765  70.476  1.00  0.00     0.000 HD 
HETATM   41  C   UNL     1      -8.794   4.991  66.071  1.00  0.00    -0.130 C  
BRANCH  37  42
HETATM   42  N   UNL     1      -8.108   3.152  69.336  1.00  0.00    -0.048 NA 
HETATM   43  H   UNL     1      -7.873   2.209  69.025  1.00  0.00     0.000 HD 
HETATM   44  C   UNL     1      -8.516   3.382  70.701  1.00  0.00    -0.068 C  
ENDBRANCH  37  42
ENDBRANCH  30  31
ENDBRANCH  10  30
ENDBRANCH   3   5
ENDBRANCH   2   3
TORSDOF 8
ENDMDL
MODEL      117
REMARK 921   NORMALIZED FREE ENERGY PREDICTED BY IDOCK:   -5.46 KCAL/MOL
REMARK 922        TOTAL FREE ENERGY PREDICTED BY IDOCK:   -8.76 KCAL/MOL
REMARK 923 INTER-LIGAND FREE ENERGY PREDICTED BY IDOCK:   -8.55 KCAL/MOL
REMARK 924 INTRA-LIGAND FREE ENERGY PREDICTED BY IDOCK:   -0.21 KCAL/MOL
REMARK 927      BINDING AFFINITY PREDICTED BY RF-SCORE:    0.00 PKD
ROOT
HETATM    1  C   UNL     1     -13.881  14.562  71.712  1.00  0.00    -0.525 C  
HETATM    2  C   UNL     1     -12.490  14.368  71.123  1.00  0.00    -0.359 C  
ENDROOT
BRANCH   2   3
HETATM    3  N   UNL     1     -12.564  14.295  69.661  1.00  0.00    -0.503 NA 
HETATM    4  H   UNL     1     -12.270  15.182  69.252  1.00  0.00     0.000 HD 
BRANCH   3   5
HETATM    5  C   UNL     1     -11.812  13.172  69.037  1.00  0.00    -0.313 C  
HETATM    6  C   UNL     1     -11.807  11.929  69.940  1.00  0.00    -0.418 C  
HETATM    7  C   UNL     1     -11.076  10.753  69.286  1.00  0.00    -0.256 C  
HETATM    8  C   UNL     1      -9.582  11.107  69.047  1.00  0.00    -0.083 C  
HETATM    9  N   UNL     1     -11.226   9.571  70.159  1.00  0.00    -0.270 NA 
HETATM   10  C   UNL     1     -10.396  13.592  68.550  1.00  0.00    -0.243 C  
HETATM   11  H2  UNL     1     -12.202   9.359  70.369  1.00  0.00     0.000 HD 
HETATM   12  H1  UNL     1     -10.739   8.788  69.723  1.00  0.00     0.000 HD 
HETATM   13  C   UNL     1      -9.428  12.430  68.252  1.00  0.00    -0.203 C  
HETATM   14  H   UNL     1      -8.009  13.804  67.949  1.00  0.00     0.000 HD 
HETATM   15  O   UNL     1      -8.104  12.994  68.436  1.00  0.00    -0.148 OA 
BRANCH   8  16
HETATM   16  O   UNL     1      -8.954  10.000  68.322  1.00  0.00    -0.118 OA 
BRANCH  16  17
HETATM   17  C   UNL     1      -9.844   9.294  67.426  1.00  0.00    -0.178 C  
HETATM   18  H1  UNL     1      -8.894   6.231  68.761  1.00  0.00     0.000 HD 
HETATM   19  O   UNL     1      -9.716   9.831  66.103  1.00  0.00    -0.208 OA 
HETATM   20  C   UNL     1      -8.870   9.163  65.245  1.00  0.00    -0.199 C  
HETATM   21  H2  UNL     1      -9.189   7.678  69.549  1.00  0.00     0.000 HD 
HETATM   22  N   UNL     1      -8.925   7.246  68.663  1.00  0.00    -0.129 NA 
HETATM   23  C   UNL     1      -8.778   7.827  65.275  1.00  0.00    -0.004 C  
HETATM   24  C   UNL     1      -9.795   7.736  67.576  1.00  0.00    -0.171 C  
HETATM   25  C   UNL     1      -9.578   7.021  66.238  1.00  0.00    -0.094 C  
BRANCH  20  26
HETATM   26  C   UNL     1      -8.160  10.076  64.273  1.00  0.00    -0.156 C  
HETATM   27  N   UNL     1      -6.737  10.278  64.540  1.00  0.00    -0.252 NA 
HETATM   28  H2  UNL     1      -6.258   9.379  64.592  1.00  0.00     0.000 HD 
HETATM   29  H1  UNL     1      -6.257  10.894  63.883  1.00  0.00     0.000 HD 
ENDBRANCH  20  26
ENDBRANCH  16  17
ENDBRANCH   8  16
BRANCH  10  30
HETATM   30  O   UNL     1     -10.413  14.609  67.487  1.00  0.00    -0.244 OA 
BRANCH  30  31
HETATM   31  C   UNL     1      -9.198  15.355  67.280  1.00  0.00    -0.207 C  
HETATM   32  O   UNL     1      -9.275  16.064  69.632  1.00  0.00    -0.194 OA 
HETATM   33  C   UNL     1      -9.664  18.124  66.432  1.00  0.00    -0.327 C  
HETATM   34  C   UNL     1      -8.907  16.503  68.314  1.00  0.00    -0.210 C  
HETATM   35  O   UNL     1      -9.166  15.841  65.947  1.00  0.00    -0.340 OA 
HETATM   36  O   UNL     1      -8.393  18.473  65.846  1.00  0.00    -0.494 OA 
HETATM   37  C   UNL     1      -9.519  17.902  67.981  1.00  0.00    -0.279 C  
HETATM   38  H   UNL     1      -8.081  19.271  66.258  1.00  0.00     0.000 HD 
HETATM   39  C   UNL     1     -10.621  19.270  66.098  1.00  0.00    -0.549 C  
HETATM   40  H   UNL     1      -9.099  16.758  70.257  1.00  0.00     0.000 HD 
HETATM   41  C   UNL     1     -10.165  16.846  65.772  1.00  0.00    -0.268 C  
BRANCH  37  42
HETATM   42  N   UNL     1      -8.743  19.047  68.538  1.00  0.00    -0.347 NA 
HETATM   43  H   UNL     1      -9.162  19.976  68.583  1.00  0.00     0.000 HD 
HETATM   44  C   UNL     1      -7.398  18.836  69.013  1.00  0.00    -0.256 C  
ENDBRANCH  37  42
ENDBRANCH  30  31
ENDBRANCH  10  30
ENDBRANCH   3   5
ENDBRANCH   2   3
TORSDOF 8
ENDMDL
MODEL      118
REMARK 921   NORMALIZED FREE ENERGY PREDICTED BY IDOCK:   -5.44 KCAL/MOL
REMARK 922        TOTAL FREE ENERGY PREDICTED BY IDOCK:   -8.73 KCAL/MOL
REMARK 923 INTER-LIGAND FREE ENERGY PREDICTED BY IDOCK:   -7.67 KCAL/MOL
REMARK 924 INTRA-LIGAND FREE ENERGY PREDICTED BY IDOCK:   -1.05 KCAL/MOL
REMARK 927      BINDING AFFINITY PREDICTED BY RF-SCORE:    0.00 PKD
ROOT
HETATM    1  C   UNL     1      -7.643   6.989  63.402  1.00  0.00    -0.105 C  
HETATM    2  C   UNL     1      -7.877   8.335  64.074  1.00  0.00    -0.146 C  
ENDROOT
BRANCH   2   3
HETATM    3  N   UNL     1      -8.755   8.175  65.237  1.00  0.00    -0.349 NA 
HETATM    4  H   UNL     1      -8.197   8.050  66.082  1.00  0.00     0.000 HD 
BRANCH   3   5
HETATM    5  C   UNL     1      -9.753   9.261  65.441  1.00  0.00    -0.099 C  
HETATM    6  C   UNL     1      -9.406  10.505  64.609  1.00  0.00    -0.294 C  
HETATM    7  C   UNL     1     -10.453  11.611  64.775  1.00  0.00    -0.295 C  
HETATM    8  C   UNL     1     -10.505  12.092  66.252  1.00  0.00    -0.239 C  
HETATM    9  N   UNL     1     -10.113  12.713  63.852  1.00  0.00    -0.582 NA 
HETATM   10  C   UNL     1     -10.009   9.569  66.944  1.00  0.00    -0.216 C  
HETATM   11  H2  UNL     1     -10.022  12.401  62.885  1.00  0.00     0.000 HD 
HETATM   12  H1  UNL     1     -10.810  13.449  63.963  1.00  0.00     0.000 HD 
HETATM   13  C   UNL     1     -10.718  10.908  67.232  1.00  0.00    -0.268 C  
HETATM   14  H   UNL     1     -10.432  10.541  69.175  1.00  0.00     0.000 HD 
HETATM   15  O   UNL     1     -10.302  11.266  68.575  1.00  0.00    -0.187 OA 
BRANCH   8  16
HETATM   16  O   UNL     1     -11.592  13.065  66.384  1.00  0.00    -0.327 OA 
BRANCH  16  17
HETATM   17  C   UNL     1     -11.175  14.362  66.868  1.00  0.00    -0.334 C  
HETATM   18  H1  UNL     1     -11.692  15.787  63.742  1.00  0.00     0.000 HD 
HETATM   19  O   UNL     1      -9.988  14.219  67.658  1.00  0.00    -0.222 OA 
HETATM   20  C   UNL     1      -8.789  14.448  67.019  1.00  0.00    -0.237 C  
HETATM   21  H2  UNL     1     -12.623  14.656  64.551  1.00  0.00     0.000 HD 
HETATM   22  N   UNL     1     -11.690  15.058  64.455  1.00  0.00    -0.406 NA 
HETATM   23  C   UNL     1      -8.681  15.403  66.087  1.00  0.00    -0.129 C  
HETATM   24  C   UNL     1     -11.177  15.482  65.773  1.00  0.00    -0.133 C  
HETATM   25  C   UNL     1      -9.850  16.244  65.705  1.00  0.00    -0.332 C  
BRANCH  20  26
HETATM   26  C   UNL     1      -7.662  13.582  67.532  1.00  0.00    -0.175 C  
HETATM   27  N   UNL     1      -7.981  12.791  68.719  1.00  0.00    -0.326 NA 
HETATM   28  H2  UNL     1      -8.812  12.223  68.551  1.00  0.00     0.000 HD 
HETATM   29  H1  UNL     1      -7.221  12.206  69.066  1.00  0.00     0.000 HD 
ENDBRANCH  20  26
ENDBRANCH  16  17
ENDBRANCH   8  16
BRANCH  10  30
HETATM   30  O   UNL     1     -10.591   8.442  67.689  1.00  0.00    -0.243 OA 
BRANCH  30  31
HETATM   31  C   UNL     1      -9.678   7.613  68.432  1.00  0.00    -0.158 C  
HETATM   32  O   UNL     1     -11.231   5.727  68.165  1.00  0.00    -0.130 OA 
HETATM   33  C   UNL     1     -10.188   7.622  71.321  1.00  0.00    -0.187 C  
HETATM   34  C   UNL     1     -10.290   6.317  69.078  1.00  0.00    -0.206 C  
HETATM   35  O   UNL     1      -9.006   8.404  69.400  1.00  0.00    -0.150 OA 
HETATM   36  O   UNL     1      -8.926   7.160  71.846  1.00  0.00    -0.128 OA 
HETATM   37  C   UNL     1     -10.901   6.482  70.507  1.00  0.00    -0.271 C  
HETATM   38  H   UNL     1      -9.091   6.414  72.412  1.00  0.00     0.000 HD 
HETATM   39  C   UNL     1     -11.014   8.079  72.525  1.00  0.00    -0.430 C  
HETATM   40  H   UNL     1     -11.601   4.944  68.556  1.00  0.00     0.000 HD 
HETATM   41  C   UNL     1      -9.923   8.816  70.413  1.00  0.00    -0.189 C  
BRANCH  37  42
HETATM   42  N   UNL     1     -10.858   5.237  71.327  1.00  0.00    -0.134 NA 
HETATM   43  H   UNL     1     -11.381   5.182  72.202  1.00  0.00     0.000 HD 
HETATM   44  C   UNL     1     -10.075   4.112  70.880  1.00  0.00    -0.049 C  
ENDBRANCH  37  42
ENDBRANCH  30  31
ENDBRANCH  10  30
ENDBRANCH   3   5
ENDBRANCH   2   3
TORSDOF 8
ENDMDL
MODEL      119
REMARK 921   NORMALIZED FREE ENERGY PREDICTED BY IDOCK:   -5.38 KCAL/MOL
REMARK 922        TOTAL FREE ENERGY PREDICTED BY IDOCK:   -8.63 KCAL/MOL
REMARK 923 INTER-LIGAND FREE ENERGY PREDICTED BY IDOCK:   -7.78 KCAL/MOL
REMARK 924 INTRA-LIGAND FREE ENERGY PREDICTED BY IDOCK:   -0.85 KCAL/MOL
REMARK 927      BINDING AFFINITY PREDICTED BY RF-SCORE:    0.00 PKD
ROOT
HETATM    1  C   UNL     1      -7.351  10.843  68.560  1.00  0.00    -0.098 C  
HETATM    2  C   UNL     1      -6.455  12.073  68.518  1.00  0.00    -0.058 C  
ENDROOT
BRANCH   2   3
HETATM    3  N   UNL     1      -6.887  13.049  69.524  1.00  0.00    -0.325 NA 
HETATM    4  H   UNL     1      -6.422  12.864  70.412  1.00  0.00     0.000 HD 
BRANCH   3   5
HETATM    5  C   UNL     1      -6.714  14.478  69.145  1.00  0.00    -0.115 C  
HETATM    6  C   UNL     1      -6.087  15.291  70.288  1.00  0.00    -0.111 C  
HETATM    7  C   UNL     1      -5.862  16.753  69.890  1.00  0.00    -0.220 C  
HETATM    8  C   UNL     1      -7.216  17.445  69.573  1.00  0.00     0.136 C  
HETATM    9  N   UNL     1      -5.146  17.427  70.992  1.00  0.00    -0.379 NA 
HETATM   10  C   UNL     1      -8.014  15.111  68.571  1.00  0.00    -0.142 C  
HETATM   11  H2  UNL     1      -4.280  16.952  71.248  1.00  0.00     0.000 HD 
HETATM   12  H1  UNL     1      -4.996  18.400  70.728  1.00  0.00     0.000 HD 
HETATM   13  C   UNL     1      -8.030  16.652  68.517  1.00  0.00    -0.224 C  
HETATM   14  H   UNL     1      -9.934  16.524  67.925  1.00  0.00     0.000 HD 
HETATM   15  O   UNL     1      -9.435  17.010  68.571  1.00  0.00    -0.252 OA 
BRANCH   8  16
HETATM   16  O   UNL     1      -6.941  18.801  69.092  1.00  0.00    -0.295 OA 
BRANCH  16  17
HETATM   17  C   UNL     1      -6.410  18.860  67.749  1.00  0.00    -0.209 C  
HETATM   18  H1  UNL     1      -4.512  21.662  68.532  1.00  0.00     0.000 HD 
HETATM   19  O   UNL     1      -7.471  18.669  66.805  1.00  0.00    -0.213 OA 
HETATM   20  C   UNL     1      -8.033  19.807  66.270  1.00  0.00    -0.332 C  
HETATM   21  H2  UNL     1      -4.796  20.292  69.450  1.00  0.00     0.000 HD 
HETATM   22  N   UNL     1      -5.147  20.880  68.694  1.00  0.00    -0.278 NA 
HETATM   23  C   UNL     1      -7.280  20.880  65.994  1.00  0.00     0.087 C  
HETATM   24  C   UNL     1      -5.436  20.061  67.500  1.00  0.00    -0.172 C  
HETATM   25  C   UNL     1      -5.815  20.882  66.263  1.00  0.00    -0.274 C  
BRANCH  20  26
HETATM   26  C   UNL     1      -9.510  19.667  65.981  1.00  0.00    -0.292 C  
HETATM   27  N   UNL     1     -10.370  19.621  67.161  1.00  0.00    -0.426 NA 
HETATM   28  H2  UNL     1     -10.202  20.437  67.750  1.00  0.00     0.000 HD 
HETATM   29  H1  UNL     1     -11.367  19.527  66.966  1.00  0.00     0.000 HD 
ENDBRANCH  20  26
ENDBRANCH  16  17
ENDBRANCH   8  16
BRANCH  10  30
HETATM   30  O   UNL     1      -8.473  14.490  67.319  1.00  0.00    -0.191 OA 
BRANCH  30  31
HETATM   31  C   UNL     1      -9.687  13.718  67.382  1.00  0.00    -0.235 C  
HETATM   32  O   UNL     1      -8.687  12.086  65.841  1.00  0.00    -0.401 OA 
HETATM   33  C   UNL     1     -11.644  14.459  65.326  1.00  0.00    -0.353 C  
HETATM   34  C   UNL     1      -9.930  12.714  66.198  1.00  0.00    -0.261 C  
HETATM   35  O   UNL     1     -10.792  14.593  67.552  1.00  0.00    -0.274 OA 
HETATM   36  O   UNL     1     -12.869  13.937  65.881  1.00  0.00    -0.472 OA 
HETATM   37  C   UNL     1     -10.665  13.290  64.945  1.00  0.00    -0.351 C  
HETATM   38  H   UNL     1     -13.277  13.374  65.233  1.00  0.00     0.000 HD 
HETATM   39  C   UNL     1     -12.045  15.299  64.112  1.00  0.00    -0.146 C  
HETATM   40  H   UNL     1      -8.835  11.479  65.125  1.00  0.00     0.000 HD 
HETATM   41  C   UNL     1     -10.991  15.361  66.365  1.00  0.00    -0.277 C  
BRANCH  37  42
HETATM   42  N   UNL     1     -11.442  12.272  64.181  1.00  0.00    -0.355 NA 
HETATM   43  H   UNL     1     -12.460  12.254  64.242  1.00  0.00     0.000 HD 
HETATM   44  C   UNL     1     -10.749  11.312  63.358  1.00  0.00    -0.274 C  
ENDBRANCH  37  42
ENDBRANCH  30  31
ENDBRANCH  10  30
ENDBRANCH   3   5
ENDBRANCH   2   3
TORSDOF 8
ENDMDL
MODEL      120
REMARK 921   NORMALIZED FREE ENERGY PREDICTED BY IDOCK:   -5.34 KCAL/MOL
REMARK 922        TOTAL FREE ENERGY PREDICTED BY IDOCK:   -8.58 KCAL/MOL
REMARK 923 INTER-LIGAND FREE ENERGY PREDICTED BY IDOCK:   -6.72 KCAL/MOL
REMARK 924 INTRA-LIGAND FREE ENERGY PREDICTED BY IDOCK:   -1.86 KCAL/MOL
REMARK 927      BINDING AFFINITY PREDICTED BY RF-SCORE:    0.00 PKD
ROOT
HETATM    1  C   UNL     1      -6.070   9.592  71.277  1.00  0.00    -0.057 C  
HETATM    2  C   UNL     1      -6.599  10.519  70.192  1.00  0.00    -0.149 C  
ENDROOT
BRANCH   2   3
HETATM    3  N   UNL     1      -8.050  10.365  70.057  1.00  0.00    -0.346 NA 
HETATM    4  H   UNL     1      -8.503  11.279  70.081  1.00  0.00     0.000 HD 
BRANCH   3   5
HETATM    5  C   UNL     1      -8.504   9.602  68.861  1.00  0.00    -0.125 C  
HETATM    6  C   UNL     1      -8.191   8.105  68.997  1.00  0.00    -0.127 C  
HETATM    7  C   UNL     1      -8.697   7.306  67.792  1.00  0.00    -0.126 C  
HETATM    8  C   UNL     1      -7.982   7.770  66.493  1.00  0.00    -0.106 C  
HETATM    9  N   UNL     1      -8.470   5.871  68.059  1.00  0.00    -0.111 NA 
HETATM   10  C   UNL     1      -8.004  10.224  67.525  1.00  0.00    -0.106 C  
HETATM   11  H2  UNL     1      -8.888   5.564  68.938  1.00  0.00     0.000 HD 
HETATM   12  H1  UNL     1      -8.806   5.339  67.257  1.00  0.00     0.000 HD 
HETATM   13  C   UNL     1      -8.100   9.304  66.292  1.00  0.00    -0.107 C  
HETATM   14  H   UNL     1      -7.147  10.728  65.264  1.00  0.00     0.000 HD 
HETATM   15  O   UNL     1      -7.075   9.789  65.387  1.00  0.00    -0.101 OA 
BRANCH   8  16
HETATM   16  O   UNL     1      -8.575   7.060  65.358  1.00  0.00    -0.126 OA 
BRANCH  16  17
HETATM   17  C   UNL     1      -7.682   6.128  64.705  1.00  0.00    -0.099 C  
HETATM   18  H1  UNL     1      -8.126   7.716  61.648  1.00  0.00     0.000 HD 
HETATM   19  O   UNL     1      -7.986   4.794  65.132  1.00  0.00    -0.093 OA 
HETATM   20  C   UNL     1      -8.810   4.056  64.311  1.00  0.00    -0.130 C  
HETATM   21  H2  UNL     1      -7.950   8.390  63.169  1.00  0.00     0.000 HD 
HETATM   22  N   UNL     1      -8.230   7.558  62.650  1.00  0.00    -0.101 NA 
HETATM   23  C   UNL     1      -8.732   4.170  62.979  1.00  0.00    -0.109 C  
HETATM   24  C   UNL     1      -7.522   6.370  63.166  1.00  0.00    -0.072 C  
HETATM   25  C   UNL     1      -7.759   5.101  62.341  1.00  0.00    -0.066 C  
BRANCH  20  26
HETATM   26  C   UNL     1      -9.708   3.102  65.065  1.00  0.00    -0.048 C  
HETATM   27  N   UNL     1      -9.604   3.175  66.521  1.00  0.00    -0.409 NA 
HETATM   28  H2  UNL     1      -9.762   4.131  66.838  1.00  0.00     0.000 HD 
HETATM   29  H1  UNL     1     -10.210   2.531  67.030  1.00  0.00     0.000 HD 
ENDBRANCH  20  26
ENDBRANCH  16  17
ENDBRANCH   8  16
BRANCH  10  30
HETATM   30  O   UNL     1      -8.522  11.577  67.271  1.00  0.00    -0.141 OA 
BRANCH  30  31
HETATM   31  C   UNL     1      -9.915  11.687  66.923  1.00  0.00    -0.202 C  
HETATM   32  O   UNL     1      -9.269  11.954  64.567  1.00  0.00    -0.418 OA 
HETATM   33  C   UNL     1     -10.909  14.446  66.962  1.00  0.00    -0.297 C  
HETATM   34  C   UNL     1     -10.232  12.377  65.547  1.00  0.00    -0.274 C  
HETATM   35  O   UNL     1     -10.617  12.311  67.988  1.00  0.00    -0.204 OA 
HETATM   36  O   UNL     1     -12.334  14.247  67.071  1.00  0.00    -0.579 OA 
HETATM   37  C   UNL     1     -10.381  13.932  65.575  1.00  0.00    -0.333 C  
HETATM   38  H   UNL     1     -12.759  14.724  66.367  1.00  0.00     0.000 HD 
HETATM   39  C   UNL     1     -10.668  15.945  67.156  1.00  0.00    -0.301 C  
HETATM   40  H   UNL     1      -9.461  12.371  63.736  1.00  0.00     0.000 HD 
HETATM   41  C   UNL     1     -10.229  13.681  68.089  1.00  0.00    -0.247 C  
BRANCH  37  42
HETATM   42  N   UNL     1     -11.280  14.470  64.513  1.00  0.00    -0.587 NA 
HETATM   43  H   UNL     1     -11.282  15.467  64.300  1.00  0.00     0.000 HD 
HETATM   44  C   UNL     1     -12.150  13.574  63.791  1.00  0.00    -0.425 C  
ENDBRANCH  37  42
ENDBRANCH  30  31
ENDBRANCH  10  30
ENDBRANCH   3   5
ENDBRANCH   2   3
TORSDOF 8
ENDMDL
MODEL      121
REMARK 921   NORMALIZED FREE ENERGY PREDICTED BY IDOCK:   -5.33 KCAL/MOL
REMARK 922        TOTAL FREE ENERGY PREDICTED BY IDOCK:   -8.56 KCAL/MOL
REMARK 923 INTER-LIGAND FREE ENERGY PREDICTED BY IDOCK:   -7.66 KCAL/MOL
REMARK 924 INTRA-LIGAND FREE ENERGY PREDICTED BY IDOCK:   -0.90 KCAL/MOL
REMARK 927      BINDING AFFINITY PREDICTED BY RF-SCORE:    0.00 PKD
ROOT
HETATM    1  C   UNL     1      -8.483  10.926  62.366  1.00  0.00    -0.323 C  
HETATM    2  C   UNL     1      -8.739  10.504  63.807  1.00  0.00    -0.180 C  
ENDROOT
BRANCH   2   3
HETATM    3  N   UNL     1     -10.169  10.258  64.015  1.00  0.00    -0.461 NA 
HETATM    4  H   UNL     1     -10.344   9.255  64.089  1.00  0.00     0.000 HD 
BRANCH   3   5
HETATM    5  C   UNL     1     -10.779  10.968  65.174  1.00  0.00    -0.183 C  
HETATM    6  C   UNL     1     -11.403  12.305  64.748  1.00  0.00    -0.371 C  
HETATM    7  C   UNL     1     -12.073  13.020  65.925  1.00  0.00    -0.444 C  
HETATM    8  C   UNL     1     -11.025  13.373  67.016  1.00  0.00    -0.287 C  
HETATM    9  N   UNL     1     -12.752  14.227  65.407  1.00  0.00    -0.559 NA 
HETATM   10  C   UNL     1      -9.808  11.091  66.383  1.00  0.00    -0.212 C  
HETATM   11  H2  UNL     1     -13.404  14.017  64.651  1.00  0.00     0.000 HD 
HETATM   12  H1  UNL     1     -13.198  14.703  66.190  1.00  0.00     0.000 HD 
HETATM   13  C   UNL     1     -10.213  12.125  67.453  1.00  0.00    -0.198 C  
HETATM   14  H   UNL     1      -8.469  11.749  68.352  1.00  0.00     0.000 HD 
HETATM   15  O   UNL     1      -8.966  12.512  68.084  1.00  0.00    -0.191 OA 
BRANCH   8  16
HETATM   16  O   UNL     1     -11.727  13.951  68.163  1.00  0.00    -0.313 OA 
BRANCH  16  17
HETATM   17  C   UNL     1     -10.898  14.149  69.331  1.00  0.00    -0.136 C  
HETATM   18  H1  UNL     1     -13.641  13.831  71.438  1.00  0.00     0.000 HD 
HETATM   19  O   UNL     1     -10.002  15.243  69.102  1.00  0.00    -0.215 OA 
HETATM   20  C   UNL     1     -10.391  16.472  69.589  1.00  0.00    -0.221 C  
HETATM   21  H2  UNL     1     -13.263  12.956  70.063  1.00  0.00     0.000 HD 
HETATM   22  N   UNL     1     -13.127  13.838  70.557  1.00  0.00    -0.058 NA 
HETATM   23  C   UNL     1     -11.047  16.572  70.752  1.00  0.00    -0.014 C  
HETATM   24  C   UNL     1     -11.687  14.138  70.684  1.00  0.00    -0.193 C  
HETATM   25  C   UNL     1     -11.384  15.363  71.553  1.00  0.00    -0.461 C  
BRANCH  20  26
HETATM   26  C   UNL     1      -9.940  17.628  68.727  1.00  0.00    -0.358 C  
HETATM   27  N   UNL     1     -10.985  18.594  68.391  1.00  0.00    -0.105 NA 
HETATM   28  H2  UNL     1     -11.429  18.941  69.241  1.00  0.00     0.000 HD 
HETATM   29  H1  UNL     1     -10.680  19.374  67.809  1.00  0.00     0.000 HD 
ENDBRANCH  20  26
ENDBRANCH  16  17
ENDBRANCH   8  16
BRANCH  10  30
HETATM   30  O   UNL     1      -9.412   9.797  66.959  1.00  0.00    -0.149 OA 
BRANCH  30  31
HETATM   31  C   UNL     1     -10.450   9.018  67.584  1.00  0.00    -0.260 C  
HETATM   32  O   UNL     1      -9.679   9.815  69.777  1.00  0.00    -0.202 OA 
HETATM   33  C   UNL     1      -9.603   6.296  68.278  1.00  0.00    -0.119 C  
HETATM   34  C   UNL     1     -10.238   8.675  69.103  1.00  0.00    -0.208 C  
HETATM   35  O   UNL     1     -10.683   7.846  66.818  1.00  0.00    -0.304 OA 
HETATM   36  O   UNL     1     -10.868   5.616  68.410  1.00  0.00    -0.204 OA 
HETATM   37  C   UNL     1      -9.430   7.372  69.409  1.00  0.00    -0.155 C  
HETATM   38  H   UNL     1     -10.896   5.195  69.262  1.00  0.00     0.000 HD 
HETATM   39  C   UNL     1      -8.524   5.213  68.338  1.00  0.00    -0.095 C  
HETATM   40  H   UNL     1      -9.550   9.607  70.695  1.00  0.00     0.000 HD 
HETATM   41  C   UNL     1      -9.559   6.971  66.913  1.00  0.00    -0.168 C  
BRANCH  37  42
HETATM   42  N   UNL     1      -9.788   6.733  70.709  1.00  0.00    -0.183 NA 
HETATM   43  H   UNL     1     -10.745   6.421  70.879  1.00  0.00     0.000 HD 
HETATM   44  C   UNL     1      -8.779   6.559  71.724  1.00  0.00    -0.131 C  
ENDBRANCH  37  42
ENDBRANCH  30  31
ENDBRANCH  10  30
ENDBRANCH   3   5
ENDBRANCH   2   3
TORSDOF 8
ENDMDL
MODEL      122
REMARK 921   NORMALIZED FREE ENERGY PREDICTED BY IDOCK:   -5.31 KCAL/MOL
REMARK 922        TOTAL FREE ENERGY PREDICTED BY IDOCK:   -8.54 KCAL/MOL
REMARK 923 INTER-LIGAND FREE ENERGY PREDICTED BY IDOCK:   -8.33 KCAL/MOL
REMARK 924 INTRA-LIGAND FREE ENERGY PREDICTED BY IDOCK:   -0.21 KCAL/MOL
REMARK 927      BINDING AFFINITY PREDICTED BY RF-SCORE:    0.00 PKD
ROOT
HETATM    1  C   UNL     1      -5.381  13.875  68.925  1.00  0.00    -0.071 C  
HETATM    2  C   UNL     1      -5.854  12.458  68.630  1.00  0.00    -0.054 C  
ENDROOT
BRANCH   2   3
HETATM    3  N   UNL     1      -7.251  12.473  68.185  1.00  0.00    -0.096 NA 
HETATM    4  H   UNL     1      -7.297  12.342  67.174  1.00  0.00     0.000 HD 
BRANCH   3   5
HETATM    5  C   UNL     1      -8.150  11.502  68.866  1.00  0.00    -0.035 C  
HETATM    6  C   UNL     1      -7.358  10.341  69.486  1.00  0.00    -0.132 C  
HETATM    7  C   UNL     1      -8.271   9.362  70.230  1.00  0.00    -0.175 C  
HETATM    8  C   UNL     1      -9.280   8.706  69.248  1.00  0.00    -0.150 C  
HETATM    9  N   UNL     1      -7.422   8.354  70.898  1.00  0.00    -0.060 NA 
HETATM   10  C   UNL     1      -9.330  11.038  67.964  1.00  0.00    -0.163 C  
HETATM   11  H2  UNL     1      -6.717   8.773  71.505  1.00  0.00     0.000 HD 
HETATM   12  H1  UNL     1      -8.029   7.702  71.393  1.00  0.00     0.000 HD 
HETATM   13  C   UNL     1     -10.069   9.772  68.442  1.00  0.00    -0.166 C  
HETATM   14  H   UNL     1     -11.118   9.849  66.744  1.00  0.00     0.000 HD 
HETATM   15  O   UNL     1     -10.635   9.197  67.237  1.00  0.00    -0.271 OA 
BRANCH   8  16
HETATM   16  O   UNL     1     -10.199   7.867  70.019  1.00  0.00    -0.200 OA 
BRANCH  16  17
HETATM   17  C   UNL     1     -10.526   8.389  71.328  1.00  0.00    -0.216 C  
HETATM   18  H1  UNL     1     -12.279   5.501  72.135  1.00  0.00     0.000 HD 
HETATM   19  O   UNL     1     -10.951   9.752  71.207  1.00  0.00    -0.351 OA 
HETATM   20  C   UNL     1     -12.310   9.972  71.152  1.00  0.00    -0.377 C  
HETATM   21  H2  UNL     1     -10.829   5.658  71.315  1.00  0.00     0.000 HD 
HETATM   22  N   UNL     1     -11.699   6.124  71.573  1.00  0.00    -0.261 NA 
HETATM   23  C   UNL     1     -13.155   9.227  71.877  1.00  0.00    -0.490 C  
HETATM   24  C   UNL     1     -11.416   7.434  72.192  1.00  0.00    -0.282 C  
HETATM   25  C   UNL     1     -12.657   8.133  72.756  1.00  0.00    -0.003 C  
BRANCH  20  26
HETATM   26  C   UNL     1     -12.693  11.145  70.280  1.00  0.00    -0.139 C  
HETATM   27  N   UNL     1     -11.828  12.316  70.403  1.00  0.00    -0.532 NA 
HETATM   28  H2  UNL     1     -10.856  12.055  70.236  1.00  0.00     0.000 HD 
HETATM   29  H1  UNL     1     -12.086  13.108  69.814  1.00  0.00     0.000 HD 
ENDBRANCH  20  26
ENDBRANCH  16  17
ENDBRANCH   8  16
BRANCH  10  30
HETATM   30  O   UNL     1     -10.245  12.124  67.581  1.00  0.00    -0.193 OA 
BRANCH  30  31
HETATM   31  C   UNL     1      -9.844  12.953  66.474  1.00  0.00    -0.254 C  
HETATM   32  O   UNL     1     -11.425  14.674  67.236  1.00  0.00    -0.346 OA 
HETATM   33  C   UNL     1     -11.462  12.537  64.063  1.00  0.00    -0.409 C  
HETATM   34  C   UNL     1     -10.851  14.085  66.057  1.00  0.00    -0.295 C  
HETATM   35  O   UNL     1      -9.506  12.130  65.368  1.00  0.00    -0.158 OA 
HETATM   36  O   UNL     1     -10.603  13.069  63.033  1.00  0.00    -0.227 OA 
HETATM   37  C   UNL     1     -11.952  13.681  65.023  1.00  0.00    -0.378 C  
HETATM   38  H   UNL     1     -11.092  13.717  62.539  1.00  0.00     0.000 HD 
HETATM   39  C   UNL     1     -12.623  11.848  63.342  1.00  0.00    -0.555 C  
HETATM   40  H   UNL     1     -12.033  15.358  66.984  1.00  0.00     0.000 HD 
HETATM   41  C   UNL     1     -10.679  11.498  64.855  1.00  0.00    -0.297 C  
BRANCH  37  42
HETATM   42  N   UNL     1     -12.430  14.814  64.179  1.00  0.00    -0.912 NA 
HETATM   43  H   UNL     1     -13.246  14.696  63.578  1.00  0.00     0.000 HD 
HETATM   44  C   UNL     1     -11.735  16.077  64.216  1.00  0.00    -0.081 C  
ENDBRANCH  37  42
ENDBRANCH  30  31
ENDBRANCH  10  30
ENDBRANCH   3   5
ENDBRANCH   2   3
TORSDOF 8
ENDMDL
MODEL      123
REMARK 921   NORMALIZED FREE ENERGY PREDICTED BY IDOCK:   -5.30 KCAL/MOL
REMARK 922        TOTAL FREE ENERGY PREDICTED BY IDOCK:   -8.52 KCAL/MOL
REMARK 923 INTER-LIGAND FREE ENERGY PREDICTED BY IDOCK:   -7.62 KCAL/MOL
REMARK 924 INTRA-LIGAND FREE ENERGY PREDICTED BY IDOCK:   -0.90 KCAL/MOL
REMARK 927      BINDING AFFINITY PREDICTED BY RF-SCORE:    0.00 PKD
ROOT
HETATM    1  C   UNL     1     -10.746   5.360  66.442  1.00  0.00    -0.284 C  
HETATM    2  C   UNL     1     -10.091   6.166  67.556  1.00  0.00    -0.158 C  
ENDROOT
BRANCH   2   3
HETATM    3  N   UNL     1     -11.112   6.689  68.469  1.00  0.00    -0.504 NA 
HETATM    4  H   UNL     1     -11.239   6.049  69.254  1.00  0.00     0.000 HD 
BRANCH   3   5
HETATM    5  C   UNL     1     -10.874   8.070  68.971  1.00  0.00     0.003 C  
HETATM    6  C   UNL     1     -11.707   8.363  70.228  1.00  0.00     0.108 C  
HETATM    7  C   UNL     1     -11.433   9.766  70.778  1.00  0.00    -0.342 C  
HETATM    8  C   UNL     1     -11.842  10.847  69.740  1.00  0.00    -0.345 C  
HETATM    9  N   UNL     1     -12.173   9.918  72.048  1.00  0.00    -0.243 NA 
HETATM   10  C   UNL     1     -11.023   9.149  67.860  1.00  0.00     0.031 C  
HETATM   11  H2  UNL     1     -11.955   9.183  72.720  1.00  0.00     0.000 HD 
HETATM   12  H1  UNL     1     -11.991  10.852  72.414  1.00  0.00     0.000 HD 
HETATM   13  C   UNL     1     -11.172  10.599  68.362  1.00  0.00    -0.288 C  
HETATM   14  H   UNL     1     -11.482  11.133  66.462  1.00  0.00     0.000 HD 
HETATM   15  O   UNL     1     -11.891  11.285  67.306  1.00  0.00    -0.562 OA 
BRANCH   8  16
HETATM   16  O   UNL     1     -11.459  12.160  70.263  1.00  0.00    -0.120 OA 
BRANCH  16  17
HETATM   17  C   UNL     1     -12.336  13.239  69.864  1.00  0.00    -0.163 C  
HETATM   18  H1  UNL     1      -9.751  14.826  68.172  1.00  0.00     0.000 HD 
HETATM   19  O   UNL     1     -13.128  13.651  70.985  1.00  0.00    -0.271 OA 
HETATM   20  C   UNL     1     -12.671  14.739  71.696  1.00  0.00    -0.330 C  
HETATM   21  H2  UNL     1     -10.119  13.195  68.242  1.00  0.00     0.000 HD 
HETATM   22  N   UNL     1     -10.212  14.095  68.713  1.00  0.00    -0.233 NA 
HETATM   23  C   UNL     1     -12.077  15.765  71.074  1.00  0.00    -0.464 C  
HETATM   24  C   UNL     1     -11.629  14.361  69.033  1.00  0.00    -0.296 C  
HETATM   25  C   UNL     1     -11.883  15.763  69.597  1.00  0.00    -0.352 C  
BRANCH  20  26
HETATM   26  C   UNL     1     -12.979  14.660  73.174  1.00  0.00    -0.500 C  
HETATM   27  N   UNL     1     -13.072  15.949  73.856  1.00  0.00    -0.843 NA 
HETATM   28  H2  UNL     1     -13.751  16.548  73.386  1.00  0.00     0.000 HD 
HETATM   29  H1  UNL     1     -13.279  15.896  74.853  1.00  0.00     0.000 HD 
ENDBRANCH  20  26
ENDBRANCH  16  17
ENDBRANCH   8  16
BRANCH  10  30
HETATM   30  O   UNL     1     -10.042   9.018  66.772  1.00  0.00    -0.232 OA 
BRANCH  30  31
HETATM   31  C   UNL     1      -9.019  10.029  66.694  1.00  0.00    -0.139 C  
HETATM   32  O   UNL     1      -9.436  10.214  64.279  1.00  0.00    -0.274 OA 
HETATM   33  C   UNL     1      -6.350   8.939  66.147  1.00  0.00    -0.064 C  
HETATM   34  C   UNL     1      -8.398  10.275  65.271  1.00  0.00    -0.163 C  
HETATM   35  O   UNL     1      -8.012   9.752  67.655  1.00  0.00    -0.104 OA 
HETATM   36  O   UNL     1      -5.495  10.013  66.590  1.00  0.00    -0.044 OA 
HETATM   37  C   UNL     1      -7.180   9.375  64.885  1.00  0.00    -0.106 C  
HETATM   38  H   UNL     1      -4.906  10.241  65.880  1.00  0.00     0.000 HD 
HETATM   39  C   UNL     1      -5.433   7.750  65.855  1.00  0.00    -0.029 C  
HETATM   40  H   UNL     1      -9.061  10.363  63.419  1.00  0.00     0.000 HD 
HETATM   41  C   UNL     1      -7.295   8.575  67.285  1.00  0.00    -0.088 C  
BRANCH  37  42
HETATM   42  N   UNL     1      -6.242  10.014  63.918  1.00  0.00    -0.126 NA 
HETATM   43  H   UNL     1      -5.732  10.858  64.180  1.00  0.00     0.000 HD 
HETATM   44  C   UNL     1      -6.058   9.435  62.610  1.00  0.00    -0.093 C  
ENDBRANCH  37  42
ENDBRANCH  30  31
ENDBRANCH  10  30
ENDBRANCH   3   5
ENDBRANCH   2   3
TORSDOF 8
ENDMDL
MODEL      124
REMARK 921   NORMALIZED FREE ENERGY PREDICTED BY IDOCK:   -5.29 KCAL/MOL
REMARK 922        TOTAL FREE ENERGY PREDICTED BY IDOCK:   -8.51 KCAL/MOL
REMARK 923 INTER-LIGAND FREE ENERGY PREDICTED BY IDOCK:   -8.80 KCAL/MOL
REMARK 924 INTRA-LIGAND FREE ENERGY PREDICTED BY IDOCK:    0.29 KCAL/MOL
REMARK 927      BINDING AFFINITY PREDICTED BY RF-SCORE:    0.00 PKD
ROOT
HETATM    1  C   UNL     1     -10.186   4.712  66.048  1.00  0.00    -0.306 C  
HETATM    2  C   UNL     1      -9.077   4.977  67.056  1.00  0.00    -0.117 C  
ENDROOT
BRANCH   2   3
HETATM    3  N   UNL     1      -8.406   6.244  66.750  1.00  0.00    -0.109 NA 
HETATM    4  H   UNL     1      -7.840   6.145  65.907  1.00  0.00     0.000 HD 
BRANCH   3   5
HETATM    5  C   UNL     1      -9.300   7.428  66.627  1.00  0.00    -0.170 C  
HETATM    6  C   UNL     1      -8.768   8.429  65.590  1.00  0.00    -0.204 C  
HETATM    7  C   UNL     1      -9.707   9.628  65.423  1.00  0.00    -0.295 C  
HETATM    8  C   UNL     1      -9.819  10.420  66.754  1.00  0.00    -0.195 C  
HETATM    9  N   UNL     1      -9.189  10.471  64.325  1.00  0.00    -0.224 NA 
HETATM   10  C   UNL     1      -9.635   8.075  68.001  1.00  0.00    -0.152 C  
HETATM   11  H2  UNL     1      -9.058   9.951  63.458  1.00  0.00     0.000 HD 
HETATM   12  H1  UNL     1      -9.813  11.269  64.214  1.00  0.00     0.000 HD 
HETATM   13  C   UNL     1     -10.224   9.499  67.935  1.00  0.00    -0.205 C  
HETATM   14  H   UNL     1     -10.122   9.539  69.930  1.00  0.00     0.000 HD 
HETATM   15  O   UNL     1      -9.874  10.103  69.207  1.00  0.00    -0.197 OA 
BRANCH   8  16
HETATM   16  O   UNL     1     -10.808  11.486  66.577  1.00  0.00    -0.266 OA 
BRANCH  16  17
HETATM   17  C   UNL     1     -10.319  12.810  66.890  1.00  0.00    -0.238 C  
HETATM   18  H1  UNL     1     -11.998  12.804  69.930  1.00  0.00     0.000 HD 
HETATM   19  O   UNL     1     -10.450  13.653  65.738  1.00  0.00    -0.280 OA 
HETATM   20  C   UNL     1     -11.572  14.449  65.680  1.00  0.00    -0.347 C  
HETATM   21  H2  UNL     1     -11.156  11.562  69.190  1.00  0.00     0.000 HD 
HETATM   22  N   UNL     1     -11.661  12.436  69.041  1.00  0.00    -0.290 NA 
HETATM   23  C   UNL     1     -12.078  15.004  66.789  1.00  0.00     0.125 C  
HETATM   24  C   UNL     1     -10.837  13.376  68.255  1.00  0.00    -0.256 C  
HETATM   25  C   UNL     1     -11.451  14.773  68.120  1.00  0.00    -0.343 C  
BRANCH  20  26
HETATM   26  C   UNL     1     -12.082  14.664  64.274  1.00  0.00    -0.415 C  
HETATM   27  N   UNL     1     -12.034  16.046  63.802  1.00  0.00    -1.339 NA 
HETATM   28  H2  UNL     1     -11.088  16.416  63.893  1.00  0.00     0.000 HD 
HETATM   29  H1  UNL     1     -12.378  16.191  62.853  1.00  0.00     0.000 HD 
ENDBRANCH  20  26
ENDBRANCH  16  17
ENDBRANCH   8  16
BRANCH  10  30
HETATM   30  O   UNL     1     -10.382   7.189  68.907  1.00  0.00    -0.185 OA 
BRANCH  30  31
HETATM   31  C   UNL     1     -10.147   7.353  70.318  1.00  0.00    -0.197 C  
HETATM   32  O   UNL     1      -9.930   4.914  70.529  1.00  0.00    -0.207 OA 
HETATM   33  C   UNL     1     -12.602   7.270  71.923  1.00  0.00    -0.291 C  
HETATM   34  C   UNL     1     -10.402   6.086  71.213  1.00  0.00    -0.215 C  
HETATM   35  O   UNL     1     -10.880   8.474  70.789  1.00  0.00    -0.220 OA 
HETATM   36  O   UNL     1     -12.181   7.917  73.142  1.00  0.00    -0.601 OA 
HETATM   37  C   UNL     1     -11.862   5.896  71.739  1.00  0.00    -0.016 C  
HETATM   38  H   UNL     1     -12.383   7.342  73.872  1.00  0.00     0.000 HD 
HETATM   39  C   UNL     1     -14.120   7.103  72.025  1.00  0.00    -0.290 C  
HETATM   40  H   UNL     1     -10.084   4.149  71.070  1.00  0.00     0.000 HD 
HETATM   41  C   UNL     1     -12.279   8.191  70.753  1.00  0.00    -0.002 C  
BRANCH  37  42
HETATM   42  N   UNL     1     -11.945   5.154  73.030  1.00  0.00    -0.458 NA 
HETATM   43  H   UNL     1     -12.854   4.896  73.415  1.00  0.00     0.000 HD 
HETATM   44  C   UNL     1     -10.736   4.804  73.733  1.00  0.00    -0.295 C  
ENDBRANCH  37  42
ENDBRANCH  30  31
ENDBRANCH  10  30
ENDBRANCH   3   5
ENDBRANCH   2   3
TORSDOF 8
ENDMDL
MODEL      125
REMARK 921   NORMALIZED FREE ENERGY PREDICTED BY IDOCK:   -5.29 KCAL/MOL
REMARK 922        TOTAL FREE ENERGY PREDICTED BY IDOCK:   -8.50 KCAL/MOL
REMARK 923 INTER-LIGAND FREE ENERGY PREDICTED BY IDOCK:   -7.69 KCAL/MOL
REMARK 924 INTRA-LIGAND FREE ENERGY PREDICTED BY IDOCK:   -0.81 KCAL/MOL
REMARK 927      BINDING AFFINITY PREDICTED BY RF-SCORE:    0.00 PKD
ROOT
HETATM    1  C   UNL     1      -9.542   5.418  71.172  1.00  0.00    -0.214 C  
HETATM    2  C   UNL     1      -9.686   6.927  71.311  1.00  0.00    -0.172 C  
ENDROOT
BRANCH   2   3
HETATM    3  N   UNL     1     -10.699   7.428  70.377  1.00  0.00    -0.232 NA 
HETATM    4  H   UNL     1     -11.550   6.871  70.454  1.00  0.00     0.000 HD 
BRANCH   3   5
HETATM    5  C   UNL     1     -11.023   8.876  70.500  1.00  0.00    -0.241 C  
HETATM    6  C   UNL     1     -12.353   9.093  71.237  1.00  0.00    -0.382 C  
HETATM    7  C   UNL     1     -12.672  10.582  71.410  1.00  0.00    -0.442 C  
HETATM    8  C   UNL     1     -12.839  11.266  70.025  1.00  0.00     0.113 C  
HETATM    9  N   UNL     1     -13.894  10.701  72.231  1.00  0.00    -0.288 NA 
HETATM   10  C   UNL     1     -10.932   9.631  69.143  1.00  0.00    -0.151 C  
HETATM   11  H2  UNL     1     -13.818  10.210  73.122  1.00  0.00     0.000 HD 
HETATM   12  H1  UNL     1     -14.106  11.692  72.346  1.00  0.00     0.000 HD 
HETATM   13  C   UNL     1     -11.611  11.015  69.111  1.00  0.00    -0.319 C  
HETATM   14  H   UNL     1     -11.199  11.074  67.156  1.00  0.00     0.000 HD 
HETATM   15  O   UNL     1     -11.951  11.228  67.716  1.00  0.00    -0.637 OA 
BRANCH   8  16
HETATM   16  O   UNL     1     -13.030  12.702  70.238  1.00  0.00     0.236 OA 
BRANCH  16  17
HETATM   17  C   UNL     1     -12.125  13.287  71.203  1.00  0.00     0.052 C  
HETATM   18  H1  UNL     1     -14.766  14.144  73.289  1.00  0.00     0.000 HD 
HETATM   19  O   UNL     1     -11.156  14.094  70.522  1.00  0.00     0.066 OA 
HETATM   20  C   UNL     1     -11.416  15.445  70.454  1.00  0.00    -0.330 C  
HETATM   21  H2  UNL     1     -14.536  12.743  72.403  1.00  0.00     0.000 HD 
HETATM   22  N   UNL     1     -14.302  13.733  72.479  1.00  0.00    -0.658 NA 
HETATM   23  C   UNL     1     -11.998  16.084  71.477  1.00  0.00    -0.539 C  
HETATM   24  C   UNL     1     -12.838  13.917  72.446  1.00  0.00    -0.286 C  
HETATM   25  C   UNL     1     -12.388  15.357  72.717  1.00  0.00    -0.508 C  
BRANCH  20  26
HETATM   26  C   UNL     1     -10.920  16.087  69.179  1.00  0.00    -0.297 C  
HETATM   27  N   UNL     1     -11.717  15.796  67.989  1.00  0.00    -0.279 NA 
HETATM   28  H2  UNL     1     -12.693  16.044  68.151  1.00  0.00     0.000 HD 
HETATM   29  H1  UNL     1     -11.382  16.230  67.128  1.00  0.00     0.000 HD 
ENDBRANCH  20  26
ENDBRANCH  16  17
ENDBRANCH   8  16
BRANCH  10  30
HETATM   30  O   UNL     1      -9.582   9.643  68.561  1.00  0.00    -0.143 OA 
BRANCH  30  31
HETATM   31  C   UNL     1      -9.196  10.825  67.835  1.00  0.00    -0.150 C  
HETATM   32  O   UNL     1     -10.378   9.956  65.863  1.00  0.00    -0.223 OA 
HETATM   33  C   UNL     1      -6.639  10.541  66.425  1.00  0.00    -0.106 C  
HETATM   34  C   UNL     1      -9.225  10.714  66.267  1.00  0.00    -0.170 C  
HETATM   35  O   UNL     1      -7.929  11.268  68.297  1.00  0.00    -0.119 OA 
HETATM   36  O   UNL     1      -6.262  11.917  66.215  1.00  0.00    -0.469 OA 
HETATM   37  C   UNL     1      -7.921  10.183  65.589  1.00  0.00    -0.147 C  
HETATM   38  H   UNL     1      -6.088  12.044  65.289  1.00  0.00     0.000 HD 
HETATM   39  C   UNL     1      -5.429   9.696  66.021  1.00  0.00    -0.043 C  
HETATM   40  H   UNL     1     -10.396   9.889  64.916  1.00  0.00     0.000 HD 
HETATM   41  C   UNL     1      -6.917  10.339  67.909  1.00  0.00    -0.083 C  
BRANCH  37  42
HETATM   42  N   UNL     1      -7.718  10.685  64.200  1.00  0.00    -0.358 NA 
HETATM   43  H   UNL     1      -7.104  11.482  64.028  1.00  0.00     0.000 HD 
HETATM   44  C   UNL     1      -8.392  10.041  63.100  1.00  0.00    -0.169 C  
ENDBRANCH  37  42
ENDBRANCH  30  31
ENDBRANCH  10  30
ENDBRANCH   3   5
ENDBRANCH   2   3
TORSDOF 8
ENDMDL
MODEL      126
REMARK 921   NORMALIZED FREE ENERGY PREDICTED BY IDOCK:   -5.28 KCAL/MOL
REMARK 922        TOTAL FREE ENERGY PREDICTED BY IDOCK:   -8.49 KCAL/MOL
REMARK 923 INTER-LIGAND FREE ENERGY PREDICTED BY IDOCK:   -8.72 KCAL/MOL
REMARK 924 INTRA-LIGAND FREE ENERGY PREDICTED BY IDOCK:    0.23 KCAL/MOL
REMARK 927      BINDING AFFINITY PREDICTED BY RF-SCORE:    0.00 PKD
ROOT
HETATM    1  C   UNL     1      -7.228  10.585  66.857  1.00  0.00    -0.106 C  
HETATM    2  C   UNL     1      -6.767  11.995  67.198  1.00  0.00    -0.136 C  
ENDROOT
BRANCH   2   3
HETATM    3  N   UNL     1      -7.876  12.941  67.050  1.00  0.00    -0.391 NA 
HETATM    4  H   UNL     1      -8.669  12.641  67.618  1.00  0.00     0.000 HD 
BRANCH   3   5
HETATM    5  C   UNL     1      -7.548  14.363  67.343  1.00  0.00    -0.172 C  
HETATM    6  C   UNL     1      -6.564  14.483  68.517  1.00  0.00    -0.093 C  
HETATM    7  C   UNL     1      -6.184  15.940  68.795  1.00  0.00    -0.109 C  
HETATM    8  C   UNL     1      -7.437  16.759  69.211  1.00  0.00    -0.134 C  
HETATM    9  N   UNL     1      -5.146  15.956  69.847  1.00  0.00    -0.115 NA 
HETATM   10  C   UNL     1      -8.814  15.254  67.500  1.00  0.00    -0.179 C  
HETATM   11  H2  UNL     1      -4.340  15.377  69.611  1.00  0.00     0.000 HD 
HETATM   12  H1  UNL     1      -4.893  16.926  70.032  1.00  0.00     0.000 HD 
HETATM   13  C   UNL     1      -8.580  16.623  68.170  1.00  0.00    -0.200 C  
HETATM   14  H   UNL     1     -10.560  16.887  68.121  1.00  0.00     0.000 HD 
HETATM   15  O   UNL     1      -9.860  16.971  68.758  1.00  0.00    -0.255 OA 
BRANCH   8  16
HETATM   16  O   UNL     1      -7.046  18.163  69.356  1.00  0.00    -0.170 OA 
BRANCH  16  17
HETATM   17  C   UNL     1      -6.207  18.661  68.289  1.00  0.00    -0.207 C  
HETATM   18  H1  UNL     1      -4.978  21.194  70.324  1.00  0.00     0.000 HD 
HETATM   19  O   UNL     1      -6.960  18.707  67.070  1.00  0.00    -0.197 OA 
HETATM   20  C   UNL     1      -7.522  19.920  66.738  1.00  0.00    -0.254 C  
HETATM   21  H2  UNL     1      -5.289  19.595  70.705  1.00  0.00     0.000 HD 
HETATM   22  N   UNL     1      -5.517  20.365  70.075  1.00  0.00    -0.288 NA 
HETATM   23  C   UNL     1      -6.881  21.067  66.996  1.00  0.00    -0.397 C  
HETATM   24  C   UNL     1      -5.380  19.935  68.670  1.00  0.00    -0.205 C  
HETATM   25  C   UNL     1      -5.546  21.072  67.656  1.00  0.00    -0.350 C  
BRANCH  20  26
HETATM   26  C   UNL     1      -8.844  19.789  66.017  1.00  0.00    -0.258 C  
HETATM   27  N   UNL     1      -9.412  18.443  66.006  1.00  0.00    -0.504 NA 
HETATM   28  H2  UNL     1      -9.494  18.087  66.958  1.00  0.00     0.000 HD 
HETATM   29  H1  UNL     1     -10.304  18.355  65.519  1.00  0.00     0.000 HD 
ENDBRANCH  20  26
ENDBRANCH  16  17
ENDBRANCH   8  16
BRANCH  10  30
HETATM   30  O   UNL     1      -9.627  15.347  66.278  1.00  0.00    -0.266 OA 
BRANCH  30  31
HETATM   31  C   UNL     1     -10.972  14.836  66.350  1.00  0.00    -0.331 C  
HETATM   32  O   UNL     1     -10.364  13.629  68.403  1.00  0.00    -0.238 OA 
HETATM   33  C   UNL     1     -11.321  12.280  64.952  1.00  0.00    -0.325 C  
HETATM   34  C   UNL     1     -11.174  13.541  67.218  1.00  0.00    -0.298 C  
HETATM   35  O   UNL     1     -11.479  14.661  65.036  1.00  0.00    -0.356 OA 
HETATM   36  O   UNL     1     -12.749  12.243  64.755  1.00  0.00    -0.556 OA 
HETATM   37  C   UNL     1     -10.969  12.179  66.480  1.00  0.00    -0.284 C  
HETATM   38  H   UNL     1     -13.080  11.425  65.107  1.00  0.00     0.000 HD 
HETATM   39  C   UNL     1     -10.743  11.116  64.145  1.00  0.00    -0.415 C  
HETATM   40  H   UNL     1     -10.487  12.846  68.927  1.00  0.00     0.000 HD 
HETATM   41  C   UNL     1     -10.790  13.592  64.387  1.00  0.00    -0.389 C  
BRANCH  37  42
HETATM   42  N   UNL     1     -11.761  11.056  67.059  1.00  0.00    -0.299 NA 
HETATM   43  H   UNL     1     -12.735  10.922  66.786  1.00  0.00     0.000 HD 
HETATM   44  C   UNL     1     -11.147  10.160  68.008  1.00  0.00    -0.240 C  
ENDBRANCH  37  42
ENDBRANCH  30  31
ENDBRANCH  10  30
ENDBRANCH   3   5
ENDBRANCH   2   3
TORSDOF 8
ENDMDL
MODEL      127
REMARK 921   NORMALIZED FREE ENERGY PREDICTED BY IDOCK:   -5.27 KCAL/MOL
REMARK 922        TOTAL FREE ENERGY PREDICTED BY IDOCK:   -8.47 KCAL/MOL
REMARK 923 INTER-LIGAND FREE ENERGY PREDICTED BY IDOCK:   -6.50 KCAL/MOL
REMARK 924 INTRA-LIGAND FREE ENERGY PREDICTED BY IDOCK:   -1.97 KCAL/MOL
REMARK 927      BINDING AFFINITY PREDICTED BY RF-SCORE:    0.00 PKD
ROOT
HETATM    1  C   UNL     1      -6.993  12.950  68.458  1.00  0.00    -0.098 C  
HETATM    2  C   UNL     1      -7.110  11.507  68.928  1.00  0.00    -0.111 C  
ENDROOT
BRANCH   2   3
HETATM    3  N   UNL     1      -8.411  11.285  69.566  1.00  0.00    -0.246 NA 
HETATM    4  H   UNL     1      -9.077  11.993  69.256  1.00  0.00     0.000 HD 
BRANCH   3   5
HETATM    5  C   UNL     1      -8.990   9.926  69.382  1.00  0.00    -0.195 C  
HETATM    6  C   UNL     1      -8.228   8.874  70.202  1.00  0.00    -0.126 C  
HETATM    7  C   UNL     1      -8.846   7.481  70.057  1.00  0.00    -0.144 C  
HETATM    8  C   UNL     1      -8.767   7.002  68.581  1.00  0.00    -0.123 C  
HETATM    9  N   UNL     1      -8.135   6.561  70.969  1.00  0.00    -0.118 NA 
HETATM   10  C   UNL     1      -9.163   9.541  67.885  1.00  0.00    -0.125 C  
HETATM   11  H2  UNL     1      -8.131   6.891  71.935  1.00  0.00     0.000 HD 
HETATM   12  H1  UNL     1      -8.546   5.634  70.872  1.00  0.00     0.000 HD 
HETATM   13  C   UNL     1      -9.387   8.041  67.609  1.00  0.00    -0.143 C  
HETATM   14  H   UNL     1      -9.286   8.473  65.661  1.00  0.00     0.000 HD 
HETATM   15  O   UNL     1      -8.906   7.837  66.256  1.00  0.00    -0.146 OA 
BRANCH   8  16
HETATM   16  O   UNL     1      -9.467   5.721  68.471  1.00  0.00    -0.119 OA 
BRANCH  16  17
HETATM   17  C   UNL     1      -8.603   4.590  68.213  1.00  0.00    -0.098 C  
HETATM   18  H1  UNL     1     -10.471   3.690  65.427  1.00  0.00     0.000 HD 
HETATM   19  O   UNL     1      -8.340   3.899  69.440  1.00  0.00    -0.060 OA 
HETATM   20  C   UNL     1      -9.129   2.802  69.712  1.00  0.00    -0.122 C  
HETATM   21  H2  UNL     1     -10.016   5.216  65.941  1.00  0.00     0.000 HD 
HETATM   22  N   UNL     1     -10.190   4.253  66.229  1.00  0.00    -0.180 NA 
HETATM   23  C   UNL     1      -9.527   1.984  68.729  1.00  0.00    -0.192 C  
HETATM   24  C   UNL     1      -9.034   3.726  66.980  1.00  0.00    -0.143 C  
HETATM   25  C   UNL     1      -9.139   2.234  67.313  1.00  0.00    -0.166 C  
BRANCH  20  26
HETATM   26  C   UNL     1      -9.405   2.613  71.185  1.00  0.00    -0.140 C  
HETATM   27  N   UNL     1      -9.254   3.816  72.002  1.00  0.00    -0.116 NA 
HETATM   28  H2  UNL     1      -9.833   4.569  71.630  1.00  0.00     0.000 HD 
HETATM   29  H1  UNL     1      -9.441   3.689  72.997  1.00  0.00     0.000 HD 
ENDBRANCH  20  26
ENDBRANCH  16  17
ENDBRANCH   8  16
BRANCH  10  30
HETATM   30  O   UNL     1     -10.106  10.404  67.157  1.00  0.00    -0.190 OA 
BRANCH  30  31
HETATM   31  C   UNL     1      -9.538  11.421  66.309  1.00  0.00    -0.213 C  
HETATM   32  O   UNL     1     -10.470  13.136  67.802  1.00  0.00    -0.222 OA 
HETATM   33  C   UNL     1     -11.347  12.299  64.173  1.00  0.00    -0.376 C  
HETATM   34  C   UNL     1     -10.175  12.852  66.424  1.00  0.00    -0.267 C  
HETATM   35  O   UNL     1      -9.534  10.963  64.965  1.00  0.00    -0.209 OA 
HETATM   36  O   UNL     1     -10.430  12.898  63.235  1.00  0.00    -0.460 OA 
HETATM   37  C   UNL     1     -11.406  13.134  65.503  1.00  0.00    -0.299 C  
HETATM   38  H   UNL     1     -10.726  13.781  63.047  1.00  0.00     0.000 HD 
HETATM   39  C   UNL     1     -12.703  12.234  63.468  1.00  0.00    -0.512 C  
HETATM   40  H   UNL     1     -10.855  14.001  67.871  1.00  0.00     0.000 HD 
HETATM   41  C   UNL     1     -10.872  10.883  64.475  1.00  0.00    -0.075 C  
BRANCH  37  42
HETATM   42  N   UNL     1     -11.566  14.571  65.135  1.00  0.00    -0.359 NA 
HETATM   43  H   UNL     1     -12.476  14.926  64.840  1.00  0.00     0.000 HD 
HETATM   44  C   UNL     1     -10.429  15.456  65.196  1.00  0.00    -0.411 C  
ENDBRANCH  37  42
ENDBRANCH  30  31
ENDBRANCH  10  30
ENDBRANCH   3   5
ENDBRANCH   2   3
TORSDOF 8
ENDMDL
MODEL      128
REMARK 921   NORMALIZED FREE ENERGY PREDICTED BY IDOCK:   -5.25 KCAL/MOL
REMARK 922        TOTAL FREE ENERGY PREDICTED BY IDOCK:   -8.44 KCAL/MOL
REMARK 923 INTER-LIGAND FREE ENERGY PREDICTED BY IDOCK:   -6.89 KCAL/MOL
REMARK 924 INTRA-LIGAND FREE ENERGY PREDICTED BY IDOCK:   -1.55 KCAL/MOL
REMARK 927      BINDING AFFINITY PREDICTED BY RF-SCORE:    0.00 PKD
ROOT
HETATM    1  C   UNL     1     -11.076   8.008  72.223  1.00  0.00    -0.393 C  
HETATM    2  C   UNL     1     -10.572   7.568  70.855  1.00  0.00    -0.220 C  
ENDROOT
BRANCH   2   3
HETATM    3  N   UNL     1     -11.357   8.208  69.796  1.00  0.00    -0.453 NA 
HETATM    4  H   UNL     1     -11.396   9.215  69.951  1.00  0.00     0.000 HD 
BRANCH   3   5
HETATM    5  C   UNL     1     -10.907   7.923  68.405  1.00  0.00     0.082 C  
HETATM    6  C   UNL     1     -10.821   6.412  68.141  1.00  0.00    -0.386 C  
HETATM    7  C   UNL     1     -10.404   6.110  66.698  1.00  0.00    -0.187 C  
HETATM    8  C   UNL     1      -8.983   6.670  66.414  1.00  0.00    -0.148 C  
HETATM    9  N   UNL     1     -10.468   4.648  66.495  1.00  0.00    -0.310 NA 
HETATM   10  C   UNL     1      -9.614   8.697  68.020  1.00  0.00    -0.149 C  
HETATM   11  H2  UNL     1     -11.381   4.258  66.730  1.00  0.00     0.000 HD 
HETATM   12  H1  UNL     1     -10.191   4.446  65.535  1.00  0.00     0.000 HD 
HETATM   13  C   UNL     1      -8.882   8.177  66.767  1.00  0.00    -0.138 C  
HETATM   14  H   UNL     1      -7.436   9.496  67.172  1.00  0.00     0.000 HD 
HETATM   15  O   UNL     1      -7.499   8.573  66.955  1.00  0.00    -0.083 OA 
BRANCH   8  16
HETATM   16  O   UNL     1      -8.676   6.456  64.998  1.00  0.00    -0.027 OA 
BRANCH  16  17
HETATM   17  C   UNL     1      -7.353   5.928  64.748  1.00  0.00    -0.069 C  
HETATM   18  H1  UNL     1      -8.388   4.522  61.746  1.00  0.00     0.000 HD 
HETATM   19  O   UNL     1      -6.843   5.331  65.947  1.00  0.00    -0.058 OA 
HETATM   20  C   UNL     1      -6.995   3.968  66.070  1.00  0.00    -0.065 C  
HETATM   21  H2  UNL     1      -8.777   6.012  62.400  1.00  0.00     0.000 HD 
HETATM   22  N   UNL     1      -8.464   5.064  62.606  1.00  0.00    -0.110 NA 
HETATM   23  C   UNL     1      -6.885   3.166  65.003  1.00  0.00    -0.045 C  
HETATM   24  C   UNL     1      -7.237   5.097  63.427  1.00  0.00    -0.048 C  
HETATM   25  C   UNL     1      -6.604   3.719  63.649  1.00  0.00    -0.038 C  
BRANCH  20  26
HETATM   26  C   UNL     1      -7.212   3.516  67.496  1.00  0.00    -0.059 C  
HETATM   27  N   UNL     1      -7.966   2.272  67.643  1.00  0.00    -0.063 NA 
HETATM   28  H2  UNL     1      -7.525   1.528  67.101  1.00  0.00     0.000 HD 
HETATM   29  H1  UNL     1      -8.113   1.967  68.605  1.00  0.00     0.000 HD 
ENDBRANCH  20  26
ENDBRANCH  16  17
ENDBRANCH   8  16
BRANCH  10  30
HETATM   30  O   UNL     1      -9.776  10.159  68.022  1.00  0.00    -0.141 OA 
BRANCH  30  31
HETATM   31  C   UNL     1     -10.385  10.749  66.858  1.00  0.00    -0.241 C  
HETATM   32  O   UNL     1      -8.207  11.710  66.249  1.00  0.00    -0.336 OA 
HETATM   33  C   UNL     1     -11.439  13.444  67.336  1.00  0.00    -0.333 C  
HETATM   34  C   UNL     1      -9.621  11.964  66.218  1.00  0.00    -0.229 C  
HETATM   35  O   UNL     1     -11.733  11.083  67.151  1.00  0.00    -0.456 OA 
HETATM   36  O   UNL     1     -12.374  13.595  66.247  1.00  0.00    -0.432 OA 
HETATM   37  C   UNL     1      -9.965  13.375  66.796  1.00  0.00    -0.264 C  
HETATM   38  H   UNL     1     -12.164  14.395  65.779  1.00  0.00     0.000 HD 
HETATM   39  C   UNL     1     -11.662  14.641  68.263  1.00  0.00    -0.359 C  
HETATM   40  H   UNL     1      -7.746  12.445  65.862  1.00  0.00     0.000 HD 
HETATM   41  C   UNL     1     -11.775  12.162  68.085  1.00  0.00    -0.341 C  
BRANCH  37  42
HETATM   42  N   UNL     1      -9.781  14.487  65.819  1.00  0.00    -0.464 NA 
HETATM   43  H   UNL     1     -10.193  14.423  64.888  1.00  0.00     0.000 HD 
HETATM   44  C   UNL     1      -9.020  15.652  66.195  1.00  0.00    -0.327 C  
ENDBRANCH  37  42
ENDBRANCH  30  31
ENDBRANCH  10  30
ENDBRANCH   3   5
ENDBRANCH   2   3
TORSDOF 8
ENDMDL
MODEL      129
REMARK 921   NORMALIZED FREE ENERGY PREDICTED BY IDOCK:   -5.24 KCAL/MOL
REMARK 922        TOTAL FREE ENERGY PREDICTED BY IDOCK:   -8.43 KCAL/MOL
REMARK 923 INTER-LIGAND FREE ENERGY PREDICTED BY IDOCK:   -7.04 KCAL/MOL
REMARK 924 INTRA-LIGAND FREE ENERGY PREDICTED BY IDOCK:   -1.39 KCAL/MOL
REMARK 927      BINDING AFFINITY PREDICTED BY RF-SCORE:    0.00 PKD
ROOT
HETATM    1  C   UNL     1     -10.414   5.281  71.901  1.00  0.00    -0.282 C  
HETATM    2  C   UNL     1     -11.342   6.358  72.446  1.00  0.00    -0.287 C  
ENDROOT
BRANCH   2   3
HETATM    3  N   UNL     1     -12.049   7.023  71.347  1.00  0.00    -0.334 NA 
HETATM    4  H   UNL     1     -13.035   7.135  71.583  1.00  0.00     0.000 HD 
BRANCH   3   5
HETATM    5  C   UNL     1     -11.476   8.327  70.914  1.00  0.00    -0.274 C  
HETATM    6  C   UNL     1     -12.444   9.487  71.194  1.00  0.00    -0.399 C  
HETATM    7  C   UNL     1     -11.844  10.838  70.795  1.00  0.00    -0.339 C  
HETATM    8  C   UNL     1     -11.568  10.880  69.267  1.00  0.00    -0.318 C  
HETATM    9  N   UNL     1     -12.781  11.902  71.211  1.00  0.00    -0.356 NA 
HETATM   10  C   UNL     1     -10.948   8.297  69.451  1.00  0.00     0.000 C  
HETATM   11  H2  UNL     1     -13.016  11.853  72.203  1.00  0.00     0.000 HD 
HETATM   12  H1  UNL     1     -12.382  12.801  70.946  1.00  0.00     0.000 HD 
HETATM   13  C   UNL     1     -10.700   9.677  68.810  1.00  0.00    -0.206 C  
HETATM   14  H   UNL     1     -10.306   8.716  67.103  1.00  0.00     0.000 HD 
HETATM   15  O   UNL     1     -10.837   9.453  67.383  1.00  0.00    -0.263 OA 
BRANCH   8  16
HETATM   16  O   UNL     1     -10.894  12.142  68.953  1.00  0.00    -0.219 OA 
BRANCH  16  17
HETATM   17  C   UNL     1     -11.723  13.102  68.258  1.00  0.00    -0.349 C  
HETATM   18  H1  UNL     1      -9.487  13.237  65.603  1.00  0.00     0.000 HD 
HETATM   19  O   UNL     1     -12.163  14.109  69.178  1.00  0.00    -0.335 OA 
HETATM   20  C   UNL     1     -11.430  15.276  69.212  1.00  0.00    -0.320 C  
HETATM   21  H2  UNL     1      -9.997  11.909  66.484  1.00  0.00     0.000 HD 
HETATM   22  N   UNL     1      -9.874  12.921  66.492  1.00  0.00    -0.249 NA 
HETATM   23  C   UNL     1     -10.903  15.788  68.092  1.00  0.00    -0.307 C  
HETATM   24  C   UNL     1     -11.130  13.587  66.892  1.00  0.00    -0.296 C  
HETATM   25  C   UNL     1     -11.085  15.114  66.777  1.00  0.00    -0.307 C  
BRANCH  20  26
HETATM   26  C   UNL     1     -11.367  15.902  70.586  1.00  0.00    -0.397 C  
HETATM   27  N   UNL     1     -11.806  15.039  71.680  1.00  0.00    -0.358 NA 
HETATM   28  H2  UNL     1     -11.284  14.163  71.669  1.00  0.00     0.000 HD 
HETATM   29  H1  UNL     1     -11.764  15.462  72.608  1.00  0.00     0.000 HD 
ENDBRANCH  20  26
ENDBRANCH  16  17
ENDBRANCH   8  16
BRANCH  10  30
HETATM   30  O   UNL     1      -9.833   7.361  69.243  1.00  0.00    -0.164 OA 
BRANCH  30  31
HETATM   31  C   UNL     1      -8.530   7.937  69.030  1.00  0.00    -0.131 C  
HETATM   32  O   UNL     1      -8.110   6.255  67.288  1.00  0.00    -0.108 OA 
HETATM   33  C   UNL     1      -6.439   6.732  70.697  1.00  0.00    -0.051 C  
HETATM   34  C   UNL     1      -7.471   7.012  68.330  1.00  0.00    -0.099 C  
HETATM   35  O   UNL     1      -8.037   8.450  70.258  1.00  0.00    -0.098 OA 
HETATM   36  O   UNL     1      -5.415   7.748  70.668  1.00  0.00    -0.026 OA 
HETATM   37  C   UNL     1      -6.628   6.094  69.273  1.00  0.00    -0.047 C  
HETATM   38  H   UNL     1      -4.601   7.346  70.385  1.00  0.00     0.000 HD 
HETATM   39  C   UNL     1      -5.997   5.704  71.740  1.00  0.00    -0.026 C  
HETATM   40  H   UNL     1      -7.469   5.695  66.866  1.00  0.00     0.000 HD 
HETATM   41  C   UNL     1      -7.743   7.376  71.151  1.00  0.00    -0.090 C  
BRANCH  37  42
HETATM   42  N   UNL     1      -5.277   5.759  68.738  1.00  0.00    -0.003 NA 
HETATM   43  H   UNL     1      -4.448   5.901  69.316  1.00  0.00     0.000 HD 
HETATM   44  C   UNL     1      -5.146   5.236  67.400  1.00  0.00    -0.004 C  
ENDBRANCH  37  42
ENDBRANCH  30  31
ENDBRANCH  10  30
ENDBRANCH   3   5
ENDBRANCH   2   3
TORSDOF 8
ENDMDL
MODEL      130
REMARK 921   NORMALIZED FREE ENERGY PREDICTED BY IDOCK:   -5.24 KCAL/MOL
REMARK 922        TOTAL FREE ENERGY PREDICTED BY IDOCK:   -8.42 KCAL/MOL
REMARK 923 INTER-LIGAND FREE ENERGY PREDICTED BY IDOCK:   -6.77 KCAL/MOL
REMARK 924 INTRA-LIGAND FREE ENERGY PREDICTED BY IDOCK:   -1.65 KCAL/MOL
REMARK 927      BINDING AFFINITY PREDICTED BY RF-SCORE:    0.00 PKD
ROOT
HETATM    1  C   UNL     1      -5.175  10.074  70.168  1.00  0.00    -0.038 C  
HETATM    2  C   UNL     1      -6.507   9.359  69.985  1.00  0.00    -0.057 C  
ENDROOT
BRANCH   2   3
HETATM    3  N   UNL     1      -6.531   8.652  68.701  1.00  0.00    -0.053 NA 
HETATM    4  H   UNL     1      -6.876   7.701  68.832  1.00  0.00     0.000 HD 
BRANCH   3   5
HETATM    5  C   UNL     1      -7.293   9.326  67.614  1.00  0.00    -0.084 C  
HETATM    6  C   UNL     1      -7.434  10.833  67.876  1.00  0.00    -0.090 C  
HETATM    7  C   UNL     1      -8.176  11.542  66.739  1.00  0.00    -0.164 C  
HETATM    8  C   UNL     1      -9.626  10.998  66.614  1.00  0.00    -0.189 C  
HETATM    9  N   UNL     1      -8.157  12.994  67.009  1.00  0.00    -0.379 NA 
HETATM   10  C   UNL     1      -8.643   8.620  67.298  1.00  0.00    -0.125 C  
HETATM   11  H2  UNL     1      -7.213  13.356  67.148  1.00  0.00     0.000 HD 
HETATM   12  H1  UNL     1      -8.650  13.466  66.252  1.00  0.00     0.000 HD 
HETATM   13  C   UNL     1      -9.647   9.453  66.476  1.00  0.00    -0.208 C  
HETATM   14  H   UNL     1     -10.962   7.973  66.746  1.00  0.00     0.000 HD 
HETATM   15  O   UNL     1     -10.949   8.919  66.830  1.00  0.00    -0.056 OA 
BRANCH   8  16
HETATM   16  O   UNL     1     -10.256  11.623  65.449  1.00  0.00    -0.241 OA 
BRANCH  16  17
HETATM   17  C   UNL     1     -11.473  12.344  65.745  1.00  0.00    -0.370 C  
HETATM   18  H1  UNL     1      -9.993  15.366  64.883  1.00  0.00     0.000 HD 
HETATM   19  O   UNL     1     -12.017  11.876  66.986  1.00  0.00    -0.615 OA 
HETATM   20  C   UNL     1     -11.709  12.610  68.110  1.00  0.00    -0.347 C  
HETATM   21  H2  UNL     1      -9.855  13.875  64.136  1.00  0.00     0.000 HD 
HETATM   22  N   UNL     1     -10.067  14.356  65.010  1.00  0.00    -0.357 NA 
HETATM   23  C   UNL     1     -11.617  13.945  68.054  1.00  0.00    -0.368 C  
HETATM   24  C   UNL     1     -11.360  13.894  65.550  1.00  0.00    -0.308 C  
HETATM   25  C   UNL     1     -11.836  14.679  66.777  1.00  0.00    -0.334 C  
BRANCH  20  26
HETATM   26  C   UNL     1     -11.573  11.767  69.357  1.00  0.00    -0.322 C  
HETATM   27  N   UNL     1     -12.117  10.414  69.252  1.00  0.00    -0.592 NA 
HETATM   28  H2  UNL     1     -11.706   9.931  68.453  1.00  0.00     0.000 HD 
HETATM   29  H1  UNL     1     -12.025   9.845  70.093  1.00  0.00     0.000 HD 
ENDBRANCH  20  26
ENDBRANCH  16  17
ENDBRANCH   8  16
BRANCH  10  30
HETATM   30  O   UNL     1      -8.490   7.247  66.793  1.00  0.00    -0.115 OA 
BRANCH  30  31
HETATM   31  C   UNL     1      -8.789   6.179  67.711  1.00  0.00    -0.110 C  
HETATM   32  O   UNL     1      -6.382   5.723  67.910  1.00  0.00    -0.038 OA 
HETATM   33  C   UNL     1      -9.169   3.585  66.393  1.00  0.00    -0.168 C  
HETATM   34  C   UNL     1      -7.672   5.088  67.891  1.00  0.00    -0.084 C  
HETATM   35  O   UNL     1     -10.032   5.591  67.359  1.00  0.00    -0.138 OA 
HETATM   36  O   UNL     1      -9.902   2.849  67.394  1.00  0.00    -0.323 OA 
HETATM   37  C   UNL     1      -7.709   3.891  66.887  1.00  0.00    -0.085 C  
HETATM   38  H   UNL     1      -9.442   2.034  67.564  1.00  0.00     0.000 HD 
HETATM   39  C   UNL     1      -9.185   2.726  65.128  1.00  0.00    -0.139 C  
HETATM   40  H   UNL     1      -5.707   5.064  68.019  1.00  0.00     0.000 HD 
HETATM   41  C   UNL     1      -9.906   4.891  66.121  1.00  0.00    -0.207 C  
BRANCH  37  42
HETATM   42  N   UNL     1      -7.136   2.628  67.435  1.00  0.00    -0.052 NA 
HETATM   43  H   UNL     1      -7.734   1.968  67.933  1.00  0.00     0.000 HD 
HETATM   44  C   UNL     1      -5.734   2.342  67.259  1.00  0.00    -0.019 C  
ENDBRANCH  37  42
ENDBRANCH  30  31
ENDBRANCH  10  30
ENDBRANCH   3   5
ENDBRANCH   2   3
TORSDOF 8
ENDMDL
MODEL      131
REMARK 921   NORMALIZED FREE ENERGY PREDICTED BY IDOCK:   -5.23 KCAL/MOL
REMARK 922        TOTAL FREE ENERGY PREDICTED BY IDOCK:   -8.42 KCAL/MOL
REMARK 923 INTER-LIGAND FREE ENERGY PREDICTED BY IDOCK:   -6.84 KCAL/MOL
REMARK 924 INTRA-LIGAND FREE ENERGY PREDICTED BY IDOCK:   -1.58 KCAL/MOL
REMARK 927      BINDING AFFINITY PREDICTED BY RF-SCORE:    0.00 PKD
ROOT
HETATM    1  C   UNL     1     -14.317   7.402  71.607  1.00  0.00    -0.614 C  
HETATM    2  C   UNL     1     -12.825   7.139  71.758  1.00  0.00    -0.330 C  
ENDROOT
BRANCH   2   3
HETATM    3  N   UNL     1     -12.060   8.329  71.375  1.00  0.00    -0.296 NA 
HETATM    4  H   UNL     1     -11.501   8.654  72.164  1.00  0.00     0.000 HD 
BRANCH   3   5
HETATM    5  C   UNL     1     -11.199   8.177  70.169  1.00  0.00    -0.134 C  
HETATM    6  C   UNL     1     -10.824   6.707  69.929  1.00  0.00    -0.329 C  
HETATM    7  C   UNL     1      -9.978   6.535  68.664  1.00  0.00    -0.146 C  
HETATM    8  C   UNL     1      -8.631   7.297  68.803  1.00  0.00    -0.129 C  
HETATM    9  N   UNL     1      -9.769   5.090  68.439  1.00  0.00    -0.144 NA 
HETATM   10  C   UNL     1      -9.976   9.138  70.177  1.00  0.00    -0.200 C  
HETATM   11  H2  UNL     1     -10.645   4.568  68.400  1.00  0.00     0.000 HD 
HETATM   12  H1  UNL     1      -9.206   4.975  67.597  1.00  0.00     0.000 HD 
HETATM   13  C   UNL     1      -8.852   8.785  69.182  1.00  0.00    -0.137 C  
HETATM   14  H   UNL     1      -7.786  10.267  69.995  1.00  0.00     0.000 HD 
HETATM   15  O   UNL     1      -7.651   9.356  69.762  1.00  0.00    -0.074 OA 
BRANCH   8  16
HETATM   16  O   UNL     1      -7.909   7.197  67.533  1.00  0.00    -0.109 OA 
BRANCH  16  17
HETATM   17  C   UNL     1      -8.759   7.183  66.363  1.00  0.00    -0.139 C  
HETATM   18  H1  UNL     1      -7.318   4.228  65.244  1.00  0.00     0.000 HD 
HETATM   19  O   UNL     1      -8.800   8.494  65.786  1.00  0.00    -0.175 OA 
HETATM   20  C   UNL     1      -7.938   8.735  64.739  1.00  0.00    -0.132 C  
HETATM   21  H2  UNL     1      -7.743   4.668  66.802  1.00  0.00     0.000 HD 
HETATM   22  N   UNL     1      -7.490   5.011  65.875  1.00  0.00    -0.081 NA 
HETATM   23  C   UNL     1      -7.668   7.779  63.840  1.00  0.00    -0.123 C  
HETATM   24  C   UNL     1      -8.494   5.981  65.395  1.00  0.00    -0.145 C  
HETATM   25  C   UNL     1      -8.282   6.427  63.945  1.00  0.00     0.034 C  
BRANCH  20  26
HETATM   26  C   UNL     1      -7.428  10.157  64.698  1.00  0.00    -0.132 C  
HETATM   27  N   UNL     1      -6.374  10.408  63.717  1.00  0.00    -0.301 NA 
HETATM   28  H2  UNL     1      -6.681  10.117  62.788  1.00  0.00     0.000 HD 
HETATM   29  H1  UNL     1      -6.030  11.367  63.689  1.00  0.00     0.000 HD 
ENDBRANCH  20  26
ENDBRANCH  16  17
ENDBRANCH   8  16
BRANCH  10  30
HETATM   30  O   UNL     1     -10.342  10.562  70.144  1.00  0.00    -0.160 OA 
BRANCH  30  31
HETATM   31  C   UNL     1     -10.679  11.119  68.859  1.00  0.00    -0.207 C  
HETATM   32  O   UNL     1      -8.430  12.103  68.736  1.00  0.00    -0.339 OA 
HETATM   33  C   UNL     1     -11.844  13.806  69.026  1.00  0.00    -0.357 C  
HETATM   34  C   UNL     1      -9.804  12.334  68.381  1.00  0.00    -0.199 C  
HETATM   35  O   UNL     1     -12.062  11.436  68.833  1.00  0.00    -0.424 OA 
HETATM   36  O   UNL     1     -12.510  13.920  67.751  1.00  0.00    -0.445 OA 
HETATM   37  C   UNL     1     -10.285  13.750  68.835  1.00  0.00    -0.102 C  
HETATM   38  H   UNL     1     -12.210  14.714  67.325  1.00  0.00     0.000 HD 
HETATM   39  C   UNL     1     -12.284  15.016  69.852  1.00  0.00    -0.351 C  
HETATM   40  H   UNL     1      -7.902  12.838  68.447  1.00  0.00     0.000 HD 
HETATM   41  C   UNL     1     -12.326  12.533  69.709  1.00  0.00    -0.020 C  
BRANCH  37  42
HETATM   42  N   UNL     1      -9.899  14.845  67.899  1.00  0.00    -0.213 NA 
HETATM   43  H   UNL     1     -10.242  14.843  66.938  1.00  0.00     0.000 HD 
HETATM   44  C   UNL     1      -9.037  15.907  68.357  1.00  0.00    -0.189 C  
ENDBRANCH  37  42
ENDBRANCH  30  31
ENDBRANCH  10  30
ENDBRANCH   3   5
ENDBRANCH   2   3
TORSDOF 8
ENDMDL
MODEL      132
REMARK 921   NORMALIZED FREE ENERGY PREDICTED BY IDOCK:   -5.23 KCAL/MOL
REMARK 922        TOTAL FREE ENERGY PREDICTED BY IDOCK:   -8.42 KCAL/MOL
REMARK 923 INTER-LIGAND FREE ENERGY PREDICTED BY IDOCK:   -6.55 KCAL/MOL
REMARK 924 INTRA-LIGAND FREE ENERGY PREDICTED BY IDOCK:   -1.87 KCAL/MOL
REMARK 927      BINDING AFFINITY PREDICTED BY RF-SCORE:    0.00 PKD
ROOT
HETATM    1  C   UNL     1      -7.313   8.237  72.452  1.00  0.00    -0.140 C  
HETATM    2  C   UNL     1      -8.067   8.564  71.170  1.00  0.00    -0.133 C  
ENDROOT
BRANCH   2   3
HETATM    3  N   UNL     1      -7.144   8.581  70.030  1.00  0.00    -0.046 NA 
HETATM    4  H   UNL     1      -6.968   7.629  69.710  1.00  0.00     0.000 HD 
BRANCH   3   5
HETATM    5  C   UNL     1      -7.559   9.437  68.884  1.00  0.00    -0.075 C  
HETATM    6  C   UNL     1      -7.760  10.897  69.317  1.00  0.00    -0.100 C  
HETATM    7  C   UNL     1      -8.141  11.794  68.135  1.00  0.00    -0.150 C  
HETATM    8  C   UNL     1      -9.497  11.344  67.526  1.00  0.00    -0.167 C  
HETATM    9  N   UNL     1      -8.191  13.191  68.612  1.00  0.00    -0.330 NA 
HETATM   10  C   UNL     1      -8.766   8.849  68.099  1.00  0.00    -0.134 C  
HETATM   11  H2  UNL     1      -7.325  13.484  69.064  1.00  0.00     0.000 HD 
HETATM   12  H1  UNL     1      -8.444  13.788  67.825  1.00  0.00     0.000 HD 
HETATM   13  C   UNL     1      -9.487   9.836  67.160  1.00  0.00    -0.154 C  
HETATM   14  H   UNL     1     -10.833   8.398  66.824  1.00  0.00     0.000 HD 
HETATM   15  O   UNL     1     -10.839   9.321  67.048  1.00  0.00    -0.186 OA 
BRANCH   8  16
HETATM   16  O   UNL     1      -9.762  12.155  66.336  1.00  0.00    -0.220 OA 
BRANCH  16  17
HETATM   17  C   UNL     1     -10.884  13.058  66.469  1.00  0.00    -0.279 C  
HETATM   18  H1  UNL     1     -12.299  11.869  63.528  1.00  0.00     0.000 HD 
HETATM   19  O   UNL     1     -10.410  14.361  66.832  1.00  0.00    -0.261 OA 
HETATM   20  C   UNL     1     -10.239  15.264  65.806  1.00  0.00    -0.349 C  
HETATM   21  H2  UNL     1     -11.534  11.017  64.749  1.00  0.00     0.000 HD 
HETATM   22  N   UNL     1     -11.627  11.925  64.294  1.00  0.00    -0.342 NA 
HETATM   23  C   UNL     1     -11.085  15.290  64.768  1.00  0.00    -0.407 C  
HETATM   24  C   UNL     1     -11.915  12.972  65.294  1.00  0.00    -0.407 C  
HETATM   25  C   UNL     1     -12.231  14.341  64.684  1.00  0.00    -0.470 C  
BRANCH  20  26
HETATM   26  C   UNL     1      -9.087  16.215  66.030  1.00  0.00    -0.318 C  
HETATM   27  N   UNL     1      -9.403  17.628  65.833  1.00  0.00    -0.524 NA 
HETATM   28  H2  UNL     1     -10.197  17.895  66.415  1.00  0.00     0.000 HD 
HETATM   29  H1  UNL     1      -8.625  18.270  65.984  1.00  0.00     0.000 HD 
ENDBRANCH  20  26
ENDBRANCH  16  17
ENDBRANCH   8  16
BRANCH  10  30
HETATM   30  O   UNL     1      -8.483   7.554  67.460  1.00  0.00    -0.119 OA 
BRANCH  30  31
HETATM   31  C   UNL     1      -9.077   6.388  68.061  1.00  0.00    -0.113 C  
HETATM   32  O   UNL     1      -6.882   5.792  68.990  1.00  0.00    -0.057 OA 
HETATM   33  C   UNL     1      -8.988   4.018  66.334  1.00  0.00    -0.128 C  
HETATM   34  C   UNL     1      -8.088   5.229  68.448  1.00  0.00    -0.091 C  
HETATM   35  O   UNL     1     -10.126   5.915  67.230  1.00  0.00    -0.140 OA 
HETATM   36  O   UNL     1     -10.017   3.190  66.913  1.00  0.00    -0.305 OA 
HETATM   37  C   UNL     1      -7.782   4.182  67.329  1.00  0.00    -0.088 C  
HETATM   38  H   UNL     1      -9.643   2.338  67.110  1.00  0.00     0.000 HD 
HETATM   39  C   UNL     1      -8.573   3.338  65.027  1.00  0.00    -0.104 C  
HETATM   40  H   UNL     1      -6.284   5.092  69.224  1.00  0.00     0.000 HD 
HETATM   41  C   UNL     1      -9.587   5.383  66.020  1.00  0.00    -0.131 C  
BRANCH  37  42
HETATM   42  N   UNL     1      -7.430   2.830  67.850  1.00  0.00    -0.056 NA 
HETATM   43  H   UNL     1      -8.152   2.234  68.257  1.00  0.00     0.000 HD 
HETATM   44  C   UNL     1      -6.066   2.367  67.779  1.00  0.00    -0.024 C  
ENDBRANCH  37  42
ENDBRANCH  30  31
ENDBRANCH  10  30
ENDBRANCH   3   5
ENDBRANCH   2   3
TORSDOF 8
ENDMDL
MODEL      133
REMARK 921   NORMALIZED FREE ENERGY PREDICTED BY IDOCK:   -5.23 KCAL/MOL
REMARK 922        TOTAL FREE ENERGY PREDICTED BY IDOCK:   -8.41 KCAL/MOL
REMARK 923 INTER-LIGAND FREE ENERGY PREDICTED BY IDOCK:   -6.94 KCAL/MOL
REMARK 924 INTRA-LIGAND FREE ENERGY PREDICTED BY IDOCK:   -1.47 KCAL/MOL
REMARK 927      BINDING AFFINITY PREDICTED BY RF-SCORE:    0.00 PKD
ROOT
HETATM    1  C   UNL     1     -11.960  13.061  63.308  1.00  0.00    -0.493 C  
HETATM    2  C   UNL     1     -11.030  12.509  64.379  1.00  0.00    -0.340 C  
ENDROOT
BRANCH   2   3
HETATM    3  N   UNL     1     -10.294  11.351  63.864  1.00  0.00    -0.342 NA 
HETATM    4  H   UNL     1      -9.683  11.637  63.099  1.00  0.00     0.000 HD 
BRANCH   3   5
HETATM    5  C   UNL     1      -9.518  10.583  64.877  1.00  0.00    -0.252 C  
HETATM    6  C   UNL     1      -8.736   9.430  64.230  1.00  0.00    -0.224 C  
HETATM    7  C   UNL     1      -7.898   8.663  65.257  1.00  0.00    -0.107 C  
HETATM    8  C   UNL     1      -8.816   8.004  66.324  1.00  0.00    -0.162 C  
HETATM    9  N   UNL     1      -7.087   7.660  64.537  1.00  0.00    -0.063 NA 
HETATM   10  C   UNL     1     -10.385  10.142  66.091  1.00  0.00    -0.167 C  
HETATM   11  H2  UNL     1      -6.519   8.072  63.796  1.00  0.00     0.000 HD 
HETATM   12  H1  UNL     1      -6.529   7.150  65.221  1.00  0.00     0.000 HD 
HETATM   13  C   UNL     1      -9.770   9.039  66.976  1.00  0.00    -0.189 C  
HETATM   14  H   UNL     1     -11.491   9.014  67.990  1.00  0.00     0.000 HD 
HETATM   15  O   UNL     1     -10.907   8.381  67.591  1.00  0.00    -0.169 OA 
BRANCH   8  16
HETATM   16  O   UNL     1      -7.968   7.380  67.342  1.00  0.00    -0.109 OA 
BRANCH  16  17
HETATM   17  C   UNL     1      -7.515   8.284  68.375  1.00  0.00    -0.096 C  
HETATM   18  H1  UNL     1      -4.203   7.847  67.423  1.00  0.00     0.000 HD 
HETATM   19  O   UNL     1      -8.194   7.988  69.602  1.00  0.00    -0.117 OA 
HETATM   20  C   UNL     1      -7.530   7.175  70.495  1.00  0.00    -0.087 C  
HETATM   21  H2  UNL     1      -5.563   8.008  66.461  1.00  0.00     0.000 HD 
HETATM   22  N   UNL     1      -5.216   7.738  67.382  1.00  0.00    -0.030 NA 
HETATM   23  C   UNL     1      -6.202   7.262  70.644  1.00  0.00    -0.035 C  
HETATM   24  C   UNL     1      -5.959   8.452  68.439  1.00  0.00    -0.042 C  
HETATM   25  C   UNL     1      -5.398   8.231  69.847  1.00  0.00    -0.023 C  
BRANCH  20  26
HETATM   26  C   UNL     1      -8.452   6.281  71.290  1.00  0.00    -0.124 C  
HETATM   27  N   UNL     1      -9.676   6.922  71.768  1.00  0.00    -0.160 NA 
HETATM   28  H2  UNL     1     -10.180   7.342  70.987  1.00  0.00     0.000 HD 
HETATM   29  H1  UNL     1     -10.298   6.318  72.305  1.00  0.00     0.000 HD 
ENDBRANCH  20  26
ENDBRANCH  16  17
ENDBRANCH   8  16
BRANCH  10  30
HETATM   30  O   UNL     1     -10.926  11.265  66.872  1.00  0.00    -0.277 OA 
BRANCH  30  31
HETATM   31  C   UNL     1     -10.208  11.635  68.064  1.00  0.00    -0.190 C  
HETATM   32  O   UNL     1     -11.973  10.579  69.410  1.00  0.00    -0.465 OA 
HETATM   33  C   UNL     1     -10.980  14.262  69.118  1.00  0.00    -0.261 C  
HETATM   34  C   UNL     1     -11.049  11.680  69.391  1.00  0.00    -0.206 C  
HETATM   35  O   UNL     1      -9.528  12.861  67.842  1.00  0.00    -0.194 OA 
HETATM   36  O   UNL     1      -9.848  14.592  69.949  1.00  0.00    -0.412 OA 
HETATM   37  C   UNL     1     -11.763  13.034  69.709  1.00  0.00    -0.276 C  
HETATM   38  H   UNL     1     -10.166  14.802  70.820  1.00  0.00     0.000 HD 
HETATM   39  C   UNL     1     -11.846  15.522  69.048  1.00  0.00    -0.373 C  
HETATM   40  H   UNL     1     -12.481  10.606  70.212  1.00  0.00     0.000 HD 
HETATM   41  C   UNL     1     -10.472  13.926  67.722  1.00  0.00    -0.243 C  
BRANCH  37  42
HETATM   42  N   UNL     1     -11.968  13.279  71.166  1.00  0.00    -0.324 NA 
HETATM   43  H   UNL     1     -11.171  13.496  71.766  1.00  0.00     0.000 HD 
HETATM   44  C   UNL     1     -13.295  13.207  71.725  1.00  0.00    -0.389 C  
ENDBRANCH  37  42
ENDBRANCH  30  31
ENDBRANCH  10  30
ENDBRANCH   3   5
ENDBRANCH   2   3
TORSDOF 8
ENDMDL
MODEL      134
REMARK 921   NORMALIZED FREE ENERGY PREDICTED BY IDOCK:   -5.22 KCAL/MOL
REMARK 922        TOTAL FREE ENERGY PREDICTED BY IDOCK:   -8.41 KCAL/MOL
REMARK 923 INTER-LIGAND FREE ENERGY PREDICTED BY IDOCK:   -6.93 KCAL/MOL
REMARK 924 INTRA-LIGAND FREE ENERGY PREDICTED BY IDOCK:   -1.48 KCAL/MOL
REMARK 927      BINDING AFFINITY PREDICTED BY RF-SCORE:    0.00 PKD
ROOT
HETATM    1  C   UNL     1     -10.367   4.727  72.672  1.00  0.00    -0.253 C  
HETATM    2  C   UNL     1      -9.871   4.993  71.257  1.00  0.00    -0.182 C  
ENDROOT
BRANCH   2   3
HETATM    3  N   UNL     1     -10.850   5.796  70.519  1.00  0.00    -0.290 NA 
HETATM    4  H   UNL     1     -11.786   5.635  70.892  1.00  0.00     0.000 HD 
BRANCH   3   5
HETATM    5  C   UNL     1     -10.568   7.257  70.463  1.00  0.00    -0.222 C  
HETATM    6  C   UNL     1     -11.707   8.075  71.089  1.00  0.00    -0.307 C  
HETATM    7  C   UNL     1     -11.404   9.576  71.078  1.00  0.00    -0.352 C  
HETATM    8  C   UNL     1     -11.267  10.092  69.620  1.00  0.00    -0.261 C  
HETATM    9  N   UNL     1     -12.485  10.272  71.807  1.00  0.00    -0.382 NA 
HETATM   10  C   UNL     1     -10.166   7.738  69.039  1.00  0.00    -0.208 C  
HETATM   11  H2  UNL     1     -12.623   9.906  72.749  1.00  0.00     0.000 HD 
HETATM   12  H1  UNL     1     -12.283  11.271  71.799  1.00  0.00     0.000 HD 
HETATM   13  C   UNL     1     -10.232   9.262  68.814  1.00  0.00    -0.205 C  
HETATM   14  H   UNL     1      -9.809   8.909  66.894  1.00  0.00     0.000 HD 
HETATM   15  O   UNL     1     -10.442   9.417  67.387  1.00  0.00    -0.251 OA 
BRANCH   8  16
HETATM   16  O   UNL     1     -10.868  11.501  69.662  1.00  0.00    -0.139 OA 
BRANCH  16  17
HETATM   17  C   UNL     1     -11.849  12.414  69.119  1.00  0.00    -0.300 C  
HETATM   18  H1  UNL     1      -9.396  14.141  67.369  1.00  0.00     0.000 HD 
HETATM   19  O   UNL     1     -12.741  12.832  70.160  1.00  0.00     0.025 OA 
HETATM   20  C   UNL     1     -12.457  14.034  70.771  1.00  0.00    -0.372 C  
HETATM   21  H2  UNL     1      -9.564  12.492  67.596  1.00  0.00     0.000 HD 
HETATM   22  N   UNL     1      -9.790  13.415  67.966  1.00  0.00    -0.223 NA 
HETATM   23  C   UNL     1     -11.962  15.061  70.067  1.00  0.00    -0.375 C  
HETATM   24  C   UNL     1     -11.243  13.530  68.203  1.00  0.00    -0.272 C  
HETATM   25  C   UNL     1     -11.696  14.936  68.607  1.00  0.00    -0.358 C  
BRANCH  20  26
HETATM   26  C   UNL     1     -12.827  14.064  72.235  1.00  0.00    -0.315 C  
HETATM   27  N   UNL     1     -13.768  13.028  72.657  1.00  0.00    -0.725 NA 
HETATM   28  H2  UNL     1     -13.414  12.106  72.402  1.00  0.00     0.000 HD 
HETATM   29  H1  UNL     1     -14.018  13.048  73.646  1.00  0.00     0.000 HD 
ENDBRANCH  20  26
ENDBRANCH  16  17
ENDBRANCH   8  16
BRANCH  10  30
HETATM   30  O   UNL     1      -8.917   7.141  68.542  1.00  0.00    -0.128 OA 
BRANCH  30  31
HETATM   31  C   UNL     1      -9.026   5.875  67.864  1.00  0.00    -0.111 C  
HETATM   32  O   UNL     1      -6.753   5.317  68.614  1.00  0.00    -0.047 OA 
HETATM   33  C   UNL     1      -8.087   5.960  65.086  1.00  0.00    -0.131 C  
HETATM   34  C   UNL     1      -7.672   5.156  67.520  1.00  0.00    -0.092 C  
HETATM   35  O   UNL     1      -9.837   6.030  66.709  1.00  0.00    -0.148 OA 
HETATM   36  O   UNL     1      -8.726   4.797  64.521  1.00  0.00    -0.146 OA 
HETATM   37  C   UNL     1      -7.015   5.540  66.155  1.00  0.00    -0.063 C  
HETATM   38  H   UNL     1      -8.060   4.256  64.113  1.00  0.00     0.000 HD 
HETATM   39  C   UNL     1      -7.468   6.724  63.913  1.00  0.00    -0.094 C  
HETATM   40  H   UNL     1      -5.935   4.882  68.406  1.00  0.00     0.000 HD 
HETATM   41  C   UNL     1      -9.155   6.827  65.740  1.00  0.00     0.051 C  
BRANCH  37  42
HETATM   42  N   UNL     1      -6.178   4.456  65.563  1.00  0.00    -0.027 NA 
HETATM   43  H   UNL     1      -5.578   4.652  64.762  1.00  0.00     0.000 HD 
HETATM   44  C   UNL     1      -6.220   3.130  66.129  1.00  0.00    -0.025 C  
ENDBRANCH  37  42
ENDBRANCH  30  31
ENDBRANCH  10  30
ENDBRANCH   3   5
ENDBRANCH   2   3
TORSDOF 8
ENDMDL
MODEL      135
REMARK 921   NORMALIZED FREE ENERGY PREDICTED BY IDOCK:   -5.22 KCAL/MOL
REMARK 922        TOTAL FREE ENERGY PREDICTED BY IDOCK:   -8.40 KCAL/MOL
REMARK 923 INTER-LIGAND FREE ENERGY PREDICTED BY IDOCK:   -9.11 KCAL/MOL
REMARK 924 INTRA-LIGAND FREE ENERGY PREDICTED BY IDOCK:    0.71 KCAL/MOL
REMARK 927      BINDING AFFINITY PREDICTED BY RF-SCORE:    0.00 PKD
ROOT
HETATM    1  C   UNL     1      -8.743   9.591  62.561  1.00  0.00    -0.233 C  
HETATM    2  C   UNL     1      -8.652  10.058  64.007  1.00  0.00    -0.190 C  
ENDROOT
BRANCH   2   3
HETATM    3  N   UNL     1      -9.822   9.600  64.762  1.00  0.00    -0.397 NA 
HETATM    4  H   UNL     1      -9.527   8.998  65.532  1.00  0.00     0.000 HD 
BRANCH   3   5
HETATM    5  C   UNL     1     -10.716  10.676  65.271  1.00  0.00    -0.030 C  
HETATM    6  C   UNL     1     -10.504  11.992  64.507  1.00  0.00    -0.341 C  
HETATM    7  C   UNL     1     -11.453  13.092  64.992  1.00  0.00    -0.313 C  
HETATM    8  C   UNL     1     -11.184  13.423  66.485  1.00  0.00    -0.307 C  
HETATM    9  N   UNL     1     -11.271  14.275  64.127  1.00  0.00    -0.585 NA 
HETATM   10  C   UNL     1     -10.648  10.836  66.817  1.00  0.00    -0.250 C  
HETATM   11  H2  UNL     1     -11.391  14.060  63.137  1.00  0.00     0.000 HD 
HETATM   12  H1  UNL     1     -11.903  15.007  64.449  1.00  0.00     0.000 HD 
HETATM   13  C   UNL     1     -11.233  12.150  67.372  1.00  0.00    -0.302 C  
HETATM   14  H   UNL     1     -10.568  11.586  69.169  1.00  0.00     0.000 HD 
HETATM   15  O   UNL     1     -10.538  12.365  68.627  1.00  0.00    -0.226 OA 
BRANCH   8  16
HETATM   16  O   UNL     1     -12.184  14.394  66.932  1.00  0.00    -0.415 OA 
BRANCH  16  17
HETATM   17  C   UNL     1     -11.629  15.594  67.520  1.00  0.00    -0.040 C  
HETATM   18  H1  UNL     1      -8.492  14.885  66.210  1.00  0.00     0.000 HD 
HETATM   19  O   UNL     1     -12.084  15.719  68.873  1.00  0.00    -0.333 OA 
HETATM   20  C   UNL     1     -11.237  15.253  69.854  1.00  0.00    -0.288 C  
HETATM   21  H2  UNL     1      -9.995  14.708  65.496  1.00  0.00     0.000 HD 
HETATM   22  N   UNL     1      -9.490  14.762  66.381  1.00  0.00    -0.287 NA 
HETATM   23  C   UNL     1      -9.910  15.392  69.737  1.00  0.00    -0.236 C  
HETATM   24  C   UNL     1     -10.097  15.782  67.257  1.00  0.00    -0.247 C  
HETATM   25  C   UNL     1      -9.306  16.046  68.543  1.00  0.00    -0.213 C  
BRANCH  20  26
HETATM   26  C   UNL     1     -11.962  14.669  71.044  1.00  0.00    -0.339 C  
HETATM   27  N   UNL     1     -12.375  13.275  70.893  1.00  0.00    -0.393 NA 
HETATM   28  H2  UNL     1     -11.573  12.694  70.651  1.00  0.00     0.000 HD 
HETATM   29  H1  UNL     1     -12.865  12.880  71.696  1.00  0.00     0.000 HD 
ENDBRANCH  20  26
ENDBRANCH  16  17
ENDBRANCH   8  16
BRANCH  10  30
HETATM   30  O   UNL     1     -11.104   9.650  67.556  1.00  0.00    -0.206 OA 
BRANCH  30  31
HETATM   31  C   UNL     1     -10.085   8.797  68.112  1.00  0.00    -0.190 C  
HETATM   32  O   UNL     1     -11.363   6.838  67.357  1.00  0.00    -0.668 OA 
HETATM   33  C   UNL     1     -10.591   8.049  70.904  1.00  0.00    -0.213 C  
HETATM   34  C   UNL     1     -10.512   7.315  68.414  1.00  0.00    -0.195 C  
HETATM   35  O   UNL     1      -9.529   9.418  69.261  1.00  0.00    -0.154 OA 
HETATM   36  O   UNL     1      -9.278   7.649  71.346  1.00  0.00    -0.136 OA 
HETATM   37  C   UNL     1     -11.140   7.051  69.821  1.00  0.00    -0.241 C  
HETATM   38  H   UNL     1      -9.338   6.775  71.715  1.00  0.00     0.000 HD 
HETATM   39  C   UNL     1     -11.473   8.091  72.153  1.00  0.00    -0.393 C  
HETATM   40  H   UNL     1     -11.621   5.942  67.540  1.00  0.00     0.000 HD 
HETATM   41  C   UNL     1     -10.494   9.450  70.312  1.00  0.00    -0.251 C  
BRANCH  37  42
HETATM   42  N   UNL     1     -10.926   5.664  70.325  1.00  0.00    -0.269 NA 
HETATM   43  H   UNL     1     -11.423   5.337  71.153  1.00  0.00     0.000 HD 
HETATM   44  C   UNL     1     -10.011   4.786  69.637  1.00  0.00    -0.227 C  
ENDBRANCH  37  42
ENDBRANCH  30  31
ENDBRANCH  10  30
ENDBRANCH   3   5
ENDBRANCH   2   3
TORSDOF 8
ENDMDL
MODEL      136
REMARK 921   NORMALIZED FREE ENERGY PREDICTED BY IDOCK:   -5.21 KCAL/MOL
REMARK 922        TOTAL FREE ENERGY PREDICTED BY IDOCK:   -8.39 KCAL/MOL
REMARK 923 INTER-LIGAND FREE ENERGY PREDICTED BY IDOCK:   -6.51 KCAL/MOL
REMARK 924 INTRA-LIGAND FREE ENERGY PREDICTED BY IDOCK:   -1.89 KCAL/MOL
REMARK 927      BINDING AFFINITY PREDICTED BY RF-SCORE:    0.00 PKD
ROOT
HETATM    1  C   UNL     1     -13.172  11.261  71.739  1.00  0.00    -0.480 C  
HETATM    2  C   UNL     1     -13.244   9.775  72.064  1.00  0.00    -0.460 C  
ENDROOT
BRANCH   2   3
HETATM    3  N   UNL     1     -13.182   8.984  70.831  1.00  0.00    -0.518 NA 
HETATM    4  H   UNL     1     -13.002   9.594  70.033  1.00  0.00     0.000 HD 
BRANCH   3   5
HETATM    5  C   UNL     1     -12.208   7.858  70.842  1.00  0.00    -0.121 C  
HETATM    6  C   UNL     1     -12.462   6.906  72.021  1.00  0.00    -0.285 C  
HETATM    7  C   UNL     1     -11.494   5.719  72.013  1.00  0.00    -0.197 C  
HETATM    8  C   UNL     1     -10.029   6.210  72.176  1.00  0.00    -0.167 C  
HETATM    9  N   UNL     1     -11.886   4.795  73.098  1.00  0.00    -0.324 NA 
HETATM   10  C   UNL     1     -10.732   8.337  70.736  1.00  0.00    -0.218 C  
HETATM   11  H2  UNL     1     -12.862   4.507  73.035  1.00  0.00     0.000 HD 
HETATM   12  H1  UNL     1     -11.242   4.005  73.092  1.00  0.00     0.000 HD 
HETATM   13  C   UNL     1      -9.668   7.289  71.121  1.00  0.00    -0.171 C  
HETATM   14  H   UNL     1      -8.298   8.728  70.902  1.00  0.00     0.000 HD 
HETATM   15  O   UNL     1      -8.520   8.067  71.547  1.00  0.00    -0.107 OA 
BRANCH   8  16
HETATM   16  O   UNL     1      -9.137   5.056  72.050  1.00  0.00    -0.134 OA 
BRANCH  16  17
HETATM   17  C   UNL     1      -9.232   4.365  70.783  1.00  0.00    -0.138 C  
HETATM   18  H1  UNL     1     -10.450   1.507  72.337  1.00  0.00     0.000 HD 
HETATM   19  O   UNL     1      -8.038   4.593  70.023  1.00  0.00    -0.067 OA 
HETATM   20  C   UNL     1      -7.065   3.621  70.095  1.00  0.00    -0.041 C  
HETATM   21  H2  UNL     1     -10.815   3.111  72.646  1.00  0.00     0.000 HD 
HETATM   22  N   UNL     1     -10.121   2.470  72.262  1.00  0.00    -0.163 NA 
HETATM   23  C   UNL     1      -7.394   2.325  70.168  1.00  0.00    -0.036 C  
HETATM   24  C   UNL     1      -9.737   2.887  70.899  1.00  0.00    -0.072 C  
HETATM   25  C   UNL     1      -8.819   1.892  70.182  1.00  0.00    -0.124 C  
BRANCH  20  26
HETATM   26  C   UNL     1      -5.661   4.172  70.009  1.00  0.00    -0.013 C  
HETATM   27  N   UNL     1      -5.446   5.433  70.717  1.00  0.00    -0.008 NA 
HETATM   28  H2  UNL     1      -5.729   5.341  71.693  1.00  0.00     0.000 HD 
HETATM   29  H1  UNL     1      -4.498   5.806  70.659  1.00  0.00     0.000 HD 
ENDBRANCH  20  26
ENDBRANCH  16  17
ENDBRANCH   8  16
BRANCH  10  30
HETATM   30  O   UNL     1     -10.423   9.029  69.476  1.00  0.00    -0.211 OA 
BRANCH  30  31
HETATM   31  C   UNL     1     -10.123  10.435  69.562  1.00  0.00    -0.219 C  
HETATM   32  O   UNL     1     -12.195  10.917  68.332  1.00  0.00    -0.813 OA 
HETATM   33  C   UNL     1      -8.548  11.429  67.294  1.00  0.00    -0.146 C  
HETATM   34  C   UNL     1     -10.840  11.361  68.514  1.00  0.00    -0.211 C  
HETATM   35  O   UNL     1      -8.715  10.618  69.533  1.00  0.00    -0.096 OA 
HETATM   36  O   UNL     1      -7.991  12.647  67.831  1.00  0.00    -0.131 OA 
HETATM   37  C   UNL     1     -10.108  11.550  67.146  1.00  0.00    -0.197 C  
HETATM   38  H   UNL     1      -8.204  13.361  67.241  1.00  0.00     0.000 HD 
HETATM   39  C   UNL     1      -7.854  11.193  65.951  1.00  0.00     0.036 C  
HETATM   40  H   UNL     1     -12.629  11.476  67.698  1.00  0.00     0.000 HD 
HETATM   41  C   UNL     1      -8.208  10.285  68.241  1.00  0.00    -0.115 C  
BRANCH  37  42
HETATM   42  N   UNL     1     -10.405  12.851  66.479  1.00  0.00    -0.260 NA 
HETATM   43  H   UNL     1     -10.096  13.017  65.521  1.00  0.00     0.000 HD 
HETATM   44  C   UNL     1     -11.132  13.872  67.193  1.00  0.00    -0.300 C  
ENDBRANCH  37  42
ENDBRANCH  30  31
ENDBRANCH  10  30
ENDBRANCH   3   5
ENDBRANCH   2   3
TORSDOF 8
ENDMDL
MODEL      137
REMARK 921   NORMALIZED FREE ENERGY PREDICTED BY IDOCK:   -5.19 KCAL/MOL
REMARK 922        TOTAL FREE ENERGY PREDICTED BY IDOCK:   -8.36 KCAL/MOL
REMARK 923 INTER-LIGAND FREE ENERGY PREDICTED BY IDOCK:   -7.33 KCAL/MOL
REMARK 924 INTRA-LIGAND FREE ENERGY PREDICTED BY IDOCK:   -1.03 KCAL/MOL
REMARK 927      BINDING AFFINITY PREDICTED BY RF-SCORE:    0.00 PKD
ROOT
HETATM    1  C   UNL     1      -5.521  12.995  67.667  1.00  0.00    -0.093 C  
HETATM    2  C   UNL     1      -5.390  11.706  66.868  1.00  0.00    -0.125 C  
ENDROOT
BRANCH   2   3
HETATM    3  N   UNL     1      -6.691  11.316  66.318  1.00  0.00    -0.339 NA 
HETATM    4  H   UNL     1      -6.563  10.801  65.447  1.00  0.00     0.000 HD 
BRANCH   3   5
HETATM    5  C   UNL     1      -7.571  10.546  67.240  1.00  0.00    -0.096 C  
HETATM    6  C   UNL     1      -7.109   9.088  67.372  1.00  0.00    -0.079 C  
HETATM    7  C   UNL     1      -7.980   8.300  68.355  1.00  0.00    -0.119 C  
HETATM    8  C   UNL     1      -9.447   8.233  67.848  1.00  0.00    -0.146 C  
HETATM    9  N   UNL     1      -7.394   6.954  68.517  1.00  0.00    -0.088 NA 
HETATM   10  C   UNL     1      -9.081  10.692  66.894  1.00  0.00    -0.155 C  
HETATM   11  H2  UNL     1      -6.414   6.982  68.796  1.00  0.00     0.000 HD 
HETATM   12  H1  UNL     1      -7.974   6.429  69.171  1.00  0.00     0.000 HD 
HETATM   13  C   UNL     1     -10.011   9.646  67.541  1.00  0.00    -0.183 C  
HETATM   14  H   UNL     1     -11.499  10.430  66.463  1.00  0.00     0.000 HD 
HETATM   15  O   UNL     1     -11.154   9.566  66.651  1.00  0.00     0.128 OA 
BRANCH   8  16
HETATM   16  O   UNL     1     -10.260   7.571  68.871  1.00  0.00    -0.197 OA 
BRANCH  16  17
HETATM   17  C   UNL     1      -9.802   7.784  70.226  1.00  0.00    -0.184 C  
HETATM   18  H1  UNL     1     -10.587   4.513  71.093  1.00  0.00     0.000 HD 
HETATM   19  O   UNL     1     -10.302   9.037  70.709  1.00  0.00    -0.208 OA 
HETATM   20  C   UNL     1     -11.453   8.993  71.465  1.00  0.00    -0.337 C  
HETATM   21  H2  UNL     1      -9.890   5.091  69.686  1.00  0.00     0.000 HD 
HETATM   22  N   UNL     1     -10.478   5.325  70.486  1.00  0.00    -0.262 NA 
HETATM   23  C   UNL     1     -11.677   7.982  72.314  1.00  0.00    -0.428 C  
HETATM   24  C   UNL     1      -9.970   6.537  71.158  1.00  0.00    -0.182 C  
HETATM   25  C   UNL     1     -10.696   6.871  72.465  1.00  0.00    -0.263 C  
BRANCH  20  26
HETATM   26  C   UNL     1     -12.340  10.201  71.276  1.00  0.00    -0.400 C  
HETATM   27  N   UNL     1     -13.448  10.309  72.223  1.00  0.00    -0.575 NA 
HETATM   28  H2  UNL     1     -13.098  10.275  73.180  1.00  0.00     0.000 HD 
HETATM   29  H1  UNL     1     -14.047  11.125  72.096  1.00  0.00     0.000 HD 
ENDBRANCH  20  26
ENDBRANCH  16  17
ENDBRANCH   8  16
BRANCH  10  30
HETATM   30  O   UNL     1      -9.589  12.066  67.023  1.00  0.00    -0.189 OA 
BRANCH  30  31
HETATM   31  C   UNL     1      -9.469  12.686  68.317  1.00  0.00    -0.203 C  
HETATM   32  O   UNL     1     -11.779  12.012  68.814  1.00  0.00    -0.282 OA 
HETATM   33  C   UNL     1     -10.288  15.503  68.338  1.00  0.00    -0.230 C  
HETATM   34  C   UNL     1     -10.817  13.057  69.034  1.00  0.00    -0.155 C  
HETATM   35  O   UNL     1      -8.608  13.811  68.222  1.00  0.00    -0.166 OA 
HETATM   36  O   UNL     1      -9.642  15.991  69.532  1.00  0.00    -0.254 OA 
HETATM   37  C   UNL     1     -11.411  14.464  68.699  1.00  0.00    -0.273 C  
HETATM   38  H   UNL     1     -10.298  16.404  70.081  1.00  0.00     0.000 HD 
HETATM   39  C   UNL     1     -10.845  16.732  67.616  1.00  0.00    -0.252 C  
HETATM   40  H   UNL     1     -12.594  12.237  69.247  1.00  0.00     0.000 HD 
HETATM   41  C   UNL     1      -9.236  14.840  67.457  1.00  0.00    -0.198 C  
BRANCH  37  42
HETATM   42  N   UNL     1     -12.237  15.045  69.796  1.00  0.00    -0.451 NA 
HETATM   43  H   UNL     1     -12.804  15.876  69.626  1.00  0.00     0.000 HD 
HETATM   44  C   UNL     1     -12.232  14.429  71.100  1.00  0.00    -0.350 C  
ENDBRANCH  37  42
ENDBRANCH  30  31
ENDBRANCH  10  30
ENDBRANCH   3   5
ENDBRANCH   2   3
TORSDOF 8
ENDMDL
MODEL      138
REMARK 921   NORMALIZED FREE ENERGY PREDICTED BY IDOCK:   -5.19 KCAL/MOL
REMARK 922        TOTAL FREE ENERGY PREDICTED BY IDOCK:   -8.35 KCAL/MOL
REMARK 923 INTER-LIGAND FREE ENERGY PREDICTED BY IDOCK:   -6.56 KCAL/MOL
REMARK 924 INTRA-LIGAND FREE ENERGY PREDICTED BY IDOCK:   -1.79 KCAL/MOL
REMARK 927      BINDING AFFINITY PREDICTED BY RF-SCORE:    0.00 PKD
ROOT
HETATM    1  C   UNL     1     -10.621  11.336  63.563  1.00  0.00    -0.436 C  
HETATM    2  C   UNL     1      -9.541  10.917  64.551  1.00  0.00    -0.264 C  
ENDROOT
BRANCH   2   3
HETATM    3  N   UNL     1      -9.736   9.521  64.953  1.00  0.00    -0.438 NA 
HETATM    4  H   UNL     1      -8.971   8.946  64.600  1.00  0.00     0.000 HD 
BRANCH   3   5
HETATM    5  C   UNL     1      -9.912   9.294  66.414  1.00  0.00    -0.286 C  
HETATM    6  C   UNL     1     -10.447  10.550  67.118  1.00  0.00    -0.302 C  
HETATM    7  C   UNL     1     -10.676  10.312  68.613  1.00  0.00    -0.224 C  
HETATM    8  C   UNL     1      -9.336   9.971  69.321  1.00  0.00    -0.214 C  
HETATM    9  N   UNL     1     -11.305  11.520  69.184  1.00  0.00    -0.261 NA 
HETATM   10  C   UNL     1      -8.644   8.696  67.088  1.00  0.00    -0.121 C  
HETATM   11  H2  UNL     1     -12.158  11.789  68.694  1.00  0.00     0.000 HD 
HETATM   12  H1  UNL     1     -11.457  11.362  70.179  1.00  0.00     0.000 HD 
HETATM   13  C   UNL     1      -8.607   8.790  68.627  1.00  0.00    -0.134 C  
HETATM   14  H   UNL     1      -6.750   8.058  68.539  1.00  0.00     0.000 HD 
HETATM   15  O   UNL     1      -7.196   8.781  68.964  1.00  0.00    -0.070 OA 
BRANCH   8  16
HETATM   16  O   UNL     1      -9.620   9.642  70.719  1.00  0.00    -0.235 OA 
BRANCH  16  17
HETATM   17  C   UNL     1     -10.077   8.286  70.931  1.00  0.00    -0.190 C  
HETATM   18  H1  UNL     1     -13.233   9.404  71.855  1.00  0.00     0.000 HD 
HETATM   19  O   UNL     1      -9.081   7.555  71.658  1.00  0.00    -0.133 OA 
HETATM   20  C   UNL     1      -9.254   7.466  73.022  1.00  0.00    -0.165 C  
HETATM   21  H2  UNL     1     -12.237   9.957  70.629  1.00  0.00     0.000 HD 
HETATM   22  N   UNL     1     -12.270   9.471  71.525  1.00  0.00    -0.361 NA 
HETATM   23  C   UNL     1     -10.478   7.346  73.552  1.00  0.00    -0.396 C  
HETATM   24  C   UNL     1     -11.555   8.183  71.437  1.00  0.00    -0.278 C  
HETATM   25  C   UNL     1     -11.691   7.312  72.690  1.00  0.00    -0.203 C  
BRANCH  20  26
HETATM   26  C   UNL     1      -7.952   7.447  73.790  1.00  0.00    -0.119 C  
HETATM   27  N   UNL     1      -7.061   8.575  73.526  1.00  0.00    -0.307 NA 
HETATM   28  H2  UNL     1      -7.551   9.456  73.685  1.00  0.00     0.000 HD 
HETATM   29  H1  UNL     1      -6.183   8.563  74.044  1.00  0.00     0.000 HD 
ENDBRANCH  20  26
ENDBRANCH  16  17
ENDBRANCH   8  16
BRANCH  10  30
HETATM   30  O   UNL     1      -8.280   7.361  66.587  1.00  0.00    -0.118 OA 
BRANCH  30  31
HETATM   31  C   UNL     1      -9.008   6.243  67.129  1.00  0.00    -0.111 C  
HETATM   32  O   UNL     1      -7.081   5.728  68.563  1.00  0.00    -0.072 OA 
HETATM   33  C   UNL     1      -8.572   3.747  65.650  1.00  0.00    -0.112 C  
HETATM   34  C   UNL     1      -8.145   5.121  67.812  1.00  0.00    -0.099 C  
HETATM   35  O   UNL     1      -9.855   5.703  66.125  1.00  0.00    -0.149 OA 
HETATM   36  O   UNL     1      -9.715   2.962  66.048  1.00  0.00    -0.387 OA 
HETATM   37  C   UNL     1      -7.614   3.991  66.871  1.00  0.00    -0.084 C  
HETATM   38  H   UNL     1      -9.405   2.130  66.386  1.00  0.00     0.000 HD 
HETATM   39  C   UNL     1      -7.888   2.970  64.523  1.00  0.00    -0.078 C  
HETATM   40  H   UNL     1      -6.559   5.050  68.976  1.00  0.00     0.000 HD 
HETATM   41  C   UNL     1      -9.069   5.081  65.108  1.00  0.00    -0.123 C  
BRANCH  37  42
HETATM   42  N   UNL     1      -7.404   2.685  67.558  1.00  0.00    -0.056 NA 
HETATM   43  H   UNL     1      -7.758   1.824  67.141  1.00  0.00     0.000 HD 
HETATM   44  C   UNL     1      -6.701   2.642  68.817  1.00  0.00    -0.036 C  
ENDBRANCH  37  42
ENDBRANCH  30  31
ENDBRANCH  10  30
ENDBRANCH   3   5
ENDBRANCH   2   3
TORSDOF 8
ENDMDL
MODEL      139
REMARK 921   NORMALIZED FREE ENERGY PREDICTED BY IDOCK:   -5.18 KCAL/MOL
REMARK 922        TOTAL FREE ENERGY PREDICTED BY IDOCK:   -8.34 KCAL/MOL
REMARK 923 INTER-LIGAND FREE ENERGY PREDICTED BY IDOCK:   -6.74 KCAL/MOL
REMARK 924 INTRA-LIGAND FREE ENERGY PREDICTED BY IDOCK:   -1.60 KCAL/MOL
REMARK 927      BINDING AFFINITY PREDICTED BY RF-SCORE:    0.00 PKD
ROOT
HETATM    1  C   UNL     1      -8.389   9.401  63.493  1.00  0.00    -0.184 C  
HETATM    2  C   UNL     1      -8.395   8.229  64.466  1.00  0.00    -0.087 C  
ENDROOT
BRANCH   2   3
HETATM    3  N   UNL     1      -9.485   8.380  65.434  1.00  0.00    -0.385 NA 
HETATM    4  H   UNL     1     -10.199   7.670  65.268  1.00  0.00     0.000 HD 
BRANCH   3   5
HETATM    5  C   UNL     1      -9.076   8.367  66.865  1.00  0.00    -0.148 C  
HETATM    6  C   UNL     1      -8.202   7.147  67.190  1.00  0.00    -0.118 C  
HETATM    7  C   UNL     1      -7.738   7.151  68.650  1.00  0.00    -0.120 C  
HETATM    8  C   UNL     1      -8.957   7.063  69.608  1.00  0.00    -0.141 C  
HETATM    9  N   UNL     1      -6.807   6.021  68.843  1.00  0.00    -0.064 NA 
HETATM   10  C   UNL     1     -10.278   8.548  67.837  1.00  0.00    -0.218 C  
HETATM   11  H2  UNL     1      -6.029   6.035  68.183  1.00  0.00     0.000 HD 
HETATM   12  H1  UNL     1      -6.497   6.024  69.814  1.00  0.00     0.000 HD 
HETATM   13  C   UNL     1     -10.003   8.169  69.306  1.00  0.00    -0.188 C  
HETATM   14  H   UNL     1     -11.943   8.491  69.661  1.00  0.00     0.000 HD 
HETATM   15  O   UNL     1     -11.302   7.815  69.846  1.00  0.00    -0.139 OA 
BRANCH   8  16
HETATM   16  O   UNL     1      -8.473   7.184  70.985  1.00  0.00    -0.126 OA 
BRANCH  16  17
HETATM   17  C   UNL     1      -8.989   6.178  71.888  1.00  0.00    -0.140 C  
HETATM   18  H1  UNL     1     -10.534   8.600  73.839  1.00  0.00     0.000 HD 
HETATM   19  O   UNL     1      -7.955   5.234  72.193  1.00  0.00    -0.106 OA 
HETATM   20  C   UNL     1      -7.257   5.440  73.363  1.00  0.00    -0.087 C  
HETATM   21  H2  UNL     1     -10.423   8.504  72.173  1.00  0.00     0.000 HD 
HETATM   22  N   UNL     1     -10.000   8.222  73.057  1.00  0.00    -0.233 NA 
HETATM   23  C   UNL     1      -7.873   5.907  74.456  1.00  0.00    -0.099 C  
HETATM   24  C   UNL     1      -9.808   6.758  73.089  1.00  0.00    -0.179 C  
HETATM   25  C   UNL     1      -9.328   6.226  74.443  1.00  0.00    -0.200 C  
BRANCH  20  26
HETATM   26  C   UNL     1      -5.807   5.022  73.276  1.00  0.00    -0.022 C  
HETATM   27  N   UNL     1      -5.422   4.378  72.022  1.00  0.00    -0.004 NA 
HETATM   28  H2  UNL     1      -5.664   4.975  71.231  1.00  0.00     0.000 HD 
HETATM   29  H1  UNL     1      -4.444   4.095  71.964  1.00  0.00     0.000 HD 
ENDBRANCH  20  26
ENDBRANCH  16  17
ENDBRANCH   8  16
BRANCH  10  30
HETATM   30  O   UNL     1     -10.962   9.843  67.699  1.00  0.00    -0.289 OA 
BRANCH  30  31
HETATM   31  C   UNL     1     -10.127  11.011  67.585  1.00  0.00    -0.182 C  
HETATM   32  O   UNL     1     -10.932  11.757  69.784  1.00  0.00    -0.460 OA 
HETATM   33  C   UNL     1     -11.479  13.287  66.321  1.00  0.00    -0.325 C  
HETATM   34  C   UNL     1     -10.521  12.233  68.492  1.00  0.00    -0.232 C  
HETATM   35  O   UNL     1     -10.033  11.390  66.220  1.00  0.00    -0.211 OA 
HETATM   36  O   UNL     1     -10.363  14.097  65.897  1.00  0.00    -0.294 OA 
HETATM   37  C   UNL     1     -11.561  13.232  67.889  1.00  0.00    -0.334 C  
HETATM   38  H   UNL     1     -10.478  14.974  66.244  1.00  0.00     0.000 HD 
HETATM   39  C   UNL     1     -12.728  13.914  65.697  1.00  0.00    -0.534 C  
HETATM   40  H   UNL     1     -11.170  12.495  70.332  1.00  0.00     0.000 HD 
HETATM   41  C   UNL     1     -11.294  11.881  65.764  1.00  0.00    -0.299 C  
BRANCH  37  42
HETATM   42  N   UNL     1     -11.425  14.625  68.404  1.00  0.00    -0.296 NA 
HETATM   43  H   UNL     1     -10.851  15.303  67.903  1.00  0.00     0.000 HD 
HETATM   44  C   UNL     1     -12.108  15.010  69.615  1.00  0.00    -0.300 C  
ENDBRANCH  37  42
ENDBRANCH  30  31
ENDBRANCH  10  30
ENDBRANCH   3   5
ENDBRANCH   2   3
TORSDOF 8
ENDMDL
MODEL      140
REMARK 921   NORMALIZED FREE ENERGY PREDICTED BY IDOCK:   -5.13 KCAL/MOL
REMARK 922        TOTAL FREE ENERGY PREDICTED BY IDOCK:   -8.28 KCAL/MOL
REMARK 923 INTER-LIGAND FREE ENERGY PREDICTED BY IDOCK:   -7.10 KCAL/MOL
REMARK 924 INTRA-LIGAND FREE ENERGY PREDICTED BY IDOCK:   -1.18 KCAL/MOL
REMARK 927      BINDING AFFINITY PREDICTED BY RF-SCORE:    0.00 PKD
ROOT
HETATM    1  C   UNL     1      -6.597   5.136  70.843  1.00  0.00    -0.035 C  
HETATM    2  C   UNL     1      -7.798   4.240  71.117  1.00  0.00    -0.071 C  
ENDROOT
BRANCH   2   3
HETATM    3  N   UNL     1      -9.039   4.934  70.761  1.00  0.00    -0.132 NA 
HETATM    4  H   UNL     1      -9.566   5.161  71.605  1.00  0.00     0.000 HD 
BRANCH   3   5
HETATM    5  C   UNL     1      -8.873   6.152  69.920  1.00  0.00    -0.140 C  
HETATM    6  C   UNL     1      -9.179   7.430  70.715  1.00  0.00    -0.159 C  
HETATM    7  C   UNL     1      -8.965   8.690  69.871  1.00  0.00    -0.149 C  
HETATM    8  C   UNL     1      -9.938   8.704  68.660  1.00  0.00    -0.183 C  
HETATM    9  N   UNL     1      -9.157   9.868  70.742  1.00  0.00    -0.325 NA 
HETATM   10  C   UNL     1      -9.641   6.060  68.570  1.00  0.00    -0.121 C  
HETATM   11  H2  UNL     1      -8.563   9.845  71.571  1.00  0.00     0.000 HD 
HETATM   12  H1  UNL     1      -9.015  10.707  70.180  1.00  0.00     0.000 HD 
HETATM   13  C   UNL     1      -9.835   7.398  67.829  1.00  0.00    -0.152 C  
HETATM   14  H   UNL     1     -10.961   6.404  66.511  1.00  0.00     0.000 HD 
HETATM   15  O   UNL     1     -11.024   7.204  67.020  1.00  0.00    -0.369 OA 
BRANCH   8  16
HETATM   16  O   UNL     1      -9.621   9.865  67.825  1.00  0.00    -0.140 OA 
BRANCH  16  17
HETATM   17  C   UNL     1     -10.779  10.581  67.337  1.00  0.00    -0.281 C  
HETATM   18  H1  UNL     1      -8.793  13.207  66.230  1.00  0.00     0.000 HD 
HETATM   19  O   UNL     1     -11.821  10.531  68.319  1.00  0.00    -0.406 OA 
HETATM   20  C   UNL     1     -11.928  11.616  69.162  1.00  0.00    -0.313 C  
HETATM   21  H2  UNL     1      -8.508  11.561  66.140  1.00  0.00     0.000 HD 
HETATM   22  N   UNL     1      -9.008  12.297  66.638  1.00  0.00    -0.205 NA 
HETATM   23  C   UNL     1     -11.693  12.857  68.716  1.00  0.00    -0.363 C  
HETATM   24  C   UNL     1     -10.448  11.978  66.712  1.00  0.00    -0.214 C  
HETATM   25  C   UNL     1     -11.302  13.106  67.301  1.00  0.00    -0.344 C  
BRANCH  20  26
HETATM   26  C   UNL     1     -12.391  11.250  70.553  1.00  0.00    -0.356 C  
HETATM   27  N   UNL     1     -13.218  10.048  70.633  1.00  0.00    -0.607 NA 
HETATM   28  H2  UNL     1     -12.735   9.259  70.204  1.00  0.00     0.000 HD 
HETATM   29  H1  UNL     1     -13.531   9.800  71.572  1.00  0.00     0.000 HD 
ENDBRANCH  20  26
ENDBRANCH  16  17
ENDBRANCH   8  16
BRANCH  10  30
HETATM   30  O   UNL     1      -9.164   4.982  67.690  1.00  0.00    -0.114 OA 
BRANCH  30  31
HETATM   31  C   UNL     1      -8.848   5.343  66.332  1.00  0.00    -0.123 C  
HETATM   32  O   UNL     1     -11.161   4.815  65.691  1.00  0.00    -0.888 OA 
HETATM   33  C   UNL     1      -7.888   3.086  64.723  1.00  0.00    -0.078 C  
HETATM   34  C   UNL     1      -9.803   4.768  65.223  1.00  0.00    -0.064 C  
HETATM   35  O   UNL     1      -7.492   5.020  66.064  1.00  0.00    -0.080 OA 
HETATM   36  O   UNL     1      -7.212   3.759  63.641  1.00  0.00    -0.049 OA 
HETATM   37  C   UNL     1      -9.435   3.356  64.663  1.00  0.00    -0.154 C  
HETATM   38  H   UNL     1      -7.563   3.436  62.819  1.00  0.00     0.000 HD 
HETATM   39  C   UNL     1      -7.554   1.599  64.582  1.00  0.00    -0.063 C  
HETATM   40  H   UNL     1     -11.738   4.467  65.021  1.00  0.00     0.000 HD 
HETATM   41  C   UNL     1      -7.325   3.603  66.040  1.00  0.00    -0.076 C  
BRANCH  37  42
HETATM   42  N   UNL     1      -9.887   3.129  63.260  1.00  0.00    -0.104 NA 
HETATM   43  H   UNL     1      -9.461   3.653  62.494  1.00  0.00     0.000 HD 
HETATM   44  C   UNL     1     -10.927   2.168  62.988  1.00  0.00    -0.241 C  
ENDBRANCH  37  42
ENDBRANCH  30  31
ENDBRANCH  10  30
ENDBRANCH   3   5
ENDBRANCH   2   3
TORSDOF 8
ENDMDL
MODEL      141
REMARK 921   NORMALIZED FREE ENERGY PREDICTED BY IDOCK:   -5.13 KCAL/MOL
REMARK 922        TOTAL FREE ENERGY PREDICTED BY IDOCK:   -8.27 KCAL/MOL
REMARK 923 INTER-LIGAND FREE ENERGY PREDICTED BY IDOCK:   -6.47 KCAL/MOL
REMARK 924 INTRA-LIGAND FREE ENERGY PREDICTED BY IDOCK:   -1.79 KCAL/MOL
REMARK 927      BINDING AFFINITY PREDICTED BY RF-SCORE:    0.00 PKD
ROOT
HETATM    1  C   UNL     1     -13.076  11.140  71.782  1.00  0.00    -0.536 C  
HETATM    2  C   UNL     1     -13.334   9.667  72.068  1.00  0.00    -0.457 C  
ENDROOT
BRANCH   2   3
HETATM    3  N   UNL     1     -13.065   8.864  70.872  1.00  0.00    -0.504 NA 
HETATM    4  H   UNL     1     -13.025   9.465  70.049  1.00  0.00     0.000 HD 
BRANCH   3   5
HETATM    5  C   UNL     1     -11.848   8.007  70.937  1.00  0.00    -0.224 C  
HETATM    6  C   UNL     1     -11.957   6.961  72.056  1.00  0.00    -0.342 C  
HETATM    7  C   UNL     1     -10.730   6.045  72.100  1.00  0.00    -0.226 C  
HETATM    8  C   UNL     1      -9.449   6.866  72.412  1.00  0.00    -0.139 C  
HETATM    9  N   UNL     1     -10.970   4.997  73.114  1.00  0.00    -0.283 NA 
HETATM   10  C   UNL     1     -10.531   8.834  70.983  1.00  0.00    -0.230 C  
HETATM   11  H2  UNL     1     -11.838   4.485  72.952  1.00  0.00     0.000 HD 
HETATM   12  H1  UNL     1     -10.154   4.388  73.143  1.00  0.00     0.000 HD 
HETATM   13  C   UNL     1      -9.278   8.055  71.430  1.00  0.00    -0.144 C  
HETATM   14  H   UNL     1      -8.290   9.791  71.385  1.00  0.00     0.000 HD 
HETATM   15  O   UNL     1      -8.395   9.063  71.986  1.00  0.00    -0.366 OA 
BRANCH   8  16
HETATM   16  O   UNL     1      -8.293   5.970  72.333  1.00  0.00    -0.116 OA 
BRANCH  16  17
HETATM   17  C   UNL     1      -8.200   5.226  71.096  1.00  0.00    -0.118 C  
HETATM   18  H1  UNL     1      -7.288   2.341  72.802  1.00  0.00     0.000 HD 
HETATM   19  O   UNL     1      -7.503   6.008  70.119  1.00  0.00    -0.084 OA 
HETATM   20  C   UNL     1      -6.156   5.759  69.975  1.00  0.00    -0.026 C  
HETATM   21  H2  UNL     1      -8.437   3.487  73.210  1.00  0.00     0.000 HD 
HETATM   22  N   UNL     1      -7.582   3.310  72.682  1.00  0.00    -0.050 NA 
HETATM   23  C   UNL     1      -5.673   4.514  70.086  1.00  0.00    -0.013 C  
HETATM   24  C   UNL     1      -7.749   3.738  71.279  1.00  0.00    -0.059 C  
HETATM   25  C   UNL     1      -6.572   3.362  70.373  1.00  0.00    -0.032 C  
BRANCH  20  26
HETATM   26  C   UNL     1      -5.353   6.989  69.623  1.00  0.00    -0.015 C  
HETATM   27  N   UNL     1      -5.790   8.221  70.277  1.00  0.00    -0.028 NA 
HETATM   28  H2  UNL     1      -5.813   8.094  71.288  1.00  0.00     0.000 HD 
HETATM   29  H1  UNL     1      -5.248   9.052  70.039  1.00  0.00     0.000 HD 
ENDBRANCH  20  26
ENDBRANCH  16  17
ENDBRANCH   8  16
BRANCH  10  30
HETATM   30  O   UNL     1     -10.300   9.646  69.779  1.00  0.00    -0.209 OA 
BRANCH  30  31
HETATM   31  C   UNL     1      -9.306   9.169  68.852  1.00  0.00    -0.146 C  
HETATM   32  O   UNL     1      -7.898  11.102  69.421  1.00  0.00    -0.341 OA 
HETATM   33  C   UNL     1      -9.649  10.221  66.135  1.00  0.00    -0.197 C  
HETATM   34  C   UNL     1      -8.272  10.235  68.337  1.00  0.00    -0.114 C  
HETATM   35  O   UNL     1      -9.949   8.509  67.772  1.00  0.00    -0.170 OA 
HETATM   36  O   UNL     1      -8.899   9.270  65.352  1.00  0.00    -0.168 OA 
HETATM   37  C   UNL     1      -8.693  11.047  67.070  1.00  0.00    -0.141 C  
HETATM   38  H   UNL     1      -8.267   9.746  64.826  1.00  0.00     0.000 HD 
HETATM   39  C   UNL     1     -10.394  11.109  65.137  1.00  0.00    -0.354 C  
HETATM   40  H   UNL     1      -7.274  11.746  69.109  1.00  0.00     0.000 HD 
HETATM   41  C   UNL     1     -10.663   9.458  66.978  1.00  0.00    -0.137 C  
BRANCH  37  42
HETATM   42  N   UNL     1      -7.542  11.518  66.247  1.00  0.00    -0.372 NA 
HETATM   43  H   UNL     1      -7.689  12.207  65.508  1.00  0.00     0.000 HD 
HETATM   44  C   UNL     1      -6.221  10.997  66.499  1.00  0.00    -0.133 C  
ENDBRANCH  37  42
ENDBRANCH  30  31
ENDBRANCH  10  30
ENDBRANCH   3   5
ENDBRANCH   2   3
TORSDOF 8
ENDMDL
MODEL      142
REMARK 921   NORMALIZED FREE ENERGY PREDICTED BY IDOCK:   -5.12 KCAL/MOL
REMARK 922        TOTAL FREE ENERGY PREDICTED BY IDOCK:   -8.26 KCAL/MOL
REMARK 923 INTER-LIGAND FREE ENERGY PREDICTED BY IDOCK:   -7.11 KCAL/MOL
REMARK 924 INTRA-LIGAND FREE ENERGY PREDICTED BY IDOCK:   -1.15 KCAL/MOL
REMARK 927      BINDING AFFINITY PREDICTED BY RF-SCORE:    0.00 PKD
ROOT
HETATM    1  C   UNL     1     -13.500   9.470  71.665  1.00  0.00    -0.463 C  
HETATM    2  C   UNL     1     -12.509  10.542  71.232  1.00  0.00    -0.419 C  
ENDROOT
BRANCH   2   3
HETATM    3  N   UNL     1     -12.230  10.423  69.798  1.00  0.00    -0.515 NA 
HETATM    4  H   UNL     1     -13.104  10.382  69.274  1.00  0.00     0.000 HD 
BRANCH   3   5
HETATM    5  C   UNL     1     -11.343  11.475  69.229  1.00  0.00    -0.288 C  
HETATM    6  C   UNL     1     -12.153  12.666  68.697  1.00  0.00    -0.144 C  
HETATM    7  C   UNL     1     -11.246  13.774  68.152  1.00  0.00    -0.271 C  
HETATM    8  C   UNL     1     -10.418  13.255  66.945  1.00  0.00    -0.261 C  
HETATM    9  N   UNL     1     -12.094  14.925  67.780  1.00  0.00    -0.528 NA 
HETATM   10  C   UNL     1     -10.320  10.910  68.202  1.00  0.00    -0.178 C  
HETATM   11  H2  UNL     1     -12.685  15.243  68.549  1.00  0.00     0.000 HD 
HETATM   12  H1  UNL     1     -11.491  15.663  67.418  1.00  0.00     0.000 HD 
HETATM   13  C   UNL     1      -9.640  11.960  67.300  1.00  0.00    -0.177 C  
HETATM   14  H   UNL     1      -8.794  10.440  66.318  1.00  0.00     0.000 HD 
HETATM   15  O   UNL     1      -9.269  11.233  66.101  1.00  0.00    -0.194 OA 
BRANCH   8  16
HETATM   16  O   UNL     1      -9.489  14.309  66.532  1.00  0.00    -0.272 OA 
BRANCH  16  17
HETATM   17  C   UNL     1      -9.058  15.177  67.606  1.00  0.00    -0.180 C  
HETATM   18  H1  UNL     1      -9.308  17.973  65.559  1.00  0.00     0.000 HD 
HETATM   19  O   UNL     1      -7.935  14.590  68.274  1.00  0.00    -0.122 OA 
HETATM   20  C   UNL     1      -6.687  15.022  67.879  1.00  0.00    -0.156 C  
HETATM   21  H2  UNL     1     -10.333  16.655  65.672  1.00  0.00     0.000 HD 
HETATM   22  N   UNL     1      -9.382  16.990  65.824  1.00  0.00    -0.528 NA 
HETATM   23  C   UNL     1      -6.480  16.301  67.539  1.00  0.00    -0.195 C  
HETATM   24  C   UNL     1      -8.945  16.685  67.200  1.00  0.00    -0.210 C  
HETATM   25  C   UNL     1      -7.588  17.295  67.569  1.00  0.00    -0.194 C  
BRANCH  20  26
HETATM   26  C   UNL     1      -5.631  13.944  67.949  1.00  0.00    -0.100 C  
HETATM   27  N   UNL     1      -5.639  13.148  69.175  1.00  0.00    -0.071 NA 
HETATM   28  H2  UNL     1      -6.563  12.745  69.326  1.00  0.00     0.000 HD 
HETATM   29  H1  UNL     1      -4.926  12.421  69.222  1.00  0.00     0.000 HD 
ENDBRANCH  20  26
ENDBRANCH  16  17
ENDBRANCH   8  16
BRANCH  10  30
HETATM   30  O   UNL     1      -9.367   9.951  68.782  1.00  0.00    -0.147 OA 
BRANCH  30  31
HETATM   31  C   UNL     1      -9.251   8.672  68.129  1.00  0.00    -0.137 C  
HETATM   32  O   UNL     1     -10.947   7.775  69.665  1.00  0.00    -0.366 OA 
HETATM   33  C   UNL     1      -7.230   6.926  69.343  1.00  0.00    -0.089 C  
HETATM   34  C   UNL     1      -9.748   7.429  68.951  1.00  0.00    -0.150 C  
HETATM   35  O   UNL     1      -7.917   8.494  67.678  1.00  0.00    -0.105 OA 
HETATM   36  O   UNL     1      -6.972   5.987  68.279  1.00  0.00    -0.071 OA 
HETATM   37  C   UNL     1      -8.693   6.757  69.890  1.00  0.00    -0.141 C  
HETATM   38  H   UNL     1      -7.089   5.107  68.619  1.00  0.00     0.000 HD 
HETATM   39  C   UNL     1      -6.175   6.660  70.418  1.00  0.00    -0.032 C  
HETATM   40  H   UNL     1     -11.247   7.023  70.162  1.00  0.00     0.000 HD 
HETATM   41  C   UNL     1      -7.043   8.336  68.796  1.00  0.00    -0.071 C  
BRANCH  37  42
HETATM   42  N   UNL     1      -8.932   5.303  70.120  1.00  0.00    -0.126 NA 
HETATM   43  H   UNL     1      -8.371   4.608  69.627  1.00  0.00     0.000 HD 
HETATM   44  C   UNL     1      -9.960   4.883  71.040  1.00  0.00    -0.212 C  
ENDBRANCH  37  42
ENDBRANCH  30  31
ENDBRANCH  10  30
ENDBRANCH   3   5
ENDBRANCH   2   3
TORSDOF 8
ENDMDL
MODEL      143
REMARK 921   NORMALIZED FREE ENERGY PREDICTED BY IDOCK:   -5.11 KCAL/MOL
REMARK 922        TOTAL FREE ENERGY PREDICTED BY IDOCK:   -8.24 KCAL/MOL
REMARK 923 INTER-LIGAND FREE ENERGY PREDICTED BY IDOCK:   -7.42 KCAL/MOL
REMARK 924 INTRA-LIGAND FREE ENERGY PREDICTED BY IDOCK:   -0.82 KCAL/MOL
REMARK 927      BINDING AFFINITY PREDICTED BY RF-SCORE:    0.00 PKD
ROOT
HETATM    1  C   UNL     1      -5.550  12.927  69.842  1.00  0.00    -0.112 C  
HETATM    2  C   UNL     1      -6.324  11.616  69.859  1.00  0.00    -0.124 C  
ENDROOT
BRANCH   2   3
HETATM    3  N   UNL     1      -7.586  11.763  69.128  1.00  0.00    -0.327 NA 
HETATM    4  H   UNL     1      -7.406  11.799  68.125  1.00  0.00     0.000 HD 
BRANCH   3   5
HETATM    5  C   UNL     1      -8.621  10.734  69.424  1.00  0.00     0.034 C  
HETATM    6  C   UNL     1      -8.038   9.568  70.237  1.00  0.00    -0.200 C  
HETATM    7  C   UNL     1      -9.106   8.527  70.586  1.00  0.00    -0.160 C  
HETATM    8  C   UNL     1      -9.689   7.891  69.295  1.00  0.00    -0.159 C  
HETATM    9  N   UNL     1      -8.493   7.513  71.468  1.00  0.00    -0.114 NA 
HETATM   10  C   UNL     1      -9.400  10.280  68.156  1.00  0.00    -0.139 C  
HETATM   11  H2  UNL     1      -8.057   7.922  72.295  1.00  0.00     0.000 HD 
HETATM   12  H1  UNL     1      -9.203   6.820  71.701  1.00  0.00     0.000 HD 
HETATM   13  C   UNL     1     -10.201   8.972  68.306  1.00  0.00    -0.204 C  
HETATM   14  H   UNL     1     -10.609   9.101  66.354  1.00  0.00     0.000 HD 
HETATM   15  O   UNL     1     -10.296   8.439  66.960  1.00  0.00    -0.277 OA 
BRANCH   8  16
HETATM   16  O   UNL     1     -10.779   6.989  69.673  1.00  0.00    -0.226 OA 
BRANCH  16  17
HETATM   17  C   UNL     1     -10.570   5.610  69.293  1.00  0.00    -0.288 C  
HETATM   18  H1  UNL     1     -10.126   4.674  72.609  1.00  0.00     0.000 HD 
HETATM   19  O   UNL     1      -9.685   5.553  68.167  1.00  0.00    -0.121 OA 
HETATM   20  C   UNL     1      -8.354   5.326  68.438  1.00  0.00    -0.093 C  
HETATM   21  H2  UNL     1     -11.231   5.748  71.956  1.00  0.00     0.000 HD 
HETATM   22  N   UNL     1     -10.327   5.295  71.825  1.00  0.00    -0.209 NA 
HETATM   23  C   UNL     1      -7.987   4.503  69.430  1.00  0.00    -0.061 C  
HETATM   24  C   UNL     1     -10.262   4.656  70.496  1.00  0.00    -0.141 C  
HETATM   25  C   UNL     1      -9.001   3.814  70.274  1.00  0.00    -0.170 C  
BRANCH  20  26
HETATM   26  C   UNL     1      -7.419   6.025  67.479  1.00  0.00    -0.082 C  
HETATM   27  N   UNL     1      -6.828   7.263  67.983  1.00  0.00    -0.068 NA 
HETATM   28  H2  UNL     1      -6.357   7.092  68.872  1.00  0.00     0.000 HD 
HETATM   29  H1  UNL     1      -6.197   7.736  67.336  1.00  0.00     0.000 HD 
ENDBRANCH  20  26
ENDBRANCH  16  17
ENDBRANCH   8  16
BRANCH  10  30
HETATM   30  O   UNL     1     -10.176  11.357  67.521  1.00  0.00    -0.181 OA 
BRANCH  30  31
HETATM   31  C   UNL     1      -9.551  12.050  66.425  1.00  0.00    -0.228 C  
HETATM   32  O   UNL     1     -10.497  14.157  67.264  1.00  0.00    -0.269 OA 
HETATM   33  C   UNL     1     -11.255  12.235  64.044  1.00  0.00    -0.392 C  
HETATM   34  C   UNL     1     -10.157  13.453  66.058  1.00  0.00    -0.304 C  
HETATM   35  O   UNL     1      -9.506  11.195  65.293  1.00  0.00    -0.215 OA 
HETATM   36  O   UNL     1     -10.288  12.500  63.007  1.00  0.00    -0.502 OA 
HETATM   37  C   UNL     1     -11.344  13.446  65.042  1.00  0.00    -0.312 C  
HETATM   38  H   UNL     1     -10.555  13.283  62.539  1.00  0.00     0.000 HD 
HETATM   39  C   UNL     1     -12.584  11.968  63.335  1.00  0.00    -0.592 C  
HETATM   40  H   UNL     1     -10.863  15.005  67.042  1.00  0.00     0.000 HD 
HETATM   41  C   UNL     1     -10.826  10.980  64.793  1.00  0.00    -0.163 C  
BRANCH  37  42
HETATM   42  N   UNL     1     -11.454  14.697  64.236  1.00  0.00    -0.639 NA 
HETATM   43  H   UNL     1     -11.779  14.657  63.270  1.00  0.00     0.000 HD 
HETATM   44  C   UNL     1     -11.099  15.963  64.828  1.00  0.00    -0.384 C  
ENDBRANCH  37  42
ENDBRANCH  30  31
ENDBRANCH  10  30
ENDBRANCH   3   5
ENDBRANCH   2   3
TORSDOF 8
ENDMDL
MODEL      144
REMARK 921   NORMALIZED FREE ENERGY PREDICTED BY IDOCK:   -5.09 KCAL/MOL
REMARK 922        TOTAL FREE ENERGY PREDICTED BY IDOCK:   -8.22 KCAL/MOL
REMARK 923 INTER-LIGAND FREE ENERGY PREDICTED BY IDOCK:   -6.59 KCAL/MOL
REMARK 924 INTRA-LIGAND FREE ENERGY PREDICTED BY IDOCK:   -1.63 KCAL/MOL
REMARK 927      BINDING AFFINITY PREDICTED BY RF-SCORE:    0.00 PKD
ROOT
HETATM    1  C   UNL     1     -11.507   6.582  71.931  1.00  0.00    -0.345 C  
HETATM    2  C   UNL     1     -10.886   6.226  70.587  1.00  0.00    -0.280 C  
ENDROOT
BRANCH   2   3
HETATM    3  N   UNL     1     -11.728   6.719  69.493  1.00  0.00    -0.637 NA 
HETATM    4  H   UNL     1     -12.028   7.674  69.687  1.00  0.00     0.000 HD 
BRANCH   3   5
HETATM    5  C   UNL     1     -11.124   6.639  68.134  1.00  0.00    -0.198 C  
HETATM    6  C   UNL     1     -10.604   5.226  67.833  1.00  0.00    -0.098 C  
HETATM    7  C   UNL     1     -10.023   5.122  66.419  1.00  0.00    -0.213 C  
HETATM    8  C   UNL     1      -8.798   6.065  66.264  1.00  0.00    -0.141 C  
HETATM    9  N   UNL     1      -9.664   3.712  66.168  1.00  0.00    -0.380 NA 
HETATM   10  C   UNL     1     -10.074   7.757  67.875  1.00  0.00    -0.185 C  
HETATM   11  H2  UNL     1     -10.446   3.074  66.319  1.00  0.00     0.000 HD 
HETATM   12  H1  UNL     1      -9.278   3.643  65.227  1.00  0.00     0.000 HD 
HETATM   13  C   UNL     1      -9.143   7.523  66.669  1.00  0.00    -0.158 C  
HETATM   14  H   UNL     1      -8.152   9.166  67.226  1.00  0.00     0.000 HD 
HETATM   15  O   UNL     1      -7.941   8.273  66.978  1.00  0.00    -0.099 OA 
BRANCH   8  16
HETATM   16  O   UNL     1      -8.349   6.016  64.871  1.00  0.00    -0.139 OA 
BRANCH  16  17
HETATM   17  C   UNL     1      -6.943   5.717  64.709  1.00  0.00    -0.052 C  
HETATM   18  H1  UNL     1      -7.674   2.924  62.778  1.00  0.00     0.000 HD 
HETATM   19  O   UNL     1      -6.277   5.847  65.972  1.00  0.00    -0.034 OA 
HETATM   20  C   UNL     1      -6.093   4.689  66.695  1.00  0.00    -0.031 C  
HETATM   21  H2  UNL     1      -8.396   4.433  62.763  1.00  0.00     0.000 HD 
HETATM   22  N   UNL     1      -7.859   3.768  63.319  1.00  0.00    -0.070 NA 
HETATM   23  C   UNL     1      -5.817   3.533  66.079  1.00  0.00    -0.023 C  
HETATM   24  C   UNL     1      -6.659   4.420  63.879  1.00  0.00    -0.042 C  
HETATM   25  C   UNL     1      -5.707   3.457  64.595  1.00  0.00    -0.010 C  
BRANCH  20  26
HETATM   26  C   UNL     1      -6.164   4.899  68.189  1.00  0.00    -0.035 C  
HETATM   27  N   UNL     1      -6.016   6.286  68.627  1.00  0.00    -0.019 NA 
HETATM   28  H2  UNL     1      -6.699   6.878  68.156  1.00  0.00     0.000 HD 
HETATM   29  H1  UNL     1      -6.063   6.427  69.637  1.00  0.00     0.000 HD 
ENDBRANCH  20  26
ENDBRANCH  16  17
ENDBRANCH   8  16
BRANCH  10  30
HETATM   30  O   UNL     1     -10.636   9.116  67.909  1.00  0.00    -0.240 OA 
BRANCH  30  31
HETATM   31  C   UNL     1      -9.953  10.083  68.729  1.00  0.00    -0.172 C  
HETATM   32  O   UNL     1     -11.592   9.674  70.514  1.00  0.00    -0.264 OA 
HETATM   33  C   UNL     1     -10.983  12.812  68.411  1.00  0.00    -0.254 C  
HETATM   34  C   UNL     1     -10.786  10.700  69.910  1.00  0.00    -0.241 C  
HETATM   35  O   UNL     1      -9.403  11.097  67.901  1.00  0.00    -0.154 OA 
HETATM   36  O   UNL     1      -9.886  13.603  68.912  1.00  0.00    -0.407 OA 
HETATM   37  C   UNL     1     -11.633  11.969  69.567  1.00  0.00    -0.321 C  
HETATM   38  H   UNL     1     -10.218  14.184  69.587  1.00  0.00     0.000 HD 
HETATM   39  C   UNL     1     -11.973  13.796  67.784  1.00  0.00    -0.391 C  
HETATM   40  H   UNL     1     -12.096  10.047  71.228  1.00  0.00     0.000 HD 
HETATM   41  C   UNL     1     -10.451  11.880  67.330  1.00  0.00    -0.222 C  
BRANCH  37  42
HETATM   42  N   UNL     1     -11.852  12.877  70.730  1.00  0.00    -0.436 NA 
HETATM   43  H   UNL     1     -11.249  13.688  70.867  1.00  0.00     0.000 HD 
HETATM   44  C   UNL     1     -12.921  12.605  71.659  1.00  0.00    -0.299 C  
ENDBRANCH  37  42
ENDBRANCH  30  31
ENDBRANCH  10  30
ENDBRANCH   3   5
ENDBRANCH   2   3
TORSDOF 8
ENDMDL
MODEL      145
REMARK 921   NORMALIZED FREE ENERGY PREDICTED BY IDOCK:   -5.09 KCAL/MOL
REMARK 922        TOTAL FREE ENERGY PREDICTED BY IDOCK:   -8.21 KCAL/MOL
REMARK 923 INTER-LIGAND FREE ENERGY PREDICTED BY IDOCK:   -9.81 KCAL/MOL
REMARK 924 INTRA-LIGAND FREE ENERGY PREDICTED BY IDOCK:    1.61 KCAL/MOL
REMARK 927      BINDING AFFINITY PREDICTED BY RF-SCORE:    0.00 PKD
ROOT
HETATM    1  C   UNL     1     -14.316  14.383  71.743  1.00  0.00    -0.584 C  
HETATM    2  C   UNL     1     -13.453  13.189  72.130  1.00  0.00    -0.560 C  
ENDROOT
BRANCH   2   3
HETATM    3  N   UNL     1     -12.551  12.838  71.030  1.00  0.00    -0.335 NA 
HETATM    4  H   UNL     1     -11.595  13.110  71.261  1.00  0.00     0.000 HD 
BRANCH   3   5
HETATM    5  C   UNL     1     -12.586  11.412  70.603  1.00  0.00    -0.271 C  
HETATM    6  C   UNL     1     -13.121  10.504  71.720  1.00  0.00    -0.570 C  
HETATM    7  C   UNL     1     -13.205   9.041  71.274  1.00  0.00    -0.210 C  
HETATM    8  C   UNL     1     -11.792   8.496  70.928  1.00  0.00    -0.217 C  
HETATM    9  N   UNL     1     -13.843   8.263  72.356  1.00  0.00    -0.589 NA 
HETATM   10  C   UNL     1     -11.234  10.929  70.003  1.00  0.00    -0.263 C  
HETATM   11  H2  UNL     1     -14.749   8.642  72.631  1.00  0.00     0.000 HD 
HETATM   12  H1  UNL     1     -13.899   7.289  72.059  1.00  0.00     0.000 HD 
HETATM   13  C   UNL     1     -11.067   9.400  69.897  1.00  0.00    -0.200 C  
HETATM   14  H   UNL     1      -9.190   9.734  69.301  1.00  0.00     0.000 HD 
HETATM   15  O   UNL     1      -9.633   9.181  69.932  1.00  0.00    -0.172 OA 
BRANCH   8  16
HETATM   16  O   UNL     1     -11.936   7.137  70.403  1.00  0.00    -0.244 OA 
BRANCH  16  17
HETATM   17  C   UNL     1     -11.171   6.138  71.117  1.00  0.00    -0.292 C  
HETATM   18  H1  UNL     1     -10.544   8.356  73.716  1.00  0.00     0.000 HD 
HETATM   19  O   UNL     1     -10.287   5.471  70.207  1.00  0.00    -0.234 OA 
HETATM   20  C   UNL     1      -8.992   5.936  70.154  1.00  0.00    -0.142 C  
HETATM   21  H2  UNL     1     -11.956   8.122  72.849  1.00  0.00     0.000 HD 
HETATM   22  N   UNL     1     -10.941   8.025  72.836  1.00  0.00    -0.377 NA 
HETATM   23  C   UNL     1      -8.371   6.366  71.260  1.00  0.00    -0.123 C  
HETATM   24  C   UNL     1     -10.562   6.646  72.467  1.00  0.00    -0.217 C  
HETATM   25  C   UNL     1      -9.060   6.365  72.580  1.00  0.00    -0.136 C  
BRANCH  20  26
HETATM   26  C   UNL     1      -8.374   5.830  68.779  1.00  0.00    -0.104 C  
HETATM   27  N   UNL     1      -8.142   7.106  68.105  1.00  0.00    -0.122 NA 
HETATM   28  H2  UNL     1      -7.581   7.719  68.696  1.00  0.00     0.000 HD 
HETATM   29  H1  UNL     1      -7.725   7.035  67.176  1.00  0.00     0.000 HD 
ENDBRANCH  20  26
ENDBRANCH  16  17
ENDBRANCH   8  16
BRANCH  10  30
HETATM   30  O   UNL     1     -10.848  11.634  68.771  1.00  0.00    -0.202 OA 
BRANCH  30  31
HETATM   31  C   UNL     1     -11.587  12.826  68.443  1.00  0.00    -0.325 C  
HETATM   32  O   UNL     1     -12.050  11.886  66.220  1.00  0.00    -0.535 OA 
HETATM   33  C   UNL     1      -9.935  14.916  67.214  1.00  0.00    -0.230 C  
HETATM   34  C   UNL     1     -11.785  13.118  66.912  1.00  0.00    -0.387 C  
HETATM   35  O   UNL     1     -11.005  13.936  69.110  1.00  0.00    -0.245 OA 
HETATM   36  O   UNL     1     -10.737  16.095  67.435  1.00  0.00    -0.312 OA 
HETATM   37  C   UNL     1     -10.651  13.937  66.214  1.00  0.00    -0.289 C  
HETATM   38  H   UNL     1     -10.870  16.529  66.600  1.00  0.00     0.000 HD 
HETATM   39  C   UNL     1      -8.587  15.405  66.681  1.00  0.00    -0.318 C  
HETATM   40  H   UNL     1     -12.170  12.063  65.295  1.00  0.00     0.000 HD 
HETATM   41  C   UNL     1      -9.722  14.221  68.553  1.00  0.00    -0.225 C  
BRANCH  37  42
HETATM   42  N   UNL     1     -11.119  14.737  65.046  1.00  0.00    -0.381 NA 
HETATM   43  H   UNL     1     -10.543  15.496  64.681  1.00  0.00     0.000 HD 
HETATM   44  C   UNL     1     -12.389  14.435  64.433  1.00  0.00    -0.403 C  
ENDBRANCH  37  42
ENDBRANCH  30  31
ENDBRANCH  10  30
ENDBRANCH   3   5
ENDBRANCH   2   3
TORSDOF 8
ENDMDL
MODEL      146
REMARK 921   NORMALIZED FREE ENERGY PREDICTED BY IDOCK:   -5.07 KCAL/MOL
REMARK 922        TOTAL FREE ENERGY PREDICTED BY IDOCK:   -8.19 KCAL/MOL
REMARK 923 INTER-LIGAND FREE ENERGY PREDICTED BY IDOCK:   -7.26 KCAL/MOL
REMARK 924 INTRA-LIGAND FREE ENERGY PREDICTED BY IDOCK:   -0.93 KCAL/MOL
REMARK 927      BINDING AFFINITY PREDICTED BY RF-SCORE:    0.00 PKD
ROOT
HETATM    1  C   UNL     1      -7.599   6.211  64.592  1.00  0.00    -0.093 C  
HETATM    2  C   UNL     1      -8.065   7.661  64.616  1.00  0.00    -0.112 C  
ENDROOT
BRANCH   2   3
HETATM    3  N   UNL     1      -9.111   7.840  65.627  1.00  0.00    -0.388 NA 
HETATM    4  H   UNL     1      -9.722   7.023  65.646  1.00  0.00     0.000 HD 
BRANCH   3   5
HETATM    5  C   UNL     1      -8.626   8.147  67.002  1.00  0.00    -0.123 C  
HETATM    6  C   UNL     1      -8.355   6.864  67.802  1.00  0.00    -0.120 C  
HETATM    7  C   UNL     1      -7.812   7.169  69.201  1.00  0.00    -0.118 C  
HETATM    8  C   UNL     1      -8.856   7.969  70.027  1.00  0.00    -0.143 C  
HETATM    9  N   UNL     1      -7.462   5.890  69.851  1.00  0.00    -0.078 NA 
HETATM   10  C   UNL     1      -9.535   9.165  67.747  1.00  0.00    -0.140 C  
HETATM   11  H2  UNL     1      -6.818   5.328  69.293  1.00  0.00     0.000 HD 
HETATM   12  H1  UNL     1      -7.100   6.093  70.782  1.00  0.00     0.000 HD 
HETATM   13  C   UNL     1      -9.329   9.240  69.274  1.00  0.00    -0.160 C  
HETATM   14  H   UNL     1     -10.889  10.488  69.335  1.00  0.00     0.000 HD 
HETATM   15  O   UNL     1     -10.599   9.710  69.796  1.00  0.00    -0.213 OA 
BRANCH   8  16
HETATM   16  O   UNL     1      -8.251   8.333  71.310  1.00  0.00    -0.105 OA 
BRANCH  16  17
HETATM   17  C   UNL     1      -8.991   7.880  72.467  1.00  0.00    -0.174 C  
HETATM   18  H1  UNL     1      -6.655   5.386  73.090  1.00  0.00     0.000 HD 
HETATM   19  O   UNL     1     -10.386   7.811  72.146  1.00  0.00    -0.202 OA 
HETATM   20  C   UNL     1     -10.874   6.578  71.773  1.00  0.00    -0.238 C  
HETATM   21  H2  UNL     1      -6.403   6.968  72.604  1.00  0.00     0.000 HD 
HETATM   22  N   UNL     1      -7.067   6.194  72.623  1.00  0.00    -0.079 NA 
HETATM   23  C   UNL     1     -10.417   5.458  72.348  1.00  0.00    -0.267 C  
HETATM   24  C   UNL     1      -8.358   6.640  73.184  1.00  0.00    -0.116 C  
HETATM   25  C   UNL     1      -9.365   5.505  73.400  1.00  0.00    -0.138 C  
BRANCH  20  26
HETATM   26  C   UNL     1     -11.980   6.657  70.747  1.00  0.00    -0.353 C  
HETATM   27  N   UNL     1     -11.552   6.475  69.361  1.00  0.00    -0.653 NA 
HETATM   28  H2  UNL     1     -11.043   5.597  69.263  1.00  0.00     0.000 HD 
HETATM   29  H1  UNL     1     -12.299   6.528  68.668  1.00  0.00     0.000 HD 
ENDBRANCH  20  26
ENDBRANCH  16  17
ENDBRANCH   8  16
BRANCH  10  30
HETATM   30  O   UNL     1      -9.587  10.490  67.111  1.00  0.00    -0.164 OA 
BRANCH  30  31
HETATM   31  C   UNL     1     -10.885  10.971  66.711  1.00  0.00    -0.251 C  
HETATM   32  O   UNL     1     -10.515  10.006  64.481  1.00  0.00    -0.273 OA 
HETATM   33  C   UNL     1     -10.820  13.666  65.554  1.00  0.00    -0.294 C  
HETATM   34  C   UNL     1     -11.122  11.116  65.165  1.00  0.00    -0.009 C  
HETATM   35  O   UNL     1     -11.167  12.183  67.393  1.00  0.00    -0.264 OA 
HETATM   36  O   UNL     1     -12.194  14.082  65.697  1.00  0.00    -0.394 OA 
HETATM   37  C   UNL     1     -10.704  12.481  64.528  1.00  0.00    -0.330 C  
HETATM   38  H   UNL     1     -12.514  14.360  64.846  1.00  0.00     0.000 HD 
HETATM   39  C   UNL     1     -10.040  14.902  65.103  1.00  0.00    -0.354 C  
HETATM   40  H   UNL     1     -10.659  10.093  63.547  1.00  0.00     0.000 HD 
HETATM   41  C   UNL     1     -10.308  13.220  66.917  1.00  0.00    -0.255 C  
BRANCH  37  42
HETATM   42  N   UNL     1     -11.491  12.845  63.315  1.00  0.00    -0.778 NA 
HETATM   43  H   UNL     1     -11.151  13.570  62.683  1.00  0.00     0.000 HD 
HETATM   44  C   UNL     1     -12.735  12.169  63.039  1.00  0.00     0.115 C  
ENDBRANCH  37  42
ENDBRANCH  30  31
ENDBRANCH  10  30
ENDBRANCH   3   5
ENDBRANCH   2   3
TORSDOF 8
ENDMDL
MODEL      147
REMARK 921   NORMALIZED FREE ENERGY PREDICTED BY IDOCK:   -5.06 KCAL/MOL
REMARK 922        TOTAL FREE ENERGY PREDICTED BY IDOCK:   -8.16 KCAL/MOL
REMARK 923 INTER-LIGAND FREE ENERGY PREDICTED BY IDOCK:   -6.42 KCAL/MOL
REMARK 924 INTRA-LIGAND FREE ENERGY PREDICTED BY IDOCK:   -1.74 KCAL/MOL
REMARK 927      BINDING AFFINITY PREDICTED BY RF-SCORE:    0.00 PKD
ROOT
HETATM    1  C   UNL     1      -6.149  10.385  70.477  1.00  0.00    -0.116 C  
HETATM    2  C   UNL     1      -7.181  10.788  69.432  1.00  0.00    -0.132 C  
ENDROOT
BRANCH   2   3
HETATM    3  N   UNL     1      -8.528  10.427  69.885  1.00  0.00    -0.371 NA 
HETATM    4  H   UNL     1      -9.124  11.255  69.904  1.00  0.00     0.000 HD 
BRANCH   3   5
HETATM    5  C   UNL     1      -9.191   9.339  69.115  1.00  0.00    -0.149 C  
HETATM    6  C   UNL     1      -8.608   7.963  69.469  1.00  0.00    -0.137 C  
HETATM    7  C   UNL     1      -9.316   6.833  68.717  1.00  0.00    -0.132 C  
HETATM    8  C   UNL     1      -9.119   6.992  67.184  1.00  0.00    -0.128 C  
HETATM    9  N   UNL     1      -8.783   5.545  69.206  1.00  0.00    -0.106 NA 
HETATM   10  C   UNL     1      -9.233   9.622  67.586  1.00  0.00    -0.130 C  
HETATM   11  H2  UNL     1      -8.857   5.449  70.219  1.00  0.00     0.000 HD 
HETATM   12  H1  UNL     1      -9.255   4.792  68.705  1.00  0.00     0.000 HD 
HETATM   13  C   UNL     1      -9.547   8.402  66.696  1.00  0.00    -0.229 C  
HETATM   14  H   UNL     1      -9.203   9.576  65.116  1.00  0.00     0.000 HD 
HETATM   15  O   UNL     1      -8.941   8.713  65.415  1.00  0.00    -0.189 OA 
BRANCH   8  16
HETATM   16  O   UNL     1      -9.904   5.959  66.505  1.00  0.00    -0.155 OA 
BRANCH  16  17
HETATM   17  C   UNL     1      -9.138   5.124  65.607  1.00  0.00    -0.157 C  
HETATM   18  H1  UNL     1      -9.415   2.410  67.758  1.00  0.00     0.000 HD 
HETATM   19  O   UNL     1      -7.993   5.848  65.139  1.00  0.00    -0.107 OA 
HETATM   20  C   UNL     1      -6.809   5.629  65.808  1.00  0.00    -0.057 C  
HETATM   21  H2  UNL     1     -10.570   3.549  67.345  1.00  0.00     0.000 HD 
HETATM   22  N   UNL     1      -9.570   3.358  67.413  1.00  0.00    -0.171 NA 
HETATM   23  C   UNL     1      -6.499   4.413  66.275  1.00  0.00    -0.041 C  
HETATM   24  C   UNL     1      -8.900   3.669  66.135  1.00  0.00    -0.127 C  
HETATM   25  C   UNL     1      -7.424   3.260  66.094  1.00  0.00    -0.076 C  
BRANCH  20  26
HETATM   26  C   UNL     1      -5.925   6.853  65.875  1.00  0.00    -0.035 C  
HETATM   27  N   UNL     1      -6.133   7.826  64.805  1.00  0.00    -0.041 NA 
HETATM   28  H2  UNL     1      -7.114   8.103  64.768  1.00  0.00     0.000 HD 
HETATM   29  H1  UNL     1      -5.536   8.652  64.850  1.00  0.00     0.000 HD 
ENDBRANCH  20  26
ENDBRANCH  16  17
ENDBRANCH   8  16
BRANCH  10  30
HETATM   30  O   UNL     1     -10.021  10.810  67.225  1.00  0.00    -0.178 OA 
BRANCH  30  31
HETATM   31  C   UNL     1      -9.291  11.948  66.727  1.00  0.00    -0.201 C  
HETATM   32  O   UNL     1      -9.800  13.142  68.814  1.00  0.00    -0.399 OA 
HETATM   33  C   UNL     1     -10.966  13.842  65.238  1.00  0.00    -0.322 C  
HETATM   34  C   UNL     1      -9.622  13.330  67.400  1.00  0.00    -0.223 C  
HETATM   35  O   UNL     1      -9.431  12.015  65.316  1.00  0.00    -0.160 OA 
HETATM   36  O   UNL     1      -9.983  14.569  64.473  1.00  0.00    -0.583 OA 
HETATM   37  C   UNL     1     -10.804  14.137  66.773  1.00  0.00    -0.296 C  
HETATM   38  H   UNL     1     -10.101  15.498  64.637  1.00  0.00     0.000 HD 
HETATM   39  C   UNL     1     -12.333  14.275  64.705  1.00  0.00    -0.440 C  
HETATM   40  H   UNL     1      -9.999  13.977  69.221  1.00  0.00     0.000 HD 
HETATM   41  C   UNL     1     -10.776  12.353  64.976  1.00  0.00    -0.294 C  
BRANCH  37  42
HETATM   42  N   UNL     1     -10.684  15.613  66.946  1.00  0.00    -0.313 NA 
HETATM   43  H   UNL     1     -11.467  16.222  66.709  1.00  0.00     0.000 HD 
HETATM   44  C   UNL     1      -9.456  16.177  67.451  1.00  0.00    -0.226 C  
ENDBRANCH  37  42
ENDBRANCH  30  31
ENDBRANCH  10  30
ENDBRANCH   3   5
ENDBRANCH   2   3
TORSDOF 8
ENDMDL
MODEL      148
REMARK 921   NORMALIZED FREE ENERGY PREDICTED BY IDOCK:   -5.04 KCAL/MOL
REMARK 922        TOTAL FREE ENERGY PREDICTED BY IDOCK:   -8.13 KCAL/MOL
REMARK 923 INTER-LIGAND FREE ENERGY PREDICTED BY IDOCK:   -6.52 KCAL/MOL
REMARK 924 INTRA-LIGAND FREE ENERGY PREDICTED BY IDOCK:   -1.61 KCAL/MOL
REMARK 927      BINDING AFFINITY PREDICTED BY RF-SCORE:    0.00 PKD
ROOT
HETATM    1  C   UNL     1     -10.151   5.669  71.851  1.00  0.00    -0.235 C  
HETATM    2  C   UNL     1     -10.320   7.178  71.960  1.00  0.00    -0.191 C  
ENDROOT
BRANCH   2   3
HETATM    3  N   UNL     1     -11.008   7.697  70.774  1.00  0.00    -0.247 NA 
HETATM    4  H   UNL     1     -11.906   7.226  70.657  1.00  0.00     0.000 HD 
BRANCH   3   5
HETATM    5  C   UNL     1     -11.199   9.174  70.739  1.00  0.00    -0.277 C  
HETATM    6  C   UNL     1     -12.441   9.599  71.535  1.00  0.00    -0.476 C  
HETATM    7  C   UNL     1     -12.618  11.121  71.544  1.00  0.00    -0.325 C  
HETATM    8  C   UNL     1     -12.840  11.651  70.101  1.00  0.00     0.229 C  
HETATM    9  N   UNL     1     -13.754  11.450  72.429  1.00  0.00    -0.308 NA 
HETATM   10  C   UNL     1     -11.156   9.752  69.295  1.00  0.00    -0.149 C  
HETATM   11  H2  UNL     1     -13.647  11.061  73.367  1.00  0.00     0.000 HD 
HETATM   12  H1  UNL     1     -13.872  12.462  72.435  1.00  0.00     0.000 HD 
HETATM   13  C   UNL     1     -11.717  11.180  69.140  1.00  0.00    -0.338 C  
HETATM   14  H   UNL     1     -11.463  10.971  67.169  1.00  0.00     0.000 HD 
HETATM   15  O   UNL     1     -12.151  11.259  67.757  1.00  0.00    -0.631 OA 
BRANCH   8  16
HETATM   16  O   UNL     1     -12.892  13.114  70.147  1.00  0.00     0.053 OA 
BRANCH  16  17
HETATM   17  C   UNL     1     -11.874  13.719  70.978  1.00  0.00     0.022 C  
HETATM   18  H1  UNL     1     -14.283  15.240  72.966  1.00  0.00     0.000 HD 
HETATM   19  O   UNL     1     -10.846  14.272  70.147  1.00  0.00     0.018 OA 
HETATM   20  C   UNL     1     -10.937  15.617  69.865  1.00  0.00    -0.318 C  
HETATM   21  H2  UNL     1     -14.274  13.698  72.316  1.00  0.00     0.000 HD 
HETATM   22  N   UNL     1     -13.914  14.647  72.222  1.00  0.00    -0.461 NA 
HETATM   23  C   UNL     1     -11.383  16.482  70.785  1.00  0.00    -0.064 C  
HETATM   24  C   UNL     1     -12.441  14.629  72.119  1.00  0.00    -0.316 C  
HETATM   25  C   UNL     1     -11.801  16.021  72.138  1.00  0.00    -0.623 C  
BRANCH  20  26
HETATM   26  C   UNL     1     -10.425  15.977  68.489  1.00  0.00    -0.258 C  
HETATM   27  N   UNL     1      -9.946  14.848  67.693  1.00  0.00    -0.225 NA 
HETATM   28  H2  UNL     1     -10.671  14.134  67.624  1.00  0.00     0.000 HD 
HETATM   29  H1  UNL     1      -9.601  15.090  66.764  1.00  0.00     0.000 HD 
ENDBRANCH  20  26
ENDBRANCH  16  17
ENDBRANCH   8  16
BRANCH  10  30
HETATM   30  O   UNL     1      -9.861   9.570  68.622  1.00  0.00    -0.155 OA 
BRANCH  30  31
HETATM   31  C   UNL     1      -9.874   8.856  67.370  1.00  0.00    -0.193 C  
HETATM   32  O   UNL     1      -9.252   6.806  68.574  1.00  0.00    -0.130 OA 
HETATM   33  C   UNL     1      -7.273   8.845  66.013  1.00  0.00    -0.089 C  
HETATM   34  C   UNL     1      -9.065   7.509  67.335  1.00  0.00    -0.126 C  
HETATM   35  O   UNL     1      -9.468   9.730  66.328  1.00  0.00    -0.170 OA 
HETATM   36  O   UNL     1      -7.648   8.533  64.656  1.00  0.00    -0.092 OA 
HETATM   37  C   UNL     1      -7.552   7.623  66.961  1.00  0.00    -0.103 C  
HETATM   38  H   UNL     1      -7.142   7.781  64.369  1.00  0.00     0.000 HD 
HETATM   39  C   UNL     1      -5.791   9.222  65.975  1.00  0.00    -0.054 C  
HETATM   40  H   UNL     1      -8.764   5.992  68.553  1.00  0.00     0.000 HD 
HETATM   41  C   UNL     1      -8.084  10.050  66.473  1.00  0.00    -0.119 C  
BRANCH  37  42
HETATM   42  N   UNL     1      -6.999   6.401  66.308  1.00  0.00    -0.065 NA 
HETATM   43  H   UNL     1      -5.995   6.314  66.152  1.00  0.00     0.000 HD 
HETATM   44  C   UNL     1      -7.890   5.343  65.899  1.00  0.00    -0.103 C  
ENDBRANCH  37  42
ENDBRANCH  30  31
ENDBRANCH  10  30
ENDBRANCH   3   5
ENDBRANCH   2   3
TORSDOF 8
ENDMDL
MODEL      149
REMARK 921   NORMALIZED FREE ENERGY PREDICTED BY IDOCK:   -5.02 KCAL/MOL
REMARK 922        TOTAL FREE ENERGY PREDICTED BY IDOCK:   -8.10 KCAL/MOL
REMARK 923 INTER-LIGAND FREE ENERGY PREDICTED BY IDOCK:   -8.32 KCAL/MOL
REMARK 924 INTRA-LIGAND FREE ENERGY PREDICTED BY IDOCK:    0.22 KCAL/MOL
REMARK 927      BINDING AFFINITY PREDICTED BY RF-SCORE:    0.00 PKD
ROOT
HETATM    1  C   UNL     1      -8.397   8.469  62.777  1.00  0.00    -0.154 C  
HETATM    2  C   UNL     1      -8.220   9.214  64.094  1.00  0.00    -0.162 C  
ENDROOT
BRANCH   2   3
HETATM    3  N   UNL     1      -9.391   9.010  64.952  1.00  0.00    -0.435 NA 
HETATM    4  H   UNL     1      -9.115   8.538  65.813  1.00  0.00     0.000 HD 
BRANCH   3   5
HETATM    5  C   UNL     1     -10.171  10.238  65.272  1.00  0.00    -0.238 C  
HETATM    6  C   UNL     1      -9.620  11.464  64.528  1.00  0.00    -0.221 C  
HETATM    7  C   UNL     1     -10.446  12.722  64.815  1.00  0.00    -0.335 C  
HETATM    8  C   UNL     1     -10.384  13.081  66.325  1.00  0.00    -0.285 C  
HETATM    9  N   UNL     1      -9.929  13.817  63.969  1.00  0.00    -0.428 NA 
HETATM   10  C   UNL     1     -10.341  10.462  66.802  1.00  0.00    -0.235 C  
HETATM   11  H2  UNL     1      -9.913  13.575  62.978  1.00  0.00     0.000 HD 
HETATM   12  H1  UNL     1     -10.479  14.654  64.159  1.00  0.00     0.000 HD 
HETATM   13  C   UNL     1     -10.790  11.878  67.216  1.00  0.00    -0.247 C  
HETATM   14  H   UNL     1     -10.540  11.307  69.114  1.00  0.00     0.000 HD 
HETATM   15  O   UNL     1     -10.291  12.043  68.569  1.00  0.00    -0.212 OA 
BRANCH   8  16
HETATM   16  O   UNL     1     -11.274  14.218  66.568  1.00  0.00    -0.316 OA 
BRANCH  16  17
HETATM   17  C   UNL     1     -10.630  15.358  67.183  1.00  0.00    -0.305 C  
HETATM   18  H1  UNL     1     -10.876  17.192  64.244  1.00  0.00     0.000 HD 
HETATM   19  O   UNL     1      -9.490  14.916  67.931  1.00  0.00    -0.196 OA 
HETATM   20  C   UNL     1      -8.268  14.996  67.299  1.00  0.00    -0.211 C  
HETATM   21  H2  UNL     1     -11.997  16.163  64.940  1.00  0.00     0.000 HD 
HETATM   22  N   UNL     1     -11.007  16.399  64.872  1.00  0.00    -0.629 NA 
HETATM   23  C   UNL     1      -7.988  16.015  66.476  1.00  0.00    -0.271 C  
HETATM   24  C   UNL     1     -10.428  16.574  66.219  1.00  0.00    -0.281 C  
HETATM   25  C   UNL     1      -8.985  17.088  66.210  1.00  0.00    -0.282 C  
BRANCH  20  26
HETATM   26  C   UNL     1      -7.317  13.890  67.693  1.00  0.00    -0.174 C  
HETATM   27  N   UNL     1      -5.903  14.180  67.464  1.00  0.00    -0.354 NA 
HETATM   28  H2  UNL     1      -5.642  15.050  67.928  1.00  0.00     0.000 HD 
HETATM   29  H1  UNL     1      -5.260  13.433  67.730  1.00  0.00     0.000 HD 
ENDBRANCH  20  26
ENDBRANCH  16  17
ENDBRANCH   8  16
BRANCH  10  30
HETATM   30  O   UNL     1     -11.103   9.400  67.476  1.00  0.00    -0.137 OA 
BRANCH  30  31
HETATM   31  C   UNL     1     -10.343   8.390  68.166  1.00  0.00    -0.204 C  
HETATM   32  O   UNL     1     -11.686   8.807  70.181  1.00  0.00    -0.463 OA 
HETATM   33  C   UNL     1      -7.971   9.450  69.529  1.00  0.00    -0.098 C  
HETATM   34  C   UNL     1     -10.364   8.461  69.736  1.00  0.00    -0.216 C  
HETATM   35  O   UNL     1      -9.014   8.380  67.667  1.00  0.00    -0.135 OA 
HETATM   36  O   UNL     1      -7.171   8.262  69.699  1.00  0.00    -0.058 OA 
HETATM   37  C   UNL     1      -9.278   9.368  70.399  1.00  0.00    -0.257 C  
HETATM   38  H   UNL     1      -6.942   8.183  70.618  1.00  0.00     0.000 HD 
HETATM   39  C   UNL     1      -7.082  10.629  69.928  1.00  0.00    -0.133 C  
HETATM   40  H   UNL     1     -11.698   8.850  71.130  1.00  0.00     0.000 HD 
HETATM   41  C   UNL     1      -8.339   9.577  68.057  1.00  0.00    -0.118 C  
BRANCH  37  42
HETATM   42  N   UNL     1      -8.888   8.935  71.772  1.00  0.00    -0.358 NA 
HETATM   43  H   UNL     1      -8.184   9.458  72.294  1.00  0.00     0.000 HD 
HETATM   44  C   UNL     1      -9.509   7.773  72.359  1.00  0.00    -0.178 C  
ENDBRANCH  37  42
ENDBRANCH  30  31
ENDBRANCH  10  30
ENDBRANCH   3   5
ENDBRANCH   2   3
TORSDOF 8
ENDMDL
MODEL      150
REMARK 921   NORMALIZED FREE ENERGY PREDICTED BY IDOCK:   -5.00 KCAL/MOL
REMARK 922        TOTAL FREE ENERGY PREDICTED BY IDOCK:   -8.08 KCAL/MOL
REMARK 923 INTER-LIGAND FREE ENERGY PREDICTED BY IDOCK:   -7.54 KCAL/MOL
REMARK 924 INTRA-LIGAND FREE ENERGY PREDICTED BY IDOCK:   -0.54 KCAL/MOL
REMARK 927      BINDING AFFINITY PREDICTED BY RF-SCORE:    0.00 PKD
ROOT
HETATM    1  C   UNL     1     -14.142  13.388  72.212  1.00  0.00    -0.515 C  
HETATM    2  C   UNL     1     -13.023  12.407  71.890  1.00  0.00    -0.302 C  
ENDROOT
BRANCH   2   3
HETATM    3  N   UNL     1     -13.463  11.454  70.867  1.00  0.00     0.463 NA 
HETATM    4  H   UNL     1     -13.570  11.929  69.970  1.00  0.00     0.000 HD 
BRANCH   3   5
HETATM    5  C   UNL     1     -12.607  10.246  70.706  1.00  0.00    -0.352 C  
HETATM    6  C   UNL     1     -12.388   9.530  72.047  1.00  0.00    -0.404 C  
HETATM    7  C   UNL     1     -11.548   8.260  71.884  1.00  0.00    -0.315 C  
HETATM    8  C   UNL     1     -10.129   8.611  71.356  1.00  0.00    -0.254 C  
HETATM    9  N   UNL     1     -11.492   7.571  73.189  1.00  0.00    -0.614 NA 
HETATM   10  C   UNL     1     -11.289  10.541  69.935  1.00  0.00    -0.309 C  
HETATM   11  H2  UNL     1     -12.417   7.382  73.574  1.00  0.00     0.000 HD 
HETATM   12  H1  UNL     1     -10.932   6.726  73.080  1.00  0.00     0.000 HD 
HETATM   13  C   UNL     1     -10.195   9.461  70.060  1.00  0.00    -0.229 C  
HETATM   14  H   UNL     1      -8.989  10.690  69.047  1.00  0.00     0.000 HD 
HETATM   15  O   UNL     1      -8.948  10.170  69.840  1.00  0.00    -0.185 OA 
BRANCH   8  16
HETATM   16  O   UNL     1      -9.404   7.363  71.110  1.00  0.00    -0.155 OA 
BRANCH  16  17
HETATM   17  C   UNL     1      -8.024   7.381  71.542  1.00  0.00    -0.095 C  
HETATM   18  H1  UNL     1      -6.908   7.087  68.265  1.00  0.00     0.000 HD 
HETATM   19  O   UNL     1      -7.866   6.520  72.676  1.00  0.00    -0.102 OA 
HETATM   20  C   UNL     1      -7.417   5.242  72.424  1.00  0.00    -0.096 C  
HETATM   21  H2  UNL     1      -8.170   8.005  68.870  1.00  0.00     0.000 HD 
HETATM   22  N   UNL     1      -7.582   7.186  69.025  1.00  0.00    -0.098 NA 
HETATM   23  C   UNL     1      -6.510   5.011  71.466  1.00  0.00    -0.031 C  
HETATM   24  C   UNL     1      -6.989   7.229  70.376  1.00  0.00    -0.057 C  
HETATM   25  C   UNL     1      -5.963   6.122  70.638  1.00  0.00    -0.026 C  
BRANCH  20  26
HETATM   26  C   UNL     1      -7.991   4.209  73.365  1.00  0.00    -0.089 C  
HETATM   27  N   UNL     1      -7.005   3.487  74.167  1.00  0.00    -0.045 NA 
HETATM   28  H2  UNL     1      -6.420   4.146  74.682  1.00  0.00     0.000 HD 
HETATM   29  H1  UNL     1      -7.392   2.789  74.803  1.00  0.00     0.000 HD 
ENDBRANCH  20  26
ENDBRANCH  16  17
ENDBRANCH   8  16
BRANCH  10  30
HETATM   30  O   UNL     1     -11.499  10.984  68.548  1.00  0.00    -0.263 OA 
BRANCH  30  31
HETATM   31  C   UNL     1     -10.396  11.647  67.902  1.00  0.00    -0.188 C  
HETATM   32  O   UNL     1     -10.603  13.488  69.517  1.00  0.00    -0.433 OA 
HETATM   33  C   UNL     1     -11.228  13.451  65.743  1.00  0.00    -0.290 C  
HETATM   34  C   UNL     1     -10.280  13.196  68.147  1.00  0.00    -0.239 C  
HETATM   35  O   UNL     1     -10.413  11.344  66.516  1.00  0.00    -0.231 OA 
HETATM   36  O   UNL     1     -10.009  13.586  64.984  1.00  0.00    -0.538 OA 
HETATM   37  C   UNL     1     -11.075  14.111  67.161  1.00  0.00    -0.307 C  
HETATM   38  H   UNL     1      -9.815  14.512  64.889  1.00  0.00     0.000 HD 
HETATM   39  C   UNL     1     -12.329  14.112  64.911  1.00  0.00    -0.446 C  
HETATM   40  H   UNL     1     -10.533  14.424  69.665  1.00  0.00     0.000 HD 
HETATM   41  C   UNL     1     -11.538  11.967  65.895  1.00  0.00    -0.300 C  
BRANCH  37  42
HETATM   42  N   UNL     1     -10.472  15.462  66.975  1.00  0.00    -0.288 NA 
HETATM   43  H   UNL     1     -10.834  16.090  66.257  1.00  0.00     0.000 HD 
HETATM   44  C   UNL     1      -9.374  15.878  67.813  1.00  0.00    -0.207 C  
ENDBRANCH  37  42
ENDBRANCH  30  31
ENDBRANCH  10  30
ENDBRANCH   3   5
ENDBRANCH   2   3
TORSDOF 8
ENDMDL
MODEL      151
REMARK 921   NORMALIZED FREE ENERGY PREDICTED BY IDOCK:   -4.99 KCAL/MOL
REMARK 922        TOTAL FREE ENERGY PREDICTED BY IDOCK:   -8.07 KCAL/MOL
REMARK 923 INTER-LIGAND FREE ENERGY PREDICTED BY IDOCK:   -6.36 KCAL/MOL
REMARK 924 INTRA-LIGAND FREE ENERGY PREDICTED BY IDOCK:   -1.70 KCAL/MOL
REMARK 927      BINDING AFFINITY PREDICTED BY RF-SCORE:    0.00 PKD
ROOT
HETATM    1  C   UNL     1     -11.878  12.400  67.760  1.00  0.00    -0.362 C  
HETATM    2  C   UNL     1     -12.010  11.331  68.836  1.00  0.00    -0.310 C  
ENDROOT
BRANCH   2   3
HETATM    3  N   UNL     1     -10.774  11.244  69.619  1.00  0.00    -0.454 NA 
HETATM    4  H   UNL     1     -10.788  11.933  70.371  1.00  0.00     0.000 HD 
BRANCH   3   5
HETATM    5  C   UNL     1     -10.458   9.896  70.167  1.00  0.00    -0.285 C  
HETATM    6  C   UNL     1     -11.263   9.605  71.443  1.00  0.00    -0.426 C  
HETATM    7  C   UNL     1     -10.979   8.202  71.988  1.00  0.00    -0.286 C  
HETATM    8  C   UNL     1      -9.485   8.068  72.393  1.00  0.00    -0.215 C  
HETATM    9  N   UNL     1     -11.880   7.959  73.133  1.00  0.00    -0.620 NA 
HETATM   10  C   UNL     1      -8.929   9.655  70.327  1.00  0.00    -0.219 C  
HETATM   11  H2  UNL     1     -12.863   8.097  72.896  1.00  0.00     0.000 HD 
HETATM   12  H1  UNL     1     -11.691   7.026  73.496  1.00  0.00     0.000 HD 
HETATM   13  C   UNL     1      -8.539   8.465  71.228  1.00  0.00    -0.161 C  
HETATM   14  H   UNL     1      -6.637   9.038  71.011  1.00  0.00     0.000 HD 
HETATM   15  O   UNL     1      -7.216   8.795  71.724  1.00  0.00    -0.168 OA 
BRANCH   8  16
HETATM   16  O   UNL     1      -9.237   6.684  72.800  1.00  0.00    -0.137 OA 
BRANCH  16  17
HETATM   17  C   UNL     1      -9.374   5.716  71.734  1.00  0.00    -0.145 C  
HETATM   18  H1  UNL     1     -11.977   4.127  73.397  1.00  0.00     0.000 HD 
HETATM   19  O   UNL     1      -8.076   5.250  71.343  1.00  0.00    -0.110 OA 
HETATM   20  C   UNL     1      -7.650   4.067  71.905  1.00  0.00    -0.066 C  
HETATM   21  H2  UNL     1     -11.669   5.765  73.244  1.00  0.00     0.000 HD 
HETATM   22  N   UNL     1     -11.258   4.831  73.229  1.00  0.00    -0.327 NA 
HETATM   23  C   UNL     1      -8.512   3.069  72.139  1.00  0.00    -0.084 C  
HETATM   24  C   UNL     1     -10.477   4.635  71.992  1.00  0.00    -0.128 C  
HETATM   25  C   UNL     1      -9.957   3.205  71.808  1.00  0.00    -0.192 C  
BRANCH  20  26
HETATM   26  C   UNL     1      -6.158   4.018  72.138  1.00  0.00    -0.013 C  
HETATM   27  N   UNL     1      -5.469   2.892  71.510  1.00  0.00    -0.008 NA 
HETATM   28  H2  UNL     1      -5.670   2.870  70.510  1.00  0.00     0.000 HD 
HETATM   29  H1  UNL     1      -4.462   2.859  71.667  1.00  0.00     0.000 HD 
ENDBRANCH  20  26
ENDBRANCH  16  17
ENDBRANCH   8  16
BRANCH  10  30
HETATM   30  O   UNL     1      -8.190   9.676  69.056  1.00  0.00    -0.103 OA 
BRANCH  30  31
HETATM   31  C   UNL     1      -8.089   8.430  68.341  1.00  0.00    -0.123 C  
HETATM   32  O   UNL     1      -5.714   8.904  67.922  1.00  0.00    -0.035 OA 
HETATM   33  C   UNL     1      -8.644   8.689  65.472  1.00  0.00    -0.175 C  
HETATM   34  C   UNL     1      -6.883   8.303  67.341  1.00  0.00    -0.070 C  
HETATM   35  O   UNL     1      -9.324   8.157  67.697  1.00  0.00    -0.138 OA 
HETATM   36  O   UNL     1      -8.954   7.329  65.106  1.00  0.00    -0.361 OA 
HETATM   37  C   UNL     1      -7.134   8.822  65.888  1.00  0.00    -0.084 C  
HETATM   38  H   UNL     1      -8.396   7.078  64.378  1.00  0.00     0.000 HD 
HETATM   39  C   UNL     1      -8.988   9.551  64.255  1.00  0.00    -0.248 C  
HETATM   40  H   UNL     1      -4.985   8.827  67.318  1.00  0.00     0.000 HD 
HETATM   41  C   UNL     1      -9.538   9.090  66.638  1.00  0.00    -0.213 C  
BRANCH  37  42
HETATM   42  N   UNL     1      -6.311   8.134  64.852  1.00  0.00    -0.049 NA 
HETATM   43  H   UNL     1      -6.570   7.202  64.527  1.00  0.00     0.000 HD 
HETATM   44  C   UNL     1      -5.146   8.790  64.312  1.00  0.00    -0.050 C  
ENDBRANCH  37  42
ENDBRANCH  30  31
ENDBRANCH  10  30
ENDBRANCH   3   5
ENDBRANCH   2   3
TORSDOF 8
ENDMDL
MODEL      152
REMARK 921   NORMALIZED FREE ENERGY PREDICTED BY IDOCK:   -4.99 KCAL/MOL
REMARK 922        TOTAL FREE ENERGY PREDICTED BY IDOCK:   -8.07 KCAL/MOL
REMARK 923 INTER-LIGAND FREE ENERGY PREDICTED BY IDOCK:   -8.54 KCAL/MOL
REMARK 924 INTRA-LIGAND FREE ENERGY PREDICTED BY IDOCK:    0.48 KCAL/MOL
REMARK 927      BINDING AFFINITY PREDICTED BY RF-SCORE:    0.00 PKD
ROOT
HETATM    1  C   UNL     1      -5.484  12.666  70.656  1.00  0.00    -0.172 C  
HETATM    2  C   UNL     1      -6.369  11.575  70.068  1.00  0.00    -0.116 C  
ENDROOT
BRANCH   2   3
HETATM    3  N   UNL     1      -6.271  11.577  68.605  1.00  0.00    -0.050 NA 
HETATM    4  H   UNL     1      -5.976  10.659  68.274  1.00  0.00     0.000 HD 
BRANCH   3   5
HETATM    5  C   UNL     1      -7.499  12.010  67.882  1.00  0.00    -0.114 C  
HETATM    6  C   UNL     1      -7.446  13.505  67.530  1.00  0.00    -0.177 C  
HETATM    7  C   UNL     1      -8.684  13.948  66.745  1.00  0.00    -0.097 C  
HETATM    8  C   UNL     1      -9.967  13.762  67.601  1.00  0.00    -0.238 C  
HETATM    9  N   UNL     1      -8.496  15.357  66.341  1.00  0.00    -0.406 NA 
HETATM   10  C   UNL     1      -8.807  11.588  68.611  1.00  0.00    -0.106 C  
HETATM   11  H2  UNL     1      -7.629  15.505  65.824  1.00  0.00     0.000 HD 
HETATM   12  H1  UNL     1      -9.320  15.652  65.818  1.00  0.00     0.000 HD 
HETATM   13  C   UNL     1     -10.086  12.313  68.145  1.00  0.00    -0.211 C  
HETATM   14  H   UNL     1     -11.051  11.374  69.621  1.00  0.00     0.000 HD 
HETATM   15  O   UNL     1     -10.978  12.260  69.288  1.00  0.00    -0.195 OA 
BRANCH   8  16
HETATM   16  O   UNL     1     -11.129  14.092  66.773  1.00  0.00    -0.297 OA 
BRANCH  16  17
HETATM   17  C   UNL     1     -10.851  14.155  65.356  1.00  0.00    -0.337 C  
HETATM   18  H1  UNL     1     -14.201  14.730  64.639  1.00  0.00     0.000 HD 
HETATM   19  O   UNL     1      -9.976  13.080  64.991  1.00  0.00    -0.235 OA 
HETATM   20  C   UNL     1     -10.570  11.947  64.480  1.00  0.00    -0.311 C  
HETATM   21  H2  UNL     1     -13.268  15.350  65.882  1.00  0.00     0.000 HD 
HETATM   22  N   UNL     1     -13.374  14.583  65.218  1.00  0.00    -0.283 NA 
HETATM   23  C   UNL     1     -11.645  12.035  63.685  1.00  0.00    -0.578 C  
HETATM   24  C   UNL     1     -12.120  14.380  64.466  1.00  0.00    -0.481 C  
HETATM   25  C   UNL     1     -12.237  13.355  63.334  1.00  0.00    -0.419 C  
BRANCH  20  26
HETATM   26  C   UNL     1      -9.847  10.673  64.851  1.00  0.00    -0.302 C  
HETATM   27  N   UNL     1      -8.479  10.568  64.346  1.00  0.00    -0.268 NA 
HETATM   28  H2  UNL     1      -7.934  11.380  64.638  1.00  0.00     0.000 HD 
HETATM   29  H1  UNL     1      -7.991   9.708  64.596  1.00  0.00     0.000 HD 
ENDBRANCH  20  26
ENDBRANCH  16  17
ENDBRANCH   8  16
BRANCH  10  30
HETATM   30  O   UNL     1      -8.982  10.132  68.717  1.00  0.00    -0.132 OA 
BRANCH  30  31
HETATM   31  C   UNL     1     -10.282   9.606  68.388  1.00  0.00    -0.188 C  
HETATM   32  O   UNL     1     -10.906   9.762  70.760  1.00  0.00    -0.297 OA 
HETATM   33  C   UNL     1     -10.427   6.680  68.543  1.00  0.00    -0.213 C  
HETATM   34  C   UNL     1     -11.092   8.969  69.575  1.00  0.00    -0.024 C  
HETATM   35  O   UNL     1     -10.161   8.701  67.301  1.00  0.00    -0.221 OA 
HETATM   36  O   UNL     1     -11.590   6.398  67.738  1.00  0.00    -0.622 OA 
HETATM   37  C   UNL     1     -10.832   7.453  69.851  1.00  0.00    -0.246 C  
HETATM   38  H   UNL     1     -12.191   5.870  68.251  1.00  0.00     0.000 HD 
HETATM   39  C   UNL     1      -9.775   5.330  68.846  1.00  0.00    -0.207 C  
HETATM   40  H   UNL     1     -11.396   9.377  71.477  1.00  0.00     0.000 HD 
HETATM   41  C   UNL     1      -9.465   7.528  67.720  1.00  0.00    -0.141 C  
BRANCH  37  42
HETATM   42  N   UNL     1     -11.994   6.745  70.461  1.00  0.00    -0.530 NA 
HETATM   43  H   UNL     1     -12.783   6.462  69.880  1.00  0.00     0.000 HD 
HETATM   44  C   UNL     1     -11.997   6.461  71.875  1.00  0.00    -0.329 C  
ENDBRANCH  37  42
ENDBRANCH  30  31
ENDBRANCH  10  30
ENDBRANCH   3   5
ENDBRANCH   2   3
TORSDOF 8
ENDMDL
MODEL      153
REMARK 921   NORMALIZED FREE ENERGY PREDICTED BY IDOCK:   -4.99 KCAL/MOL
REMARK 922        TOTAL FREE ENERGY PREDICTED BY IDOCK:   -8.06 KCAL/MOL
REMARK 923 INTER-LIGAND FREE ENERGY PREDICTED BY IDOCK:   -8.94 KCAL/MOL
REMARK 924 INTRA-LIGAND FREE ENERGY PREDICTED BY IDOCK:    0.88 KCAL/MOL
REMARK 927      BINDING AFFINITY PREDICTED BY RF-SCORE:    0.00 PKD
ROOT
HETATM    1  C   UNL     1     -11.714  15.120  71.582  1.00  0.00    -0.458 C  
HETATM    2  C   UNL     1     -12.233  14.086  70.592  1.00  0.00    -0.372 C  
ENDROOT
BRANCH   2   3
HETATM    3  N   UNL     1     -12.070  14.574  69.219  1.00  0.00    -0.469 NA 
HETATM    4  H   UNL     1     -11.619  15.488  69.225  1.00  0.00     0.000 HD 
BRANCH   3   5
HETATM    5  C   UNL     1     -11.350  13.655  68.295  1.00  0.00    -0.289 C  
HETATM    6  C   UNL     1     -11.663  12.184  68.607  1.00  0.00    -0.382 C  
HETATM    7  C   UNL     1     -10.963  11.233  67.631  1.00  0.00    -0.259 C  
HETATM    8  C   UNL     1      -9.421  11.370  67.750  1.00  0.00    -0.165 C  
HETATM    9  N   UNL     1     -11.415   9.857  67.921  1.00  0.00    -0.563 NA 
HETATM   10  C   UNL     1      -9.827  13.962  68.206  1.00  0.00    -0.231 C  
HETATM   11  H2  UNL     1     -12.431   9.764  67.900  1.00  0.00     0.000 HD 
HETATM   12  H1  UNL     1     -10.950   9.224  67.272  1.00  0.00     0.000 HD 
HETATM   13  C   UNL     1      -8.963  12.844  67.588  1.00  0.00    -0.192 C  
HETATM   14  H   UNL     1      -7.362  13.944  68.056  1.00  0.00     0.000 HD 
HETATM   15  O   UNL     1      -7.642  13.042  68.154  1.00  0.00    -0.113 OA 
BRANCH   8  16
HETATM   16  O   UNL     1      -8.800  10.529  66.725  1.00  0.00    -0.130 OA 
BRANCH  16  17
HETATM   17  C   UNL     1      -9.702  10.101  65.679  1.00  0.00    -0.259 C  
HETATM   18  H1  UNL     1      -7.060   8.890  63.778  1.00  0.00     0.000 HD 
HETATM   19  O   UNL     1     -10.659  11.136  65.420  1.00  0.00    -0.265 OA 
HETATM   20  C   UNL     1     -10.383  11.983  64.369  1.00  0.00    -0.305 C  
HETATM   21  H2  UNL     1      -7.303   8.786  65.430  1.00  0.00     0.000 HD 
HETATM   22  N   UNL     1      -7.525   9.309  64.583  1.00  0.00    -0.099 NA 
HETATM   23  C   UNL     1      -9.798  11.524  63.254  1.00  0.00    -0.431 C  
HETATM   24  C   UNL     1      -8.987   9.458  64.443  1.00  0.00    -0.169 C  
HETATM   25  C   UNL     1      -9.421  10.090  63.116  1.00  0.00    -0.229 C  
BRANCH  20  26
HETATM   26  C   UNL     1     -10.866  13.396  64.595  1.00  0.00    -0.392 C  
HETATM   27  N   UNL     1      -9.812  14.380  64.832  1.00  0.00    -0.471 NA 
HETATM   28  H2  UNL     1      -9.133  14.358  64.072  1.00  0.00     0.000 HD 
HETATM   29  H1  UNL     1     -10.138  15.335  64.985  1.00  0.00     0.000 HD 
ENDBRANCH  20  26
ENDBRANCH  16  17
ENDBRANCH   8  16
BRANCH  10  30
HETATM   30  O   UNL     1      -9.522  15.291  67.656  1.00  0.00    -0.203 OA 
BRANCH  30  31
HETATM   31  C   UNL     1     -10.295  16.397  68.159  1.00  0.00    -0.283 C  
HETATM   32  O   UNL     1     -10.737  17.095  65.845  1.00  0.00    -0.270 OA 
HETATM   33  C   UNL     1      -8.706  18.827  68.587  1.00  0.00    -0.325 C  
HETATM   34  C   UNL     1     -10.505  17.601  67.171  1.00  0.00    -0.319 C  
HETATM   35  O   UNL     1      -9.743  16.833  69.393  1.00  0.00    -0.176 OA 
HETATM   36  O   UNL     1      -9.540  19.569  69.500  1.00  0.00    -0.226 OA 
HETATM   37  C   UNL     1      -9.397  18.703  67.181  1.00  0.00    -0.290 C  
HETATM   38  H   UNL     1      -9.687  20.435  69.137  1.00  0.00     0.000 HD 
HETATM   39  C   UNL     1      -7.374  19.575  68.514  1.00  0.00    -0.368 C  
HETATM   40  H   UNL     1     -10.864  17.823  65.247  1.00  0.00     0.000 HD 
HETATM   41  C   UNL     1      -8.470  17.439  69.169  1.00  0.00     0.064 C  
BRANCH  37  42
HETATM   42  N   UNL     1      -9.890  20.056  66.791  1.00  0.00    -0.415 NA 
HETATM   43  H   UNL     1      -9.889  20.816  67.471  1.00  0.00     0.000 HD 
HETATM   44  C   UNL     1     -10.369  20.285  65.450  1.00  0.00     0.115 C  
ENDBRANCH  37  42
ENDBRANCH  30  31
ENDBRANCH  10  30
ENDBRANCH   3   5
ENDBRANCH   2   3
TORSDOF 8
ENDMDL
MODEL      154
REMARK 921   NORMALIZED FREE ENERGY PREDICTED BY IDOCK:   -4.95 KCAL/MOL
REMARK 922        TOTAL FREE ENERGY PREDICTED BY IDOCK:   -8.01 KCAL/MOL
REMARK 923 INTER-LIGAND FREE ENERGY PREDICTED BY IDOCK:   -7.16 KCAL/MOL
REMARK 924 INTRA-LIGAND FREE ENERGY PREDICTED BY IDOCK:   -0.84 KCAL/MOL
REMARK 927      BINDING AFFINITY PREDICTED BY RF-SCORE:    0.00 PKD
ROOT
HETATM    1  C   UNL     1      -6.100  10.590  70.721  1.00  0.00    -0.042 C  
HETATM    2  C   UNL     1      -5.939  11.949  70.055  1.00  0.00    -0.159 C  
ENDROOT
BRANCH   2   3
HETATM    3  N   UNL     1      -7.227  12.414  69.533  1.00  0.00    -0.316 NA 
HETATM    4  H   UNL     1      -7.954  12.290  70.238  1.00  0.00     0.000 HD 
BRANCH   3   5
HETATM    5  C   UNL     1      -7.244  13.813  69.023  1.00  0.00    -0.063 C  
HETATM    6  C   UNL     1      -6.237  14.697  69.773  1.00  0.00    -0.140 C  
HETATM    7  C   UNL     1      -6.214  16.126  69.223  1.00  0.00    -0.163 C  
HETATM    8  C   UNL     1      -7.597  16.806  69.418  1.00  0.00     0.009 C  
HETATM    9  N   UNL     1      -5.137  16.870  69.910  1.00  0.00    -0.159 NA 
HETATM   10  C   UNL     1      -8.678  14.415  68.965  1.00  0.00     0.014 C  
HETATM   11  H2  UNL     1      -4.232  16.406  69.837  1.00  0.00     0.000 HD 
HETATM   12  H1  UNL     1      -5.122  17.821  69.544  1.00  0.00     0.000 HD 
HETATM   13  C   UNL     1      -8.745  15.949  68.820  1.00  0.00    -0.213 C  
HETATM   14  H   UNL     1     -10.725  15.795  69.032  1.00  0.00     0.000 HD 
HETATM   15  O   UNL     1     -10.023  16.319  69.397  1.00  0.00    -0.248 OA 
BRANCH   8  16
HETATM   16  O   UNL     1      -7.561  18.123  68.780  1.00  0.00    -0.294 OA 
BRANCH  16  17
HETATM   17  C   UNL     1      -7.060  18.114  67.423  1.00  0.00    -0.198 C  
HETATM   18  H1  UNL     1      -4.333  20.067  68.326  1.00  0.00     0.000 HD 
HETATM   19  O   UNL     1      -8.140  18.359  66.513  1.00  0.00    -0.252 OA 
HETATM   20  C   UNL     1      -8.303  19.658  66.084  1.00  0.00    -0.335 C  
HETATM   21  H2  UNL     1      -5.038  18.795  69.154  1.00  0.00     0.000 HD 
HETATM   22  N   UNL     1      -5.187  19.525  68.457  1.00  0.00    -0.192 NA 
HETATM   23  C   UNL     1      -7.242  20.443  65.855  1.00  0.00    -0.212 C  
HETATM   24  C   UNL     1      -5.749  18.946  67.221  1.00  0.00    -0.162 C  
HETATM   25  C   UNL     1      -5.855  19.943  66.063  1.00  0.00    -0.180 C  
BRANCH  20  26
HETATM   26  C   UNL     1      -9.747  20.033  65.847  1.00  0.00    -0.292 C  
HETATM   27  N   UNL     1     -10.714  18.967  66.105  1.00  0.00    -0.385 NA 
HETATM   28  H2  UNL     1     -10.595  18.606  67.052  1.00  0.00     0.000 HD 
HETATM   29  H1  UNL     1     -11.689  19.220  65.945  1.00  0.00     0.000 HD 
ENDBRANCH  20  26
ENDBRANCH  16  17
ENDBRANCH   8  16
BRANCH  10  30
HETATM   30  O   UNL     1      -9.578  13.713  68.037  1.00  0.00    -0.203 OA 
BRANCH  30  31
HETATM   31  C   UNL     1      -9.081  13.470  66.707  1.00  0.00    -0.212 C  
HETATM   32  O   UNL     1     -11.273  14.122  65.807  1.00  0.00    -0.304 OA 
HETATM   33  C   UNL     1      -9.522  10.720  65.786  1.00  0.00    -0.204 C  
HETATM   34  C   UNL     1     -10.167  13.229  65.597  1.00  0.00    -0.289 C  
HETATM   35  O   UNL     1      -8.137  12.411  66.745  1.00  0.00    -0.111 OA 
HETATM   36  O   UNL     1      -8.558  10.607  64.719  1.00  0.00    -0.201 OA 
HETATM   37  C   UNL     1     -10.646  11.753  65.411  1.00  0.00    -0.277 C  
HETATM   38  H   UNL     1      -9.010  10.319  63.934  1.00  0.00     0.000 HD 
HETATM   39  C   UNL     1     -10.080   9.314  66.014  1.00  0.00    -0.262 C  
HETATM   40  H   UNL     1     -11.929  13.976  65.136  1.00  0.00     0.000 HD 
HETATM   41  C   UNL     1      -8.797  11.181  67.043  1.00  0.00    -0.149 C  
BRANCH  37  42
HETATM   42  N   UNL     1     -11.113  11.441  64.029  1.00  0.00    -0.398 NA 
HETATM   43  H   UNL     1     -10.619  10.747  63.466  1.00  0.00     0.000 HD 
HETATM   44  C   UNL     1     -12.263  12.124  63.491  1.00  0.00    -0.567 C  
ENDBRANCH  37  42
ENDBRANCH  30  31
ENDBRANCH  10  30
ENDBRANCH   3   5
ENDBRANCH   2   3
TORSDOF 8
ENDMDL
MODEL      155
REMARK 921   NORMALIZED FREE ENERGY PREDICTED BY IDOCK:   -4.95 KCAL/MOL
REMARK 922        TOTAL FREE ENERGY PREDICTED BY IDOCK:   -8.00 KCAL/MOL
REMARK 923 INTER-LIGAND FREE ENERGY PREDICTED BY IDOCK:   -6.23 KCAL/MOL
REMARK 924 INTRA-LIGAND FREE ENERGY PREDICTED BY IDOCK:   -1.77 KCAL/MOL
REMARK 927      BINDING AFFINITY PREDICTED BY RF-SCORE:    0.00 PKD
ROOT
HETATM    1  C   UNL     1      -5.375  11.789  70.815  1.00  0.00    -0.145 C  
HETATM    2  C   UNL     1      -6.107  11.723  69.481  1.00  0.00    -0.106 C  
ENDROOT
BRANCH   2   3
HETATM    3  N   UNL     1      -7.526  11.426  69.696  1.00  0.00    -0.351 NA 
HETATM    4  H   UNL     1      -8.091  12.249  69.484  1.00  0.00     0.000 HD 
BRANCH   3   5
HETATM    5  C   UNL     1      -8.051  10.243  68.961  1.00  0.00    -0.132 C  
HETATM    6  C   UNL     1      -7.650   8.930  69.651  1.00  0.00    -0.072 C  
HETATM    7  C   UNL     1      -8.226   7.708  68.927  1.00  0.00    -0.128 C  
HETATM    8  C   UNL     1      -7.662   7.616  67.483  1.00  0.00    -0.118 C  
HETATM    9  N   UNL     1      -7.901   6.505  69.721  1.00  0.00    -0.112 NA 
HETATM   10  C   UNL     1      -7.713  10.277  67.443  1.00  0.00    -0.095 C  
HETATM   11  H2  UNL     1      -8.218   6.574  70.688  1.00  0.00     0.000 HD 
HETATM   12  H1  UNL     1      -8.284   5.692  69.240  1.00  0.00     0.000 HD 
HETATM   13  C   UNL     1      -7.877   8.937  66.699  1.00  0.00    -0.100 C  
HETATM   14  H   UNL     1      -7.100   9.834  65.092  1.00  0.00     0.000 HD 
HETATM   15  O   UNL     1      -6.968   9.025  65.572  1.00  0.00    -0.078 OA 
BRANCH   8  16
HETATM   16  O   UNL     1      -8.323   6.503  66.798  1.00  0.00    -0.109 OA 
BRANCH  16  17
HETATM   17  C   UNL     1      -7.476   5.351  66.579  1.00  0.00    -0.087 C  
HETATM   18  H1  UNL     1      -8.529   5.098  63.279  1.00  0.00     0.000 HD 
HETATM   19  O   UNL     1      -7.602   4.448  67.685  1.00  0.00    -0.076 OA 
HETATM   20  C   UNL     1      -8.487   3.403  67.531  1.00  0.00    -0.097 C  
HETATM   21  H2  UNL     1      -8.164   6.469  64.166  1.00  0.00     0.000 HD 
HETATM   22  N   UNL     1      -8.458   5.494  64.216  1.00  0.00    -0.111 NA 
HETATM   23  C   UNL     1      -8.633   2.797  66.345  1.00  0.00    -0.110 C  
HETATM   24  C   UNL     1      -7.585   4.743  65.140  1.00  0.00    -0.077 C  
HETATM   25  C   UNL     1      -7.852   3.234  65.155  1.00  0.00    -0.082 C  
BRANCH  20  26
HETATM   26  C   UNL     1      -9.174   3.006  68.817  1.00  0.00    -0.166 C  
HETATM   27  N   UNL     1      -9.645   4.121  69.637  1.00  0.00    -0.196 NA 
HETATM   28  H2  UNL     1     -10.251   4.730  69.088  1.00  0.00     0.000 HD 
HETATM   29  H1  UNL     1     -10.108   3.853  70.505  1.00  0.00     0.000 HD 
ENDBRANCH  20  26
ENDBRANCH  16  17
ENDBRANCH   8  16
BRANCH  10  30
HETATM   30  O   UNL     1      -8.321  11.408  66.726  1.00  0.00    -0.153 OA 
BRANCH  30  31
HETATM   31  C   UNL     1      -9.758  11.495  66.747  1.00  0.00    -0.199 C  
HETATM   32  O   UNL     1      -9.806  10.658  64.437  1.00  0.00    -0.280 OA 
HETATM   33  C   UNL     1     -10.780  14.087  65.827  1.00  0.00    -0.293 C  
HETATM   34  C   UNL     1     -10.468  11.554  65.346  1.00  0.00    -0.281 C  
HETATM   35  O   UNL     1     -10.151  12.582  67.570  1.00  0.00    -0.204 OA 
HETATM   36  O   UNL     1     -12.111  14.095  66.383  1.00  0.00    -0.422 OA 
HETATM   37  C   UNL     1     -10.647  12.976  64.723  1.00  0.00    -0.362 C  
HETATM   38  H   UNL     1     -12.729  14.263  65.680  1.00  0.00     0.000 HD 
HETATM   39  C   UNL     1     -10.537  15.490  65.269  1.00  0.00    -0.446 C  
HETATM   40  H   UNL     1     -10.235  10.693  63.590  1.00  0.00     0.000 HD 
HETATM   41  C   UNL     1      -9.789  13.817  66.952  1.00  0.00    -0.264 C  
BRANCH  37  42
HETATM   42  N   UNL     1     -11.822  13.091  63.812  1.00  0.00    -0.473 NA 
HETATM   43  H   UNL     1     -11.858  13.832  63.113  1.00  0.00     0.000 HD 
HETATM   44  C   UNL     1     -12.910  12.150  63.925  1.00  0.00    -0.306 C  
ENDBRANCH  37  42
ENDBRANCH  30  31
ENDBRANCH  10  30
ENDBRANCH   3   5
ENDBRANCH   2   3
TORSDOF 8
ENDMDL
MODEL      156
REMARK 921   NORMALIZED FREE ENERGY PREDICTED BY IDOCK:   -4.94 KCAL/MOL
REMARK 922        TOTAL FREE ENERGY PREDICTED BY IDOCK:   -8.00 KCAL/MOL
REMARK 923 INTER-LIGAND FREE ENERGY PREDICTED BY IDOCK:   -6.81 KCAL/MOL
REMARK 924 INTRA-LIGAND FREE ENERGY PREDICTED BY IDOCK:   -1.18 KCAL/MOL
REMARK 927      BINDING AFFINITY PREDICTED BY RF-SCORE:    0.00 PKD
ROOT
HETATM    1  C   UNL     1     -13.593  10.107  72.533  1.00  0.00     0.062 C  
HETATM    2  C   UNL     1     -13.002   9.112  71.542  1.00  0.00    -0.346 C  
ENDROOT
BRANCH   2   3
HETATM    3  N   UNL     1     -12.966   9.697  70.198  1.00  0.00    -0.145 NA 
HETATM    4  H   UNL     1     -13.785  10.287  70.052  1.00  0.00     0.000 HD 
BRANCH   3   5
HETATM    5  C   UNL     1     -11.727  10.450  69.861  1.00  0.00    -0.264 C  
HETATM    6  C   UNL     1     -11.965  11.967  69.894  1.00  0.00    -0.391 C  
HETATM    7  C   UNL     1     -10.684  12.751  69.594  1.00  0.00     0.471 C  
HETATM    8  C   UNL     1     -10.176  12.435  68.161  1.00  0.00    -0.225 C  
HETATM    9  N   UNL     1     -10.970  14.190  69.769  1.00  0.00    -0.455 NA 
HETATM   10  C   UNL     1     -11.059   9.953  68.547  1.00  0.00    -0.129 C  
HETATM   11  H2  UNL     1     -11.357  14.405  70.688  1.00  0.00     0.000 HD 
HETATM   12  H1  UNL     1     -10.118  14.712  69.569  1.00  0.00     0.000 HD 
HETATM   13  C   UNL     1     -10.014  10.908  67.935  1.00  0.00    -0.176 C  
HETATM   14  H   UNL     1      -9.909   9.657  66.381  1.00  0.00     0.000 HD 
HETATM   15  O   UNL     1     -10.008  10.591  66.519  1.00  0.00    -0.199 OA 
BRANCH   8  16
HETATM   16  O   UNL     1      -8.895  13.117  67.962  1.00  0.00    -0.176 OA 
BRANCH  16  17
HETATM   17  C   UNL     1      -8.805  13.867  66.729  1.00  0.00    -0.149 C  
HETATM   18  H1  UNL     1      -7.701  16.689  68.427  1.00  0.00     0.000 HD 
HETATM   19  O   UNL     1      -9.979  13.635  65.941  1.00  0.00    -0.299 OA 
HETATM   20  C   UNL     1     -10.984  14.572  66.041  1.00  0.00    -0.324 C  
HETATM   21  H2  UNL     1      -7.289  15.086  68.670  1.00  0.00     0.000 HD 
HETATM   22  N   UNL     1      -7.998  15.721  68.304  1.00  0.00    -0.128 NA 
HETATM   23  C   UNL     1     -10.698  15.873  66.177  1.00  0.00    -0.273 C  
HETATM   24  C   UNL     1      -8.349  15.353  66.918  1.00  0.00    -0.255 C  
HETATM   25  C   UNL     1      -9.289  16.351  66.232  1.00  0.00    -0.348 C  
BRANCH  20  26
HETATM   26  C   UNL     1     -12.369  13.981  65.909  1.00  0.00    -0.486 C  
HETATM   27  N   UNL     1     -12.407  12.590  65.460  1.00  0.00    -0.642 NA 
HETATM   28  H2  UNL     1     -11.833  12.008  66.069  1.00  0.00     0.000 HD 
HETATM   29  H1  UNL     1     -13.342  12.191  65.370  1.00  0.00     0.000 HD 
ENDBRANCH  20  26
ENDBRANCH  16  17
ENDBRANCH   8  16
BRANCH  10  30
HETATM   30  O   UNL     1     -10.592   8.560  68.610  1.00  0.00    -0.198 OA 
BRANCH  30  31
HETATM   31  C   UNL     1      -9.892   8.161  69.805  1.00  0.00    -0.187 C  
HETATM   32  O   UNL     1      -7.774   8.296  68.566  1.00  0.00    -0.107 OA 
HETATM   33  C   UNL     1      -9.565   5.255  70.045  1.00  0.00    -0.174 C  
HETATM   34  C   UNL     1      -8.455   7.560  69.596  1.00  0.00    -0.135 C  
HETATM   35  O   UNL     1     -10.715   7.284  70.559  1.00  0.00    -0.223 OA 
HETATM   36  O   UNL     1      -9.310   5.101  71.456  1.00  0.00    -0.143 OA 
HETATM   37  C   UNL     1      -8.382   6.019  69.347  1.00  0.00    -0.115 C  
HETATM   38  H   UNL     1      -8.503   4.611  71.564  1.00  0.00     0.000 HD 
HETATM   39  C   UNL     1      -9.755   3.844  69.484  1.00  0.00    -0.191 C  
HETATM   40  H   UNL     1      -6.905   7.932  68.441  1.00  0.00     0.000 HD 
HETATM   41  C   UNL     1     -10.859   6.041  69.872  1.00  0.00    -0.363 C  
BRANCH  37  42
HETATM   42  N   UNL     1      -7.105   5.396  69.799  1.00  0.00    -0.061 NA 
HETATM   43  H   UNL     1      -6.886   4.433  69.542  1.00  0.00     0.000 HD 
HETATM   44  C   UNL     1      -6.180   6.159  70.600  1.00  0.00    -0.038 C  
ENDBRANCH  37  42
ENDBRANCH  30  31
ENDBRANCH  10  30
ENDBRANCH   3   5
ENDBRANCH   2   3
TORSDOF 8
ENDMDL
MODEL      157
REMARK 921   NORMALIZED FREE ENERGY PREDICTED BY IDOCK:   -4.93 KCAL/MOL
REMARK 922        TOTAL FREE ENERGY PREDICTED BY IDOCK:   -7.97 KCAL/MOL
REMARK 923 INTER-LIGAND FREE ENERGY PREDICTED BY IDOCK:   -6.24 KCAL/MOL
REMARK 924 INTRA-LIGAND FREE ENERGY PREDICTED BY IDOCK:   -1.73 KCAL/MOL
REMARK 927      BINDING AFFINITY PREDICTED BY RF-SCORE:    0.00 PKD
ROOT
HETATM    1  C   UNL     1     -14.407   8.676  72.336  1.00  0.00    -0.429 C  
HETATM    2  C   UNL     1     -13.077   9.417  72.337  1.00  0.00    -0.379 C  
ENDROOT
BRANCH   2   3
HETATM    3  N   UNL     1     -11.974   8.478  72.560  1.00  0.00    -0.373 NA 
HETATM    4  H   UNL     1     -12.342   7.547  72.758  1.00  0.00     0.000 HD 
BRANCH   3   5
HETATM    5  C   UNL     1     -10.965   8.405  71.467  1.00  0.00    -0.262 C  
HETATM    6  C   UNL     1     -10.715   9.785  70.840  1.00  0.00    -0.375 C  
HETATM    7  C   UNL     1      -9.644   9.728  69.747  1.00  0.00    -0.230 C  
HETATM    8  C   UNL     1     -10.106   8.813  68.580  1.00  0.00    -0.189 C  
HETATM    9  N   UNL     1      -9.376  11.107  69.289  1.00  0.00    -0.404 NA 
HETATM   10  C   UNL     1     -11.287   7.297  70.423  1.00  0.00    -0.271 C  
HETATM   11  H2  UNL     1      -9.124  11.733  70.054  1.00  0.00     0.000 HD 
HETATM   12  H1  UNL     1      -8.663  11.069  68.561  1.00  0.00     0.000 HD 
HETATM   13  C   UNL     1     -10.525   7.407  69.087  1.00  0.00    -0.213 C  
HETATM   14  H   UNL     1     -11.633   5.880  68.430  1.00  0.00     0.000 HD 
HETATM   15  O   UNL     1     -11.376   6.740  68.120  1.00  0.00    -0.125 OA 
BRANCH   8  16
HETATM   16  O   UNL     1      -9.009   8.701  67.616  1.00  0.00    -0.134 OA 
BRANCH  16  17
HETATM   17  C   UNL     1      -7.928   7.840  68.042  1.00  0.00    -0.122 C  
HETATM   18  H1  UNL     1      -5.632  10.427  67.728  1.00  0.00     0.000 HD 
HETATM   19  O   UNL     1      -8.029   6.577  67.372  1.00  0.00    -0.110 OA 
HETATM   20  C   UNL     1      -7.260   6.416  66.241  1.00  0.00    -0.072 C  
HETATM   21  H2  UNL     1      -7.191  10.471  68.334  1.00  0.00     0.000 HD 
HETATM   22  N   UNL     1      -6.545   9.974  67.720  1.00  0.00    -0.067 NA 
HETATM   23  C   UNL     1      -6.034   6.949  66.163  1.00  0.00    -0.035 C  
HETATM   24  C   UNL     1      -6.525   8.536  68.054  1.00  0.00    -0.057 C  
HETATM   25  C   UNL     1      -5.464   7.737  67.290  1.00  0.00    -0.035 C  
BRANCH  20  26
HETATM   26  C   UNL     1      -7.914   5.546  65.192  1.00  0.00    -0.110 C  
HETATM   27  N   UNL     1      -8.043   6.160  63.872  1.00  0.00    -0.222 NA 
HETATM   28  H2  UNL     1      -7.133   6.484  63.544  1.00  0.00     0.000 HD 
HETATM   29  H1  UNL     1      -8.484   5.573  63.163  1.00  0.00     0.000 HD 
ENDBRANCH  20  26
ENDBRANCH  16  17
ENDBRANCH   8  16
BRANCH  10  30
HETATM   30  O   UNL     1     -11.270   5.936  70.980  1.00  0.00    -0.279 OA 
BRANCH  30  31
HETATM   31  C   UNL     1     -10.101   5.553  71.730  1.00  0.00    -0.196 C  
HETATM   32  O   UNL     1      -9.415   4.116  69.858  1.00  0.00    -0.158 OA 
HETATM   33  C   UNL     1     -10.516   3.178  73.400  1.00  0.00    -0.163 C  
HETATM   34  C   UNL     1      -9.407   4.213  71.292  1.00  0.00    -0.151 C  
HETATM   35  O   UNL     1     -10.412   5.545  73.114  1.00  0.00    -0.193 OA 
HETATM   36  O   UNL     1      -9.444   3.297  74.357  1.00  0.00    -0.091 OA 
HETATM   37  C   UNL     1      -9.947   2.907  71.960  1.00  0.00    -0.156 C  
HETATM   38  H   UNL     1      -8.946   2.487  74.354  1.00  0.00     0.000 HD 
HETATM   39  C   UNL     1     -11.410   2.038  73.894  1.00  0.00    -0.249 C  
HETATM   40  H   UNL     1      -8.995   3.306  69.594  1.00  0.00     0.000 HD 
HETATM   41  C   UNL     1     -11.313   4.476  73.404  1.00  0.00    -0.286 C  
BRANCH  37  42
HETATM   42  N   UNL     1      -8.932   1.820  72.065  1.00  0.00    -0.067 NA 
HETATM   43  H   UNL     1      -9.213   0.883  72.355  1.00  0.00     0.000 HD 
HETATM   44  C   UNL     1      -7.551   2.098  71.756  1.00  0.00    -0.041 C  
ENDBRANCH  37  42
ENDBRANCH  30  31
ENDBRANCH  10  30
ENDBRANCH   3   5
ENDBRANCH   2   3
TORSDOF 8
ENDMDL
MODEL      158
REMARK 921   NORMALIZED FREE ENERGY PREDICTED BY IDOCK:   -4.91 KCAL/MOL
REMARK 922        TOTAL FREE ENERGY PREDICTED BY IDOCK:   -7.95 KCAL/MOL
REMARK 923 INTER-LIGAND FREE ENERGY PREDICTED BY IDOCK:   -7.98 KCAL/MOL
REMARK 924 INTRA-LIGAND FREE ENERGY PREDICTED BY IDOCK:    0.03 KCAL/MOL
REMARK 927      BINDING AFFINITY PREDICTED BY RF-SCORE:    0.00 PKD
ROOT
HETATM    1  C   UNL     1      -9.694  12.019  64.465  1.00  0.00    -0.101 C  
HETATM    2  C   UNL     1     -11.119  12.476  64.748  1.00  0.00    -0.301 C  
ENDROOT
BRANCH   2   3
HETATM    3  N   UNL     1     -11.415  12.354  66.178  1.00  0.00    -0.359 NA 
HETATM    4  H   UNL     1     -12.407  12.160  66.314  1.00  0.00     0.000 HD 
BRANCH   3   5
HETATM    5  C   UNL     1     -10.594  11.356  66.919  1.00  0.00    -0.252 C  
HETATM    6  C   UNL     1     -10.879   9.925  66.437  1.00  0.00     0.078 C  
HETATM    7  C   UNL     1     -10.005   8.897  67.161  1.00  0.00    -0.226 C  
HETATM    8  C   UNL     1     -10.311   8.898  68.684  1.00  0.00    -0.204 C  
HETATM    9  N   UNL     1     -10.250   7.572  66.554  1.00  0.00    -0.485 NA 
HETATM   10  C   UNL     1     -10.690  11.524  68.462  1.00  0.00    -0.209 C  
HETATM   11  H2  UNL     1     -10.105   7.570  65.544  1.00  0.00     0.000 HD 
HETATM   12  H1  UNL     1      -9.668   6.887  67.035  1.00  0.00     0.000 HD 
HETATM   13  C   UNL     1     -10.193  10.321  69.290  1.00  0.00    -0.227 C  
HETATM   14  H   UNL     1     -10.843  11.283  70.916  1.00  0.00     0.000 HD 
HETATM   15  O   UNL     1     -10.915  10.412  70.545  1.00  0.00    -0.299 OA 
BRANCH   8  16
HETATM   16  O   UNL     1      -9.377   7.983  69.345  1.00  0.00    -0.155 OA 
BRANCH  16  17
HETATM   17  C   UNL     1      -8.127   8.593  69.741  1.00  0.00    -0.114 C  
HETATM   18  H1  UNL     1      -6.366   6.670  67.445  1.00  0.00     0.000 HD 
HETATM   19  O   UNL     1      -8.058   8.659  71.170  1.00  0.00    -0.118 OA 
HETATM   20  C   UNL     1      -7.374   7.644  71.803  1.00  0.00    -0.065 C  
HETATM   21  H2  UNL     1      -7.849   7.424  67.269  1.00  0.00     0.000 HD 
HETATM   22  N   UNL     1      -7.181   7.038  67.936  1.00  0.00    -0.089 NA 
HETATM   23  C   UNL     1      -6.274   7.113  71.254  1.00  0.00    -0.037 C  
HETATM   24  C   UNL     1      -6.876   8.028  68.987  1.00  0.00    -0.057 C  
HETATM   25  C   UNL     1      -5.759   7.593  69.942  1.00  0.00    -0.023 C  
BRANCH  20  26
HETATM   26  C   UNL     1      -7.949   7.285  73.153  1.00  0.00    -0.101 C  
HETATM   27  N   UNL     1      -8.411   8.419  73.951  1.00  0.00    -0.345 NA 
HETATM   28  H2  UNL     1      -9.081   8.974  73.419  1.00  0.00     0.000 HD 
HETATM   29  H1  UNL     1      -8.799   8.176  74.863  1.00  0.00     0.000 HD 
ENDBRANCH  20  26
ENDBRANCH  16  17
ENDBRANCH   8  16
BRANCH  10  30
HETATM   30  O   UNL     1     -10.170  12.809  68.952  1.00  0.00    -0.127 OA 
BRANCH  30  31
HETATM   31  C   UNL     1     -11.047  13.947  68.854  1.00  0.00    -0.266 C  
HETATM   32  O   UNL     1      -9.352  15.308  70.000  1.00  0.00    -0.435 OA 
HETATM   33  C   UNL     1     -12.837  14.237  71.160  1.00  0.00    -0.359 C  
HETATM   34  C   UNL     1     -10.771  15.122  69.860  1.00  0.00    -0.257 C  
HETATM   35  O   UNL     1     -12.395  13.508  68.930  1.00  0.00    -0.248 OA 
HETATM   36  O   UNL     1     -13.877  15.081  70.624  1.00  0.00    -0.651 OA 
HETATM   37  C   UNL     1     -11.478  15.020  71.250  1.00  0.00    -0.311 C  
HETATM   38  H   UNL     1     -13.977  15.835  71.195  1.00  0.00     0.000 HD 
HETATM   39  C   UNL     1     -13.327  13.767  72.531  1.00  0.00    -0.656 C  
HETATM   40  H   UNL     1      -9.185  16.019  70.608  1.00  0.00     0.000 HD 
HETATM   41  C   UNL     1     -12.677  13.030  70.246  1.00  0.00     0.092 C  
BRANCH  37  42
HETATM   42  N   UNL     1     -11.751  16.342  71.884  1.00  0.00    -0.612 NA 
HETATM   43  H   UNL     1     -11.732  17.194  71.323  1.00  0.00     0.000 HD 
HETATM   44  C   UNL     1     -12.043  16.413  73.295  1.00  0.00    -0.457 C  
ENDBRANCH  37  42
ENDBRANCH  30  31
ENDBRANCH  10  30
ENDBRANCH   3   5
ENDBRANCH   2   3
TORSDOF 8
ENDMDL
MODEL      159
REMARK 921   NORMALIZED FREE ENERGY PREDICTED BY IDOCK:   -4.87 KCAL/MOL
REMARK 922        TOTAL FREE ENERGY PREDICTED BY IDOCK:   -7.89 KCAL/MOL
REMARK 923 INTER-LIGAND FREE ENERGY PREDICTED BY IDOCK:   -7.01 KCAL/MOL
REMARK 924 INTRA-LIGAND FREE ENERGY PREDICTED BY IDOCK:   -0.88 KCAL/MOL
REMARK 927      BINDING AFFINITY PREDICTED BY RF-SCORE:    0.00 PKD
ROOT
HETATM    1  C   UNL     1      -9.656  10.723  63.796  1.00  0.00    -0.339 C  
HETATM    2  C   UNL     1      -9.059   9.798  64.848  1.00  0.00    -0.229 C  
ENDROOT
BRANCH   2   3
HETATM    3  N   UNL     1      -9.930   9.741  66.025  1.00  0.00    -0.273 NA 
HETATM    4  H   UNL     1     -10.629   9.007  65.907  1.00  0.00     0.000 HD 
BRANCH   3   5
HETATM    5  C   UNL     1      -9.233   9.574  67.330  1.00  0.00    -0.133 C  
HETATM    6  C   UNL     1      -8.920   8.098  67.616  1.00  0.00    -0.135 C  
HETATM    7  C   UNL     1      -8.160   7.922  68.935  1.00  0.00    -0.125 C  
HETATM    8  C   UNL     1      -9.025   8.409  70.130  1.00  0.00    -0.142 C  
HETATM    9  N   UNL     1      -7.791   6.498  69.070  1.00  0.00    -0.109 NA 
HETATM   10  C   UNL     1      -9.964  10.294  68.500  1.00  0.00    -0.164 C  
HETATM   11  H2  UNL     1      -7.269   6.149  68.266  1.00  0.00     0.000 HD 
HETATM   12  H1  UNL     1      -7.286   6.381  69.947  1.00  0.00     0.000 HD 
HETATM   13  C   UNL     1      -9.532   9.860  69.915  1.00  0.00    -0.220 C  
HETATM   14  H   UNL     1     -10.993  11.025  70.623  1.00  0.00     0.000 HD 
HETATM   15  O   UNL     1     -10.682  10.137  70.755  1.00  0.00    -0.282 OA 
BRANCH   8  16
HETATM   16  O   UNL     1      -8.219   8.326  71.349  1.00  0.00    -0.108 OA 
BRANCH  16  17
HETATM   17  C   UNL     1      -8.809   7.527  72.400  1.00  0.00    -0.127 C  
HETATM   18  H1  UNL     1      -6.409   5.051  71.981  1.00  0.00     0.000 HD 
HETATM   19  O   UNL     1     -10.233   7.502  72.240  1.00  0.00    -0.191 OA 
HETATM   20  C   UNL     1     -10.761   6.414  71.581  1.00  0.00    -0.232 C  
HETATM   21  H2  UNL     1      -6.222   6.714  71.957  1.00  0.00     0.000 HD 
HETATM   22  N   UNL     1      -6.878   5.944  71.825  1.00  0.00    -0.066 NA 
HETATM   23  C   UNL     1     -10.235   5.193  71.742  1.00  0.00    -0.271 C  
HETATM   24  C   UNL     1      -8.090   6.157  72.640  1.00  0.00    -0.103 C  
HETATM   25  C   UNL     1      -9.060   4.971  72.630  1.00  0.00    -0.141 C  
BRANCH  20  26
HETATM   26  C   UNL     1     -11.986   6.747  70.761  1.00  0.00    -0.378 C  
HETATM   27  N   UNL     1     -11.765   6.815  69.318  1.00  0.00    -0.605 NA 
HETATM   28  H2  UNL     1     -11.344   5.947  68.985  1.00  0.00     0.000 HD 
HETATM   29  H1  UNL     1     -12.591   7.040  68.764  1.00  0.00     0.000 HD 
ENDBRANCH  20  26
ENDBRANCH  16  17
ENDBRANCH   8  16
BRANCH  10  30
HETATM   30  O   UNL     1     -10.033  11.755  68.346  1.00  0.00    -0.194 OA 
BRANCH  30  31
HETATM   31  C   UNL     1      -9.120  12.355  67.408  1.00  0.00    -0.183 C  
HETATM   32  O   UNL     1      -7.559  12.784  69.257  1.00  0.00    -0.319 OA 
HETATM   33  C   UNL     1      -9.521  15.242  67.079  1.00  0.00    -0.223 C  
HETATM   34  C   UNL     1      -8.042  13.324  68.016  1.00  0.00    -0.157 C  
HETATM   35  O   UNL     1      -9.858  12.987  66.373  1.00  0.00    -0.259 OA 
HETATM   36  O   UNL     1      -8.876  15.489  65.813  1.00  0.00    -0.364 OA 
HETATM   37  C   UNL     1      -8.468  14.820  68.167  1.00  0.00    -0.149 C  
HETATM   38  H   UNL     1      -8.238  16.185  65.931  1.00  0.00     0.000 HD 
HETATM   39  C   UNL     1     -10.251  16.535  67.450  1.00  0.00    -0.287 C  
HETATM   40  H   UNL     1      -6.908  13.370  69.624  1.00  0.00     0.000 HD 
HETATM   41  C   UNL     1     -10.542  14.128  66.890  1.00  0.00    -0.280 C  
BRANCH  37  42
HETATM   42  N   UNL     1      -7.328  15.780  68.098  1.00  0.00    -0.120 NA 
HETATM   43  H   UNL     1      -7.406  16.627  67.535  1.00  0.00     0.000 HD 
HETATM   44  C   UNL     1      -6.116  15.506  68.830  1.00  0.00    -0.099 C  
ENDBRANCH  37  42
ENDBRANCH  30  31
ENDBRANCH  10  30
ENDBRANCH   3   5
ENDBRANCH   2   3
TORSDOF 8
ENDMDL
MODEL      160
REMARK 921   NORMALIZED FREE ENERGY PREDICTED BY IDOCK:   -4.87 KCAL/MOL
REMARK 922        TOTAL FREE ENERGY PREDICTED BY IDOCK:   -7.89 KCAL/MOL
REMARK 923 INTER-LIGAND FREE ENERGY PREDICTED BY IDOCK:   -6.06 KCAL/MOL
REMARK 924 INTRA-LIGAND FREE ENERGY PREDICTED BY IDOCK:   -1.83 KCAL/MOL
REMARK 927      BINDING AFFINITY PREDICTED BY RF-SCORE:    0.00 PKD
ROOT
HETATM    1  C   UNL     1      -6.947  13.379  68.963  1.00  0.00    -0.084 C  
HETATM    2  C   UNL     1      -6.787  11.864  68.970  1.00  0.00    -0.105 C  
ENDROOT
BRANCH   2   3
HETATM    3  N   UNL     1      -8.069  11.221  69.269  1.00  0.00    -0.378 NA 
HETATM    4  H   UNL     1      -8.828  11.725  68.810  1.00  0.00     0.000 HD 
BRANCH   3   5
HETATM    5  C   UNL     1      -8.149   9.770  68.941  1.00  0.00    -0.101 C  
HETATM    6  C   UNL     1      -7.100   8.960  69.718  1.00  0.00    -0.054 C  
HETATM    7  C   UNL     1      -7.206   7.461  69.423  1.00  0.00    -0.083 C  
HETATM    8  C   UNL     1      -6.927   7.181  67.921  1.00  0.00    -0.080 C  
HETATM    9  N   UNL     1      -6.253   6.749  70.299  1.00  0.00    -0.031 NA 
HETATM   10  C   UNL     1      -8.138   9.497  67.410  1.00  0.00    -0.110 C  
HETATM   11  H2  UNL     1      -6.389   6.966  71.286  1.00  0.00     0.000 HD 
HETATM   12  H1  UNL     1      -6.323   5.751  70.103  1.00  0.00     0.000 HD 
HETATM   13  C   UNL     1      -7.833   8.042  67.001  1.00  0.00    -0.104 C  
HETATM   14  H   UNL     1      -7.827   8.669  65.104  1.00  0.00     0.000 HD 
HETATM   15  O   UNL     1      -7.272   8.142  65.667  1.00  0.00    -0.069 OA 
BRANCH   8  16
HETATM   16  O   UNL     1      -7.149   5.756  67.666  1.00  0.00    -0.070 OA 
BRANCH  16  17
HETATM   17  C   UNL     1      -8.514   5.322  67.862  1.00  0.00    -0.101 C  
HETATM   18  H1  UNL     1      -7.506   2.917  70.157  1.00  0.00     0.000 HD 
HETATM   19  O   UNL     1      -9.166   5.203  66.592  1.00  0.00    -0.123 OA 
HETATM   20  C   UNL     1      -9.203   3.945  66.032  1.00  0.00    -0.158 C  
HETATM   21  H2  UNL     1      -6.961   4.488  69.970  1.00  0.00     0.000 HD 
HETATM   22  N   UNL     1      -7.408   3.696  69.507  1.00  0.00    -0.048 NA 
HETATM   23  C   UNL     1      -9.358   2.858  66.799  1.00  0.00    -0.093 C  
HETATM   24  C   UNL     1      -8.664   4.125  68.861  1.00  0.00    -0.092 C  
HETATM   25  C   UNL     1      -9.486   2.970  68.278  1.00  0.00    -0.216 C  
BRANCH  20  26
HETATM   26  C   UNL     1      -9.129   3.958  64.523  1.00  0.00    -0.137 C  
HETATM   27  N   UNL     1      -8.529   5.159  63.944  1.00  0.00    -0.164 NA 
HETATM   28  H2  UNL     1      -7.604   5.318  64.344  1.00  0.00     0.000 HD 
HETATM   29  H1  UNL     1      -8.478   5.168  62.925  1.00  0.00     0.000 HD 
ENDBRANCH  20  26
ENDBRANCH  16  17
ENDBRANCH   8  16
BRANCH  10  30
HETATM   30  O   UNL     1      -9.295  10.061  66.699  1.00  0.00    -0.158 OA 
BRANCH  30  31
HETATM   31  C   UNL     1      -9.120  11.355  66.092  1.00  0.00    -0.207 C  
HETATM   32  O   UNL     1     -10.382  12.357  67.948  1.00  0.00    -0.201 OA 
HETATM   33  C   UNL     1     -11.278  12.073  64.239  1.00  0.00    -0.357 C  
HETATM   34  C   UNL     1     -10.134  12.470  66.537  1.00  0.00    -0.238 C  
HETATM   35  O   UNL     1      -9.095  11.213  64.680  1.00  0.00    -0.168 OA 
HETATM   36  O   UNL     1     -10.656  13.104  63.445  1.00  0.00    -0.447 OA 
HETATM   37  C   UNL     1     -11.466  12.554  65.723  1.00  0.00    -0.365 C  
HETATM   38  H   UNL     1     -11.210  13.876  63.465  1.00  0.00     0.000 HD 
HETATM   39  C   UNL     1     -12.611  11.752  63.561  1.00  0.00    -0.485 C  
HETATM   40  H   UNL     1     -10.995  13.031  68.216  1.00  0.00     0.000 HD 
HETATM   41  C   UNL     1     -10.389  10.837  64.207  1.00  0.00    -0.331 C  
BRANCH  37  42
HETATM   42  N   UNL     1     -12.066  13.919  65.690  1.00  0.00    -0.396 NA 
HETATM   43  H   UNL     1     -13.025  14.050  65.367  1.00  0.00     0.000 HD 
HETATM   44  C   UNL     1     -11.286  15.055  66.116  1.00  0.00    -0.307 C  
ENDBRANCH  37  42
ENDBRANCH  30  31
ENDBRANCH  10  30
ENDBRANCH   3   5
ENDBRANCH   2   3
TORSDOF 8
ENDMDL
MODEL      161
REMARK 921   NORMALIZED FREE ENERGY PREDICTED BY IDOCK:   -4.83 KCAL/MOL
REMARK 922        TOTAL FREE ENERGY PREDICTED BY IDOCK:   -7.84 KCAL/MOL
REMARK 923 INTER-LIGAND FREE ENERGY PREDICTED BY IDOCK:   -6.80 KCAL/MOL
REMARK 924 INTRA-LIGAND FREE ENERGY PREDICTED BY IDOCK:   -1.04 KCAL/MOL
REMARK 927      BINDING AFFINITY PREDICTED BY RF-SCORE:    0.00 PKD
ROOT
HETATM    1  C   UNL     1      -8.803   8.071  73.153  1.00  0.00    -0.318 C  
HETATM    2  C   UNL     1      -9.030   7.548  71.741  1.00  0.00    -0.122 C  
ENDROOT
BRANCH   2   3
HETATM    3  N   UNL     1      -7.780   7.593  70.977  1.00  0.00    -0.087 NA 
HETATM    4  H   UNL     1      -7.442   6.647  70.804  1.00  0.00     0.000 HD 
BRANCH   3   5
HETATM    5  C   UNL     1      -7.839   8.355  69.698  1.00  0.00    -0.100 C  
HETATM    6  C   UNL     1      -8.063   9.854  69.947  1.00  0.00    -0.200 C  
HETATM    7  C   UNL     1      -8.078  10.652  68.640  1.00  0.00    -0.132 C  
HETATM    8  C   UNL     1      -9.256  10.194  67.736  1.00  0.00    -0.137 C  
HETATM    9  N   UNL     1      -8.172  12.088  68.975  1.00  0.00    -0.351 NA 
HETATM   10  C   UNL     1      -8.835   7.738  68.675  1.00  0.00    -0.131 C  
HETATM   11  H2  UNL     1      -7.435  12.392  69.612  1.00  0.00     0.000 HD 
HETATM   12  H1  UNL     1      -8.181  12.619  68.105  1.00  0.00     0.000 HD 
HETATM   13  C   UNL     1      -9.236   8.659  67.505  1.00  0.00    -0.133 C  
HETATM   14  H   UNL     1     -10.528   7.242  66.946  1.00  0.00     0.000 HD 
HETATM   15  O   UNL     1     -10.540   8.181  67.087  1.00  0.00    -0.322 OA 
BRANCH   8  16
HETATM   16  O   UNL     1      -9.162  10.902  66.458  1.00  0.00    -0.164 OA 
BRANCH  16  17
HETATM   17  C   UNL     1      -9.911  10.292  65.382  1.00  0.00    -0.296 C  
HETATM   18  H1  UNL     1      -7.077  10.146  63.379  1.00  0.00     0.000 HD 
HETATM   19  O   UNL     1     -11.155  10.983  65.213  1.00  0.00    -0.101 OA 
HETATM   20  C   UNL     1     -11.194  11.953  64.236  1.00  0.00    -0.357 C  
HETATM   21  H2  UNL     1      -7.225   9.840  65.017  1.00  0.00     0.000 HD 
HETATM   22  N   UNL     1      -7.628  10.328  64.218  1.00  0.00    -0.127 NA 
HETATM   23  C   UNL     1     -10.527  11.795  63.086  1.00  0.00    -0.359 C  
HETATM   24  C   UNL     1      -9.065  10.012  64.095  1.00  0.00    -0.255 C  
HETATM   25  C   UNL     1      -9.716  10.573  62.826  1.00  0.00    -0.265 C  
BRANCH  20  26
HETATM   26  C   UNL     1     -12.097  13.114  64.582  1.00  0.00    -0.408 C  
HETATM   27  N   UNL     1     -12.339  14.056  63.491  1.00  0.00    -1.118 NA 
HETATM   28  H2  UNL     1     -12.697  13.563  62.673  1.00  0.00     0.000 HD 
HETATM   29  H1  UNL     1     -12.948  14.841  63.724  1.00  0.00     0.000 HD 
ENDBRANCH  20  26
ENDBRANCH  16  17
ENDBRANCH   8  16
BRANCH  10  30
HETATM   30  O   UNL     1      -8.470   6.383  68.236  1.00  0.00    -0.115 OA 
BRANCH  30  31
HETATM   31  C   UNL     1      -9.162   5.286  68.863  1.00  0.00    -0.118 C  
HETATM   32  O   UNL     1      -7.163   4.850  70.225  1.00  0.00    -0.048 OA 
HETATM   33  C   UNL     1      -8.778   2.727  67.482  1.00  0.00    -0.115 C  
HETATM   34  C   UNL     1      -8.258   4.203  69.555  1.00  0.00    -0.058 C  
HETATM   35  O   UNL     1     -10.052   4.696  67.927  1.00  0.00    -0.112 OA 
HETATM   36  O   UNL     1      -9.894   1.955  67.971  1.00  0.00    -0.352 OA 
HETATM   37  C   UNL     1      -7.764   3.033  68.643  1.00  0.00    -0.051 C  
HETATM   38  H   UNL     1      -9.562   1.141  68.332  1.00  0.00     0.000 HD 
HETATM   39  C   UNL     1      -8.143   1.902  66.360  1.00  0.00    -0.080 C  
HETATM   40  H   UNL     1      -6.617   4.194  70.643  1.00  0.00     0.000 HD 
HETATM   41  C   UNL     1      -9.310   4.032  66.904  1.00  0.00    -0.182 C  
BRANCH  37  42
HETATM   42  N   UNL     1      -7.511   1.761  69.379  1.00  0.00    -0.043 NA 
HETATM   43  H   UNL     1      -6.996   1.003  68.930  1.00  0.00     0.000 HD 
HETATM   44  C   UNL     1      -7.999   1.606  70.728  1.00  0.00    -0.038 C  
ENDBRANCH  37  42
ENDBRANCH  30  31
ENDBRANCH  10  30
ENDBRANCH   3   5
ENDBRANCH   2   3
TORSDOF 8
ENDMDL
MODEL      162
REMARK 921   NORMALIZED FREE ENERGY PREDICTED BY IDOCK:   -4.82 KCAL/MOL
REMARK 922        TOTAL FREE ENERGY PREDICTED BY IDOCK:   -7.82 KCAL/MOL
REMARK 923 INTER-LIGAND FREE ENERGY PREDICTED BY IDOCK:   -6.10 KCAL/MOL
REMARK 924 INTRA-LIGAND FREE ENERGY PREDICTED BY IDOCK:   -1.72 KCAL/MOL
REMARK 927      BINDING AFFINITY PREDICTED BY RF-SCORE:    0.00 PKD
ROOT
HETATM    1  C   UNL     1     -10.065  14.300  67.978  1.00  0.00    -0.227 C  
HETATM    2  C   UNL     1      -8.631  13.789  67.994  1.00  0.00    -0.177 C  
ENDROOT
BRANCH   2   3
HETATM    3  N   UNL     1      -8.571  12.469  68.629  1.00  0.00    -0.362 NA 
HETATM    4  H   UNL     1      -9.451  12.270  69.105  1.00  0.00     0.000 HD 
BRANCH   3   5
HETATM    5  C   UNL     1      -8.214  11.340  67.725  1.00  0.00    -0.120 C  
HETATM    6  C   UNL     1      -7.127  11.747  66.719  1.00  0.00    -0.047 C  
HETATM    7  C   UNL     1      -6.720  10.579  65.817  1.00  0.00    -0.123 C  
HETATM    8  C   UNL     1      -7.929  10.105  64.963  1.00  0.00    -0.146 C  
HETATM    9  N   UNL     1      -5.591  11.018  64.972  1.00  0.00    -0.462 NA 
HETATM   10  C   UNL     1      -9.459  10.681  67.064  1.00  0.00    -0.164 C  
HETATM   11  H2  UNL     1      -4.811  11.384  65.517  1.00  0.00     0.000 HD 
HETATM   12  H1  UNL     1      -5.320  10.240  64.371  1.00  0.00     0.000 HD 
HETATM   13  C   UNL     1      -9.162   9.782  65.848  1.00  0.00    -0.187 C  
HETATM   14  H   UNL     1     -11.138   9.607  65.605  1.00  0.00     0.000 HD 
HETATM   15  O   UNL     1     -10.382   9.805  65.063  1.00  0.00     0.008 OA 
BRANCH   8  16
HETATM   16  O   UNL     1      -7.523   8.920  64.203  1.00  0.00    -0.104 OA 
BRANCH  16  17
HETATM   17  C   UNL     1      -6.649   8.021  64.924  1.00  0.00    -0.051 C  
HETATM   18  H1  UNL     1      -4.342   8.047  62.327  1.00  0.00     0.000 HD 
HETATM   19  O   UNL     1      -7.422   6.957  65.493  1.00  0.00    -0.079 OA 
HETATM   20  C   UNL     1      -7.479   5.783  64.774  1.00  0.00    -0.076 C  
HETATM   21  H2  UNL     1      -5.232   9.316  62.957  1.00  0.00     0.000 HD 
HETATM   22  N   UNL     1      -5.187   8.304  62.838  1.00  0.00    -0.062 NA 
HETATM   23  C   UNL     1      -6.414   5.344  64.092  1.00  0.00    -0.029 C  
HETATM   24  C   UNL     1      -5.353   7.626  64.139  1.00  0.00    -0.029 C  
HETATM   25  C   UNL     1      -5.137   6.111  64.080  1.00  0.00    -0.017 C  
BRANCH  20  26
HETATM   26  C   UNL     1      -8.799   5.061  64.912  1.00  0.00    -0.140 C  
HETATM   27  N   UNL     1      -9.820   5.777  65.675  1.00  0.00    -0.359 NA 
HETATM   28  H2  UNL     1      -9.966   6.706  65.280  1.00  0.00     0.000 HD 
HETATM   29  H1  UNL     1     -10.711   5.289  65.768  1.00  0.00     0.000 HD 
ENDBRANCH  20  26
ENDBRANCH  16  17
ENDBRANCH   8  16
BRANCH  10  30
HETATM   30  O   UNL     1     -10.380  10.057  68.026  1.00  0.00    -0.175 OA 
BRANCH  30  31
HETATM   31  C   UNL     1      -9.787   9.285  69.088  1.00  0.00    -0.167 C  
HETATM   32  O   UNL     1     -10.678   7.242  68.052  1.00  0.00    -0.318 OA 
HETATM   33  C   UNL     1     -11.575   8.899  71.382  1.00  0.00    -0.312 C  
HETATM   34  C   UNL     1     -10.390   7.852  69.321  1.00  0.00    -0.220 C  
HETATM   35  O   UNL     1      -9.795  10.049  70.284  1.00  0.00    -0.227 OA 
HETATM   36  O   UNL     1     -10.644   8.562  72.430  1.00  0.00    -0.329 OA 
HETATM   37  C   UNL     1     -11.614   7.769  70.290  1.00  0.00    -0.034 C  
HETATM   38  H   UNL     1     -10.919   7.742  72.825  1.00  0.00     0.000 HD 
HETATM   39  C   UNL     1     -12.933   9.098  72.059  1.00  0.00    -0.496 C  
HETATM   40  H   UNL     1     -11.042   6.376  68.193  1.00  0.00     0.000 HD 
HETATM   41  C   UNL     1     -11.135  10.212  70.749  1.00  0.00    -0.298 C  
BRANCH  37  42
HETATM   42  N   UNL     1     -11.739   6.458  70.990  1.00  0.00    -0.331 NA 
HETATM   43  H   UNL     1     -12.586   6.236  71.514  1.00  0.00     0.000 HD 
HETATM   44  C   UNL     1     -10.657   5.506  70.926  1.00  0.00    -0.239 C  
ENDBRANCH  37  42
ENDBRANCH  30  31
ENDBRANCH  10  30
ENDBRANCH   3   5
ENDBRANCH   2   3
TORSDOF 8
ENDMDL
MODEL      163
REMARK 921   NORMALIZED FREE ENERGY PREDICTED BY IDOCK:   -4.82 KCAL/MOL
REMARK 922        TOTAL FREE ENERGY PREDICTED BY IDOCK:   -7.81 KCAL/MOL
REMARK 923 INTER-LIGAND FREE ENERGY PREDICTED BY IDOCK:   -7.40 KCAL/MOL
REMARK 924 INTRA-LIGAND FREE ENERGY PREDICTED BY IDOCK:   -0.40 KCAL/MOL
REMARK 927      BINDING AFFINITY PREDICTED BY RF-SCORE:    0.00 PKD
ROOT
HETATM    1  C   UNL     1      -5.201   6.853  66.110  1.00  0.00    -0.022 C  
HETATM    2  C   UNL     1      -6.208   7.631  65.275  1.00  0.00    -0.038 C  
ENDROOT
BRANCH   2   3
HETATM    3  N   UNL     1      -6.507   8.917  65.911  1.00  0.00    -0.057 NA 
HETATM    4  H   UNL     1      -5.926   9.651  65.504  1.00  0.00     0.000 HD 
BRANCH   3   5
HETATM    5  C   UNL     1      -7.938   9.326  65.886  1.00  0.00    -0.106 C  
HETATM    6  C   UNL     1      -8.148  10.588  65.034  1.00  0.00    -0.096 C  
HETATM    7  C   UNL     1      -9.624  10.989  64.964  1.00  0.00    -0.247 C  
HETATM    8  C   UNL     1     -10.160  11.341  66.379  1.00  0.00    -0.220 C  
HETATM    9  N   UNL     1      -9.751  12.127  64.031  1.00  0.00    -0.548 NA 
HETATM   10  C   UNL     1      -8.562   9.425  67.308  1.00  0.00    -0.128 C  
HETATM   11  H2  UNL     1      -9.354  11.929  63.113  1.00  0.00     0.000 HD 
HETATM   12  H1  UNL     1     -10.734  12.394  63.985  1.00  0.00     0.000 HD 
HETATM   13  C   UNL     1      -9.893  10.197  67.393  1.00  0.00    -0.187 C  
HETATM   14  H   UNL     1      -9.786   9.989  69.377  1.00  0.00     0.000 HD 
HETATM   15  O   UNL     1      -9.949  10.689  68.757  1.00  0.00    -0.176 OA 
BRANCH   8  16
HETATM   16  O   UNL     1     -11.596  11.608  66.278  1.00  0.00    -0.420 OA 
BRANCH  16  17
HETATM   17  C   UNL     1     -11.975  12.964  66.609  1.00  0.00    -0.366 C  
HETATM   18  H1  UNL     1     -12.875  13.607  63.317  1.00  0.00     0.000 HD 
HETATM   19  O   UNL     1     -10.971  13.550  67.448  1.00  0.00    -0.265 OA 
HETATM   20  C   UNL     1     -10.021  14.328  66.823  1.00  0.00    -0.265 C  
HETATM   21  H2  UNL     1     -13.138  12.230  64.231  1.00  0.00     0.000 HD 
HETATM   22  N   UNL     1     -12.554  13.058  64.115  1.00  0.00    -0.664 NA 
HETATM   23  C   UNL     1     -10.348  15.106  65.783  1.00  0.00    -0.359 C  
HETATM   24  C   UNL     1     -12.467  13.806  65.385  1.00  0.00    -0.500 C  
HETATM   25  C   UNL     1     -11.743  15.151  65.263  1.00  0.00    -0.135 C  
BRANCH  20  26
HETATM   26  C   UNL     1      -8.660  14.250  67.474  1.00  0.00    -0.196 C  
HETATM   27  N   UNL     1      -8.656  13.726  68.839  1.00  0.00    -0.366 NA 
HETATM   28  H2  UNL     1      -9.112  12.814  68.866  1.00  0.00     0.000 HD 
HETATM   29  H1  UNL     1      -7.737  13.674  69.279  1.00  0.00     0.000 HD 
ENDBRANCH  20  26
ENDBRANCH  16  17
ENDBRANCH   8  16
BRANCH  10  30
HETATM   30  O   UNL     1      -8.596   8.144  68.029  1.00  0.00    -0.128 OA 
BRANCH  30  31
HETATM   31  C   UNL     1      -9.844   7.425  68.020  1.00  0.00    -0.148 C  
HETATM   32  O   UNL     1      -8.951   5.922  69.748  1.00  0.00    -0.129 OA 
HETATM   33  C   UNL     1      -9.890   5.199  66.110  1.00  0.00    -0.185 C  
HETATM   34  C   UNL     1      -9.804   5.961  68.591  1.00  0.00    -0.136 C  
HETATM   35  O   UNL     1     -10.393   7.454  66.711  1.00  0.00    -0.279 OA 
HETATM   36  O   UNL     1     -11.306   4.981  65.942  1.00  0.00    -0.769 OA 
HETATM   37  C   UNL     1      -9.441   4.833  67.571  1.00  0.00    -0.146 C  
HETATM   38  H   UNL     1     -11.492   4.065  66.117  1.00  0.00     0.000 HD 
HETATM   39  C   UNL     1      -9.193   4.335  65.057  1.00  0.00    -0.155 C  
HETATM   40  H   UNL     1      -8.926   5.038  70.092  1.00  0.00     0.000 HD 
HETATM   41  C   UNL     1      -9.592   6.666  65.830  1.00  0.00     0.239 C  
BRANCH  37  42
HETATM   42  N   UNL     1     -10.026   3.504  67.911  1.00  0.00    -0.016 NA 
HETATM   43  H   UNL     1     -11.002   3.303  67.693  1.00  0.00     0.000 HD 
HETATM   44  C   UNL     1      -9.206   2.504  68.551  1.00  0.00    -0.193 C  
ENDBRANCH  37  42
ENDBRANCH  30  31
ENDBRANCH  10  30
ENDBRANCH   3   5
ENDBRANCH   2   3
TORSDOF 8
ENDMDL
MODEL      164
REMARK 921   NORMALIZED FREE ENERGY PREDICTED BY IDOCK:   -4.81 KCAL/MOL
REMARK 922        TOTAL FREE ENERGY PREDICTED BY IDOCK:   -7.81 KCAL/MOL
REMARK 923 INTER-LIGAND FREE ENERGY PREDICTED BY IDOCK:   -6.32 KCAL/MOL
REMARK 924 INTRA-LIGAND FREE ENERGY PREDICTED BY IDOCK:   -1.49 KCAL/MOL
REMARK 927      BINDING AFFINITY PREDICTED BY RF-SCORE:    0.00 PKD
ROOT
HETATM    1  C   UNL     1     -11.995  12.028  63.365  1.00  0.00    -0.571 C  
HETATM    2  C   UNL     1     -10.762  12.670  63.985  1.00  0.00    -0.425 C  
ENDROOT
BRANCH   2   3
HETATM    3  N   UNL     1     -10.709  12.382  65.422  1.00  0.00    -0.274 NA 
HETATM    4  H   UNL     1     -11.625  12.076  65.750  1.00  0.00     0.000 HD 
BRANCH   3   5
HETATM    5  C   UNL     1      -9.665  11.406  65.841  1.00  0.00    -0.227 C  
HETATM    6  C   UNL     1     -10.182   9.962  65.765  1.00  0.00    -0.251 C  
HETATM    7  C   UNL     1      -9.100   8.949  66.149  1.00  0.00    -0.203 C  
HETATM    8  C   UNL     1      -8.656   9.160  67.623  1.00  0.00    -0.117 C  
HETATM    9  N   UNL     1      -9.638   7.591  65.929  1.00  0.00    -0.413 NA 
HETATM   10  C   UNL     1      -9.021  11.765  67.211  1.00  0.00    -0.172 C  
HETATM   11  H2  UNL     1      -9.985   7.454  64.979  1.00  0.00     0.000 HD 
HETATM   12  H1  UNL     1      -8.918   6.916  66.185  1.00  0.00     0.000 HD 
HETATM   13  C   UNL     1      -8.228  10.628  67.886  1.00  0.00    -0.112 C  
HETATM   14  H   UNL     1      -8.011  11.834  69.464  1.00  0.00     0.000 HD 
HETATM   15  O   UNL     1      -8.273  10.935  69.303  1.00  0.00    -0.130 OA 
BRANCH   8  16
HETATM   16  O   UNL     1      -7.547   8.247  67.908  1.00  0.00    -0.098 OA 
BRANCH  16  17
HETATM   17  C   UNL     1      -7.860   7.213  68.869  1.00  0.00    -0.115 C  
HETATM   18  H1  UNL     1      -4.598   7.218  70.062  1.00  0.00     0.000 HD 
HETATM   19  O   UNL     1      -8.634   6.187  68.234  1.00  0.00    -0.116 OA 
HETATM   20  C   UNL     1      -7.943   5.085  67.779  1.00  0.00    -0.095 C  
HETATM   21  H2  UNL     1      -5.559   8.514  69.620  1.00  0.00     0.000 HD 
HETATM   22  N   UNL     1      -5.394   7.515  69.498  1.00  0.00    -0.022 NA 
HETATM   23  C   UNL     1      -6.900   4.599  68.464  1.00  0.00    -0.051 C  
HETATM   24  C   UNL     1      -6.638   6.757  69.735  1.00  0.00    -0.048 C  
HETATM   25  C   UNL     1      -6.446   5.236  69.732  1.00  0.00    -0.035 C  
BRANCH  20  26
HETATM   26  C   UNL     1      -8.531   4.487  66.523  1.00  0.00    -0.109 C  
HETATM   27  N   UNL     1      -9.585   3.498  66.743  1.00  0.00    -0.366 NA 
HETATM   28  H2  UNL     1     -10.324   3.895  67.322  1.00  0.00     0.000 HD 
HETATM   29  H1  UNL     1      -9.982   3.094  65.894  1.00  0.00     0.000 HD 
ENDBRANCH  20  26
ENDBRANCH  16  17
ENDBRANCH   8  16
BRANCH  10  30
HETATM   30  O   UNL     1      -8.296  13.045  67.207  1.00  0.00    -0.183 OA 
BRANCH  30  31
HETATM   31  C   UNL     1      -8.643  13.993  68.234  1.00  0.00    -0.180 C  
HETATM   32  O   UNL     1     -10.330  14.954  66.727  1.00  0.00    -0.262 OA 
HETATM   33  C   UNL     1      -7.098  16.482  68.089  1.00  0.00    -0.145 C  
HETATM   34  C   UNL     1      -9.383  15.294  67.753  1.00  0.00    -0.196 C  
HETATM   35  O   UNL     1      -7.486  14.308  68.994  1.00  0.00    -0.126 OA 
HETATM   36  O   UNL     1      -7.261  17.010  69.422  1.00  0.00    -0.207 OA 
HETATM   37  C   UNL     1      -8.469  16.485  67.320  1.00  0.00    -0.180 C  
HETATM   38  H   UNL     1      -7.590  17.899  69.355  1.00  0.00     0.000 HD 
HETATM   39  C   UNL     1      -6.047  17.358  67.404  1.00  0.00    -0.162 C  
HETATM   40  H   UNL     1     -10.776  15.740  66.436  1.00  0.00     0.000 HD 
HETATM   41  C   UNL     1      -6.570  15.058  68.196  1.00  0.00    -0.127 C  
BRANCH  37  42
HETATM   42  N   UNL     1      -9.097  17.825  67.508  1.00  0.00    -0.243 NA 
HETATM   43  H   UNL     1      -8.990  18.321  68.394  1.00  0.00     0.000 HD 
HETATM   44  C   UNL     1      -9.857  18.417  66.435  1.00  0.00    -0.360 C  
ENDBRANCH  37  42
ENDBRANCH  30  31
ENDBRANCH  10  30
ENDBRANCH   3   5
ENDBRANCH   2   3
TORSDOF 8
ENDMDL
MODEL      165
REMARK 921   NORMALIZED FREE ENERGY PREDICTED BY IDOCK:   -4.81 KCAL/MOL
REMARK 922        TOTAL FREE ENERGY PREDICTED BY IDOCK:   -7.80 KCAL/MOL
REMARK 923 INTER-LIGAND FREE ENERGY PREDICTED BY IDOCK:   -5.96 KCAL/MOL
REMARK 924 INTRA-LIGAND FREE ENERGY PREDICTED BY IDOCK:   -1.84 KCAL/MOL
REMARK 927      BINDING AFFINITY PREDICTED BY RF-SCORE:    0.00 PKD
ROOT
HETATM    1  C   UNL     1      -8.632   9.952  62.376  1.00  0.00    -0.200 C  
HETATM    2  C   UNL     1      -8.832  10.780  63.638  1.00  0.00    -0.135 C  
ENDROOT
BRANCH   2   3
HETATM    3  N   UNL     1      -9.644  10.038  64.607  1.00  0.00    -0.309 NA 
HETATM    4  H   UNL     1      -9.101   9.269  65.000  1.00  0.00     0.000 HD 
BRANCH   3   5
HETATM    5  C   UNL     1     -10.238  10.854  65.702  1.00  0.00    -0.263 C  
HETATM    6  C   UNL     1     -10.247  12.349  65.348  1.00  0.00    -0.302 C  
HETATM    7  C   UNL     1     -10.900  13.190  66.449  1.00  0.00    -0.287 C  
HETATM    8  C   UNL     1     -10.093  13.076  67.771  1.00  0.00    -0.229 C  
HETATM    9  N   UNL     1     -10.981  14.588  65.976  1.00  0.00    -0.317 NA 
HETATM   10  C   UNL     1      -9.608  10.548  67.091  1.00  0.00    -0.168 C  
HETATM   11  H2  UNL     1     -11.461  14.672  65.080  1.00  0.00     0.000 HD 
HETATM   12  H1  UNL     1     -11.415  15.148  66.709  1.00  0.00     0.000 HD 
HETATM   13  C   UNL     1      -9.885  11.595  68.188  1.00  0.00    -0.191 C  
HETATM   14  H   UNL     1      -8.647  10.562  69.366  1.00  0.00     0.000 HD 
HETATM   15  O   UNL     1      -8.774  11.468  69.112  1.00  0.00     0.066 OA 
BRANCH   8  16
HETATM   16  O   UNL     1     -10.814  13.803  68.818  1.00  0.00    -0.250 OA 
BRANCH  16  17
HETATM   17  C   UNL     1     -10.053  14.868  69.435  1.00  0.00    -0.158 C  
HETATM   18  H1  UNL     1     -12.279  17.257  68.249  1.00  0.00     0.000 HD 
HETATM   19  O   UNL     1      -8.657  14.667  69.182  1.00  0.00    -0.133 OA 
HETATM   20  C   UNL     1      -8.117  15.356  68.118  1.00  0.00    -0.136 C  
HETATM   21  H2  UNL     1     -12.600  15.742  68.885  1.00  0.00     0.000 HD 
HETATM   22  N   UNL     1     -11.903  16.325  68.421  1.00  0.00    -0.071 NA 
HETATM   23  C   UNL     1      -8.524  16.598  67.828  1.00  0.00    -0.191 C  
HETATM   24  C   UNL     1     -10.632  16.299  69.172  1.00  0.00    -0.292 C  
HETATM   25  C   UNL     1      -9.577  17.273  68.637  1.00  0.00    -0.284 C  
BRANCH  20  26
HETATM   26  C   UNL     1      -7.017  14.599  67.412  1.00  0.00    -0.093 C  
HETATM   27  N   UNL     1      -6.527  13.416  68.118  1.00  0.00    -0.104 NA 
HETATM   28  H2  UNL     1      -7.303  12.789  68.334  1.00  0.00     0.000 HD 
HETATM   29  H1  UNL     1      -5.784  12.905  67.641  1.00  0.00     0.000 HD 
ENDBRANCH  20  26
ENDBRANCH  16  17
ENDBRANCH   8  16
BRANCH  10  30
HETATM   30  O   UNL     1      -9.828   9.168  67.550  1.00  0.00    -0.159 OA 
BRANCH  30  31
HETATM   31  C   UNL     1      -8.665   8.324  67.658  1.00  0.00    -0.133 C  
HETATM   32  O   UNL     1      -9.346   7.182  65.591  1.00  0.00    -0.381 OA 
HETATM   33  C   UNL     1      -9.152   5.862  69.177  1.00  0.00    -0.122 C  
HETATM   34  C   UNL     1      -8.719   6.967  66.867  1.00  0.00    -0.122 C  
HETATM   35  O   UNL     1      -8.365   8.111  69.029  1.00  0.00    -0.125 OA 
HETATM   36  O   UNL     1      -7.813   5.472  69.546  1.00  0.00    -0.084 OA 
HETATM   37  C   UNL     1      -9.353   5.754  67.622  1.00  0.00    -0.108 C  
HETATM   38  H   UNL     1      -7.673   4.575  69.264  1.00  0.00     0.000 HD 
HETATM   39  C   UNL     1     -10.098   4.940  69.949  1.00  0.00    -0.332 C  
HETATM   40  H   UNL     1      -9.378   6.362  65.113  1.00  0.00     0.000 HD 
HETATM   41  C   UNL     1      -9.376   7.300  69.628  1.00  0.00    -0.153 C  
BRANCH  37  42
HETATM   42  N   UNL     1      -8.826   4.430  67.182  1.00  0.00    -0.111 NA 
HETATM   43  H   UNL     1      -9.342   3.577  67.398  1.00  0.00     0.000 HD 
HETATM   44  C   UNL     1      -7.585   4.360  66.451  1.00  0.00    -0.086 C  
ENDBRANCH  37  42
ENDBRANCH  30  31
ENDBRANCH  10  30
ENDBRANCH   3   5
ENDBRANCH   2   3
TORSDOF 8
ENDMDL
MODEL      166
REMARK 921   NORMALIZED FREE ENERGY PREDICTED BY IDOCK:   -4.80 KCAL/MOL
REMARK 922        TOTAL FREE ENERGY PREDICTED BY IDOCK:   -7.79 KCAL/MOL
REMARK 923 INTER-LIGAND FREE ENERGY PREDICTED BY IDOCK:   -7.10 KCAL/MOL
REMARK 924 INTRA-LIGAND FREE ENERGY PREDICTED BY IDOCK:   -0.69 KCAL/MOL
REMARK 927      BINDING AFFINITY PREDICTED BY RF-SCORE:    0.00 PKD
ROOT
HETATM    1  C   UNL     1      -8.827  13.786  68.480  1.00  0.00    -0.116 C  
HETATM    2  C   UNL     1      -7.799  12.667  68.381  1.00  0.00    -0.136 C  
ENDROOT
BRANCH   2   3
HETATM    3  N   UNL     1      -8.360  11.417  68.904  1.00  0.00    -0.336 NA 
HETATM    4  H   UNL     1      -9.359  11.527  69.075  1.00  0.00     0.000 HD 
BRANCH   3   5
HETATM    5  C   UNL     1      -8.115  10.208  68.070  1.00  0.00    -0.112 C  
HETATM    6  C   UNL     1      -7.717  10.585  66.635  1.00  0.00    -0.123 C  
HETATM    7  C   UNL     1      -7.417   9.348  65.784  1.00  0.00    -0.099 C  
HETATM    8  C   UNL     1      -8.685   8.460  65.650  1.00  0.00    -0.172 C  
HETATM    9  N   UNL     1      -6.924   9.801  64.467  1.00  0.00    -0.119 NA 
HETATM   10  C   UNL     1      -9.281   9.180  68.143  1.00  0.00    -0.131 C  
HETATM   11  H2  UNL     1      -6.125  10.430  64.541  1.00  0.00     0.000 HD 
HETATM   12  H1  UNL     1      -6.725   8.978  63.899  1.00  0.00     0.000 HD 
HETATM   13  C   UNL     1      -9.284   8.106  67.037  1.00  0.00    -0.153 C  
HETATM   14  H   UNL     1     -11.040   7.489  67.763  1.00  0.00     0.000 HD 
HETATM   15  O   UNL     1     -10.673   7.705  66.914  1.00  0.00    -0.351 OA 
BRANCH   8  16
HETATM   16  O   UNL     1      -8.322   7.240  64.925  1.00  0.00    -0.111 OA 
BRANCH  16  17
HETATM   17  C   UNL     1      -8.175   6.071  65.764  1.00  0.00    -0.136 C  
HETATM   18  H1  UNL     1      -4.823   5.773  64.903  1.00  0.00     0.000 HD 
HETATM   19  O   UNL     1      -9.287   5.191  65.558  1.00  0.00    -0.161 OA 
HETATM   20  C   UNL     1      -9.099   4.158  64.666  1.00  0.00    -0.146 C  
HETATM   21  H2  UNL     1      -5.705   7.155  65.238  1.00  0.00     0.000 HD 
HETATM   22  N   UNL     1      -5.755   6.185  64.926  1.00  0.00    -0.021 NA 
HETATM   23  C   UNL     1      -7.918   3.532  64.580  1.00  0.00    -0.086 C  
HETATM   24  C   UNL     1      -6.743   5.439  65.729  1.00  0.00    -0.053 C  
HETATM   25  C   UNL     1      -6.769   3.935  65.437  1.00  0.00    -0.052 C  
BRANCH  20  26
HETATM   26  C   UNL     1     -10.349   3.796  63.898  1.00  0.00    -0.245 C  
HETATM   27  N   UNL     1     -10.692   2.375  63.909  1.00  0.00    -0.429 NA 
HETATM   28  H2  UNL     1     -10.758   2.036  64.869  1.00  0.00     0.000 HD 
HETATM   29  H1  UNL     1     -11.536   2.130  63.390  1.00  0.00     0.000 HD 
ENDBRANCH  20  26
ENDBRANCH  16  17
ENDBRANCH   8  16
BRANCH  10  30
HETATM   30  O   UNL     1      -9.493   8.619  69.486  1.00  0.00    -0.159 OA 
BRANCH  30  31
HETATM   31  C   UNL     1     -10.780   8.030  69.749  1.00  0.00    -0.231 C  
HETATM   32  O   UNL     1     -11.607  10.235  70.451  1.00  0.00    -0.280 OA 
HETATM   33  C   UNL     1     -11.069   7.048  72.498  1.00  0.00    -0.274 C  
HETATM   34  C   UNL     1     -11.720   8.828  70.723  1.00  0.00    -0.219 C  
HETATM   35  O   UNL     1     -10.603   6.690  70.185  1.00  0.00    -0.201 OA 
HETATM   36  O   UNL     1     -12.167   6.121  72.369  1.00  0.00    -0.516 OA 
HETATM   37  C   UNL     1     -11.554   8.521  72.247  1.00  0.00    -0.374 C  
HETATM   38  H   UNL     1     -12.834   6.354  73.005  1.00  0.00     0.000 HD 
HETATM   39  C   UNL     1     -10.507   6.855  73.908  1.00  0.00    -0.352 C  
HETATM   40  H   UNL     1     -12.175  10.717  71.040  1.00  0.00     0.000 HD 
HETATM   41  C   UNL     1     -10.001   6.675  71.479  1.00  0.00    -0.175 C  
BRANCH  37  42
HETATM   42  N   UNL     1     -12.796   8.738  73.043  1.00  0.00    -0.614 NA 
HETATM   43  H   UNL     1     -12.760   8.724  74.063  1.00  0.00     0.000 HD 
HETATM   44  C   UNL     1     -14.049   8.966  72.367  1.00  0.00    -0.420 C  
ENDBRANCH  37  42
ENDBRANCH  30  31
ENDBRANCH  10  30
ENDBRANCH   3   5
ENDBRANCH   2   3
TORSDOF 8
ENDMDL
MODEL      167
REMARK 921   NORMALIZED FREE ENERGY PREDICTED BY IDOCK:   -4.78 KCAL/MOL
REMARK 922        TOTAL FREE ENERGY PREDICTED BY IDOCK:   -7.75 KCAL/MOL
REMARK 923 INTER-LIGAND FREE ENERGY PREDICTED BY IDOCK:   -7.65 KCAL/MOL
REMARK 924 INTRA-LIGAND FREE ENERGY PREDICTED BY IDOCK:   -0.10 KCAL/MOL
REMARK 927      BINDING AFFINITY PREDICTED BY RF-SCORE:    0.00 PKD
ROOT
HETATM    1  C   UNL     1     -12.199   9.751  70.618  1.00  0.00    -0.283 C  
HETATM    2  C   UNL     1     -12.107  11.210  70.190  1.00  0.00    -0.362 C  
ENDROOT
BRANCH   2   3
HETATM    3  N   UNL     1     -10.762  11.507  69.690  1.00  0.00    -0.456 NA 
HETATM    4  H   UNL     1     -10.538  10.895  68.905  1.00  0.00     0.000 HD 
BRANCH   3   5
HETATM    5  C   UNL     1     -10.517  12.927  69.315  1.00  0.00     0.244 C  
HETATM    6  C   UNL     1     -11.747  13.803  69.600  1.00  0.00    -0.379 C  
HETATM    7  C   UNL     1     -11.488  15.274  69.261  1.00  0.00    -0.320 C  
HETATM    8  C   UNL     1     -11.195  15.439  67.744  1.00  0.00    -0.321 C  
HETATM    9  N   UNL     1     -12.668  16.060  69.679  1.00  0.00    -0.507 NA 
HETATM   10  C   UNL     1      -9.964  13.082  67.870  1.00  0.00    -0.230 C  
HETATM   11  H2  UNL     1     -12.906  15.918  70.661  1.00  0.00     0.000 HD 
HETATM   12  H1  UNL     1     -12.496  17.039  69.454  1.00  0.00     0.000 HD 
HETATM   13  C   UNL     1     -10.048  14.504  67.279  1.00  0.00    -0.247 C  
HETATM   14  H   UNL     1      -9.390  13.733  65.557  1.00  0.00     0.000 HD 
HETATM   15  O   UNL     1     -10.091  14.306  65.842  1.00  0.00    -0.300 OA 
BRANCH   8  16
HETATM   16  O   UNL     1     -10.845  16.839  67.490  1.00  0.00    -0.307 OA 
BRANCH  16  17
HETATM   17  C   UNL     1      -9.962  17.421  68.477  1.00  0.00    -0.331 C  
HETATM   18  H1  UNL     1     -11.298  20.581  67.930  1.00  0.00     0.000 HD 
HETATM   19  O   UNL     1      -8.636  16.909  68.294  1.00  0.00    -0.214 OA 
HETATM   20  C   UNL     1      -7.771  17.686  67.555  1.00  0.00    -0.201 C  
HETATM   21  H2  UNL     1     -12.084  19.106  68.019  1.00  0.00     0.000 HD 
HETATM   22  N   UNL     1     -11.197  19.571  67.826  1.00  0.00     0.004 NA 
HETATM   23  C   UNL     1      -7.805  19.022  67.643  1.00  0.00    -0.269 C  
HETATM   24  C   UNL     1     -10.118  18.971  68.635  1.00  0.00    -0.382 C  
HETATM   25  C   UNL     1      -8.780  19.712  68.532  1.00  0.00    -0.344 C  
BRANCH  20  26
HETATM   26  C   UNL     1      -6.787  16.879  66.741  1.00  0.00    -0.232 C  
HETATM   27  N   UNL     1      -7.046  15.440  66.707  1.00  0.00    -0.257 NA 
HETATM   28  H2  UNL     1      -7.997  15.261  66.387  1.00  0.00     0.000 HD 
HETATM   29  H1  UNL     1      -6.381  14.895  66.157  1.00  0.00     0.000 HD 
ENDBRANCH  20  26
ENDBRANCH  16  17
ENDBRANCH   8  16
BRANCH  10  30
HETATM   30  O   UNL     1      -8.648  12.456  67.669  1.00  0.00    -0.152 OA 
BRANCH  30  31
HETATM   31  C   UNL     1      -8.640  11.073  67.266  1.00  0.00    -0.130 C  
HETATM   32  O   UNL     1      -6.261  11.291  66.690  1.00  0.00    -0.120 OA 
HETATM   33  C   UNL     1      -9.289  10.683  64.432  1.00  0.00    -0.251 C  
HETATM   34  C   UNL     1      -7.481  10.642  66.296  1.00  0.00    -0.137 C  
HETATM   35  O   UNL     1      -9.912  10.730  66.736  1.00  0.00    -0.193 OA 
HETATM   36  O   UNL     1      -9.684   9.296  64.406  1.00  0.00    -0.273 OA 
HETATM   37  C   UNL     1      -7.760  10.819  64.768  1.00  0.00     0.209 C  
HETATM   38  H   UNL     1      -9.168   8.848  63.745  1.00  0.00     0.000 HD 
HETATM   39  C   UNL     1      -9.633  11.254  63.055  1.00  0.00    -0.397 C  
HETATM   40  H   UNL     1      -5.561  11.031  66.103  1.00  0.00     0.000 HD 
HETATM   41  C   UNL     1     -10.116  11.400  65.492  1.00  0.00    -0.247 C  
BRANCH  37  42
HETATM   42  N   UNL     1      -7.014   9.858  63.905  1.00  0.00    -0.121 NA 
HETATM   43  H   UNL     1      -7.398   8.932  63.719  1.00  0.00     0.000 HD 
HETATM   44  C   UNL     1      -5.746  10.243  63.335  1.00  0.00    -0.145 C  
ENDBRANCH  37  42
ENDBRANCH  30  31
ENDBRANCH  10  30
ENDBRANCH   3   5
ENDBRANCH   2   3
TORSDOF 8
ENDMDL
MODEL      168
REMARK 921   NORMALIZED FREE ENERGY PREDICTED BY IDOCK:   -4.76 KCAL/MOL
REMARK 922        TOTAL FREE ENERGY PREDICTED BY IDOCK:   -7.73 KCAL/MOL
REMARK 923 INTER-LIGAND FREE ENERGY PREDICTED BY IDOCK:   -6.52 KCAL/MOL
REMARK 924 INTRA-LIGAND FREE ENERGY PREDICTED BY IDOCK:   -1.21 KCAL/MOL
REMARK 927      BINDING AFFINITY PREDICTED BY RF-SCORE:    0.00 PKD
ROOT
HETATM    1  C   UNL     1     -10.421   5.373  66.603  1.00  0.00    -0.356 C  
HETATM    2  C   UNL     1      -9.040   5.928  66.927  1.00  0.00    -0.120 C  
ENDROOT
BRANCH   2   3
HETATM    3  N   UNL     1      -8.883   7.266  66.349  1.00  0.00    -0.144 NA 
HETATM    4  H   UNL     1      -9.160   7.257  65.367  1.00  0.00     0.000 HD 
BRANCH   3   5
HETATM    5  C   UNL     1      -9.591   8.361  67.068  1.00  0.00    -0.190 C  
HETATM    6  C   UNL     1     -10.166   9.396  66.090  1.00  0.00    -0.264 C  
HETATM    7  C   UNL     1     -10.936  10.502  66.819  1.00  0.00    -0.080 C  
HETATM    8  C   UNL     1      -9.988  11.293  67.762  1.00  0.00    -0.176 C  
HETATM    9  N   UNL     1     -11.557  11.378  65.805  1.00  0.00    -0.115 NA 
HETATM   10  C   UNL     1      -8.732   8.988  68.204  1.00  0.00    -0.130 C  
HETATM   11  H2  UNL     1     -12.140  10.864  65.145  1.00  0.00     0.000 HD 
HETATM   12  H1  UNL     1     -12.070  12.114  66.290  1.00  0.00     0.000 HD 
HETATM   13  C   UNL     1      -9.227  10.350  68.730  1.00  0.00    -0.172 C  
HETATM   14  H   UNL     1      -7.573  10.419  69.849  1.00  0.00     0.000 HD 
HETATM   15  O   UNL     1      -8.039  10.997  69.257  1.00  0.00    -0.110 OA 
BRANCH   8  16
HETATM   16  O   UNL     1     -10.788  12.261  68.516  1.00  0.00    -0.219 OA 
BRANCH  16  17
HETATM   17  C   UNL     1     -10.224  13.592  68.562  1.00  0.00    -0.234 C  
HETATM   18  H1  UNL     1     -12.233  14.440  71.266  1.00  0.00     0.000 HD 
HETATM   19  O   UNL     1     -10.149  14.126  67.234  1.00  0.00    -0.251 OA 
HETATM   20  C   UNL     1     -11.185  14.944  66.838  1.00  0.00    -0.343 C  
HETATM   21  H2  UNL     1     -11.423  13.008  70.965  1.00  0.00     0.000 HD 
HETATM   22  N   UNL     1     -11.830  13.843  70.544  1.00  0.00    -0.283 NA 
HETATM   23  C   UNL     1     -11.763  15.786  67.705  1.00  0.00     0.015 C  
HETATM   24  C   UNL     1     -10.844  14.509  69.670  1.00  0.00    -0.151 C  
HETATM   25  C   UNL     1     -11.314  15.861  69.123  1.00  0.00    -0.366 C  
BRANCH  20  26
HETATM   26  C   UNL     1     -11.511  14.828  65.368  1.00  0.00    -0.341 C  
HETATM   27  N   UNL     1     -10.528  15.429  64.467  1.00  0.00    -0.554 NA 
HETATM   28  H2  UNL     1      -9.601  15.047  64.653  1.00  0.00     0.000 HD 
HETATM   29  H1  UNL     1     -10.748  15.351  63.474  1.00  0.00     0.000 HD 
ENDBRANCH  20  26
ENDBRANCH  16  17
ENDBRANCH   8  16
BRANCH  10  30
HETATM   30  O   UNL     1      -8.398   8.045  69.283  1.00  0.00    -0.130 OA 
BRANCH  30  31
HETATM   31  C   UNL     1      -9.127   8.183  70.517  1.00  0.00    -0.150 C  
HETATM   32  O   UNL     1      -7.014   7.952  71.750  1.00  0.00    -0.060 OA 
HETATM   33  C   UNL     1     -10.047   5.623  71.617  1.00  0.00    -0.195 C  
HETATM   34  C   UNL     1      -8.415   7.635  71.806  1.00  0.00    -0.109 C  
HETATM   35  O   UNL     1     -10.422   7.620  70.364  1.00  0.00    -0.212 OA 
HETATM   36  O   UNL     1     -11.101   6.044  72.507  1.00  0.00    -0.249 OA 
HETATM   37  C   UNL     1      -8.650   6.125  72.134  1.00  0.00    -0.127 C  
HETATM   38  H   UNL     1     -10.929   5.684  73.369  1.00  0.00     0.000 HD 
HETATM   39  C   UNL     1     -10.126   4.097  71.547  1.00  0.00    -0.184 C  
HETATM   40  H   UNL     1      -6.584   7.620  72.530  1.00  0.00     0.000 HD 
HETATM   41  C   UNL     1     -10.323   6.202  70.235  1.00  0.00    -0.214 C  
BRANCH  37  42
HETATM   42  N   UNL     1      -8.557   5.803  73.587  1.00  0.00    -0.120 NA 
HETATM   43  H   UNL     1      -8.393   4.842  73.890  1.00  0.00     0.000 HD 
HETATM   44  C   UNL     1      -8.702   6.854  74.564  1.00  0.00    -0.188 C  
ENDBRANCH  37  42
ENDBRANCH  30  31
ENDBRANCH  10  30
ENDBRANCH   3   5
ENDBRANCH   2   3
TORSDOF 8
ENDMDL
MODEL      169
REMARK 921   NORMALIZED FREE ENERGY PREDICTED BY IDOCK:   -4.76 KCAL/MOL
REMARK 922        TOTAL FREE ENERGY PREDICTED BY IDOCK:   -7.73 KCAL/MOL
REMARK 923 INTER-LIGAND FREE ENERGY PREDICTED BY IDOCK:   -7.31 KCAL/MOL
REMARK 924 INTRA-LIGAND FREE ENERGY PREDICTED BY IDOCK:   -0.41 KCAL/MOL
REMARK 927      BINDING AFFINITY PREDICTED BY RF-SCORE:    0.00 PKD
ROOT
HETATM    1  C   UNL     1      -8.385   6.088  65.338  1.00  0.00    -0.150 C  
HETATM    2  C   UNL     1      -7.466   7.258  65.014  1.00  0.00    -0.089 C  
ENDROOT
BRANCH   2   3
HETATM    3  N   UNL     1      -7.157   8.011  66.233  1.00  0.00    -0.066 NA 
HETATM    4  H   UNL     1      -6.180   8.306  66.223  1.00  0.00     0.000 HD 
BRANCH   3   5
HETATM    5  C   UNL     1      -8.039   9.180  66.504  1.00  0.00    -0.107 C  
HETATM    6  C   UNL     1      -8.247  10.033  65.244  1.00  0.00    -0.148 C  
HETATM    7  C   UNL     1      -9.191  11.210  65.502  1.00  0.00    -0.216 C  
HETATM    8  C   UNL     1      -8.587  12.169  66.565  1.00  0.00    -0.070 C  
HETATM    9  N   UNL     1      -9.434  11.900  64.218  1.00  0.00    -0.457 NA 
HETATM   10  C   UNL     1      -7.585  10.002  67.744  1.00  0.00    -0.090 C  
HETATM   11  H2  UNL     1      -9.780  11.270  63.494  1.00  0.00     0.000 HD 
HETATM   12  H1  UNL     1     -10.062  12.684  64.390  1.00  0.00     0.000 HD 
HETATM   13  C   UNL     1      -8.198  11.412  67.863  1.00  0.00    -0.132 C  
HETATM   14  H   UNL     1      -6.997  11.708  69.431  1.00  0.00     0.000 HD 
HETATM   15  O   UNL     1      -7.235  12.171  68.637  1.00  0.00    -0.100 OA 
BRANCH   8  16
HETATM   16  O   UNL     1      -9.570  13.213  66.860  1.00  0.00    -0.233 OA 
BRANCH  16  17
HETATM   17  C   UNL     1      -9.898  13.344  68.262  1.00  0.00    -0.235 C  
HETATM   18  H1  UNL     1     -12.961  11.779  67.777  1.00  0.00     0.000 HD 
HETATM   19  O   UNL     1      -9.571  14.665  68.709  1.00  0.00    -0.211 OA 
HETATM   20  C   UNL     1     -10.599  15.582  68.731  1.00  0.00    -0.242 C  
HETATM   21  H2  UNL     1     -11.470  11.403  67.116  1.00  0.00     0.000 HD 
HETATM   22  N   UNL     1     -12.040  12.141  67.530  1.00  0.00    -0.499 NA 
HETATM   23  C   UNL     1     -11.841  15.211  69.070  1.00  0.00    -0.331 C  
HETATM   24  C   UNL     1     -11.313  12.788  68.640  1.00  0.00    -0.294 C  
HETATM   25  C   UNL     1     -12.154  13.800  69.425  1.00  0.00    -0.377 C  
BRANCH  20  26
HETATM   26  C   UNL     1     -10.152  16.990  68.416  1.00  0.00    -0.302 C  
HETATM   27  N   UNL     1      -8.727  17.246  68.613  1.00  0.00    -0.278 NA 
HETATM   28  H2  UNL     1      -8.173  16.574  68.082  1.00  0.00     0.000 HD 
HETATM   29  H1  UNL     1      -8.425  18.197  68.400  1.00  0.00     0.000 HD 
ENDBRANCH  20  26
ENDBRANCH  16  17
ENDBRANCH   8  16
BRANCH  10  30
HETATM   30  O   UNL     1      -7.637   9.248  69.006  1.00  0.00    -0.072 OA 
BRANCH  30  31
HETATM   31  C   UNL     1      -8.786   9.464  69.847  1.00  0.00    -0.197 C  
HETATM   32  O   UNL     1      -7.546   8.488  71.731  1.00  0.00    -0.111 OA 
HETATM   33  C   UNL     1     -10.638   7.189  69.890  1.00  0.00    -0.230 C  
HETATM   34  C   UNL     1      -8.859   8.595  71.155  1.00  0.00    -0.199 C  
HETATM   35  O   UNL     1      -9.967   9.329  69.071  1.00  0.00    -0.171 OA 
HETATM   36  O   UNL     1     -11.855   7.806  70.358  1.00  0.00    -0.478 OA 
HETATM   37  C   UNL     1      -9.542   7.196  71.016  1.00  0.00    -0.158 C  
HETATM   38  H   UNL     1     -12.166   7.321  71.114  1.00  0.00     0.000 HD 
HETATM   39  C   UNL     1     -11.013   5.770  69.456  1.00  0.00    -0.374 C  
HETATM   40  H   UNL     1      -7.590   7.963  72.522  1.00  0.00     0.000 HD 
HETATM   41  C   UNL     1     -10.138   7.967  68.679  1.00  0.00    -0.197 C  
BRANCH  37  42
HETATM   42  N   UNL     1     -10.176   6.709  72.275  1.00  0.00    -0.186 NA 
HETATM   43  H   UNL     1     -10.523   5.751  72.336  1.00  0.00     0.000 HD 
HETATM   44  C   UNL     1     -10.297   7.596  73.406  1.00  0.00    -0.314 C  
ENDBRANCH  37  42
ENDBRANCH  30  31
ENDBRANCH  10  30
ENDBRANCH   3   5
ENDBRANCH   2   3
TORSDOF 8
ENDMDL
MODEL      170
REMARK 921   NORMALIZED FREE ENERGY PREDICTED BY IDOCK:   -4.71 KCAL/MOL
REMARK 922        TOTAL FREE ENERGY PREDICTED BY IDOCK:   -7.65 KCAL/MOL
REMARK 923 INTER-LIGAND FREE ENERGY PREDICTED BY IDOCK:   -5.87 KCAL/MOL
REMARK 924 INTRA-LIGAND FREE ENERGY PREDICTED BY IDOCK:   -1.78 KCAL/MOL
REMARK 927      BINDING AFFINITY PREDICTED BY RF-SCORE:    0.00 PKD
ROOT
HETATM    1  C   UNL     1     -13.246  10.459  71.459  1.00  0.00    -0.485 C  
HETATM    2  C   UNL     1     -12.283  10.542  70.283  1.00  0.00    -0.311 C  
ENDROOT
BRANCH   2   3
HETATM    3  N   UNL     1     -10.919  10.229  70.722  1.00  0.00    -0.389 NA 
HETATM    4  H   UNL     1     -10.852  10.310  71.737  1.00  0.00     0.000 HD 
BRANCH   3   5
HETATM    5  C   UNL     1     -10.392   8.908  70.280  1.00  0.00    -0.206 C  
HETATM    6  C   UNL     1     -10.468   7.867  71.407  1.00  0.00    -0.242 C  
HETATM    7  C   UNL     1      -9.971   6.493  70.947  1.00  0.00    -0.184 C  
HETATM    8  C   UNL     1      -8.474   6.565  70.539  1.00  0.00    -0.138 C  
HETATM    9  N   UNL     1     -10.194   5.529  72.044  1.00  0.00    -0.193 NA 
HETATM   10  C   UNL     1      -8.987   9.011  69.621  1.00  0.00    -0.153 C  
HETATM   11  H2  UNL     1     -11.164   5.511  72.360  1.00  0.00     0.000 HD 
HETATM   12  H1  UNL     1      -9.863   4.614  71.738  1.00  0.00     0.000 HD 
HETATM   13  C   UNL     1      -8.220   7.679  69.489  1.00  0.00    -0.129 C  
HETATM   14  H   UNL     1      -6.665   8.742  68.823  1.00  0.00     0.000 HD 
HETATM   15  O   UNL     1      -6.820   8.059  69.465  1.00  0.00    -0.045 OA 
BRANCH   8  16
HETATM   16  O   UNL     1      -8.077   5.261  70.003  1.00  0.00    -0.081 OA 
BRANCH  16  17
HETATM   17  C   UNL     1      -8.969   4.735  68.993  1.00  0.00    -0.104 C  
HETATM   18  H1  UNL     1      -9.502   1.847  70.848  1.00  0.00     0.000 HD 
HETATM   19  O   UNL     1      -8.394   4.934  67.696  1.00  0.00    -0.105 OA 
HETATM   20  C   UNL     1      -7.704   3.871  67.157  1.00  0.00    -0.084 C  
HETATM   21  H2  UNL     1      -9.390   3.431  71.375  1.00  0.00     0.000 HD 
HETATM   22  N   UNL     1      -9.136   2.775  70.637  1.00  0.00    -0.108 NA 
HETATM   23  C   UNL     1      -8.120   2.613  67.353  1.00  0.00    -0.074 C  
HETATM   24  C   UNL     1      -9.531   3.310  69.318  1.00  0.00    -0.129 C  
HETATM   25  C   UNL     1      -9.334   2.321  68.165  1.00  0.00    -0.263 C  
BRANCH  20  26
HETATM   26  C   UNL     1      -6.530   4.289  66.302  1.00  0.00    -0.041 C  
HETATM   27  N   UNL     1      -6.844   4.530  64.895  1.00  0.00    -0.048 NA 
HETATM   28  H2  UNL     1      -7.598   5.211  64.815  1.00  0.00     0.000 HD 
HETATM   29  H1  UNL     1      -6.051   4.813  64.318  1.00  0.00     0.000 HD 
ENDBRANCH  20  26
ENDBRANCH  16  17
ENDBRANCH   8  16
BRANCH  10  30
HETATM   30  O   UNL     1      -8.970   9.805  68.383  1.00  0.00    -0.122 OA 
BRANCH  30  31
HETATM   31  C   UNL     1      -9.046   9.077  67.142  1.00  0.00    -0.137 C  
HETATM   32  O   UNL     1      -6.629   9.407  66.842  1.00  0.00    -0.066 OA 
HETATM   33  C   UNL     1      -9.565  10.793  64.819  1.00  0.00    -0.262 C  
HETATM   34  C   UNL     1      -7.872   9.320  66.125  1.00  0.00    -0.099 C  
HETATM   35  O   UNL     1     -10.309   9.311  66.537  1.00  0.00    -0.258 OA 
HETATM   36  O   UNL     1     -10.063   9.843  63.854  1.00  0.00    -0.437 OA 
HETATM   37  C   UNL     1      -8.051  10.518  65.138  1.00  0.00    -0.112 C  
HETATM   38  H   UNL     1      -9.547   9.922  63.060  1.00  0.00     0.000 HD 
HETATM   39  C   UNL     1      -9.788  12.180  64.213  1.00  0.00    -0.174 C  
HETATM   40  H   UNL     1      -5.919   9.553  66.228  1.00  0.00     0.000 HD 
HETATM   41  C   UNL     1     -10.392  10.665  66.092  1.00  0.00    -0.227 C  
BRANCH  37  42
HETATM   42  N   UNL     1      -7.334  10.343  63.842  1.00  0.00    -0.318 NA 
HETATM   43  H   UNL     1      -7.859  10.296  62.969  1.00  0.00     0.000 HD 
HETATM   44  C   UNL     1      -5.896  10.238  63.828  1.00  0.00    -0.146 C  
ENDBRANCH  37  42
ENDBRANCH  30  31
ENDBRANCH  10  30
ENDBRANCH   3   5
ENDBRANCH   2   3
TORSDOF 8
ENDMDL
MODEL      171
REMARK 921   NORMALIZED FREE ENERGY PREDICTED BY IDOCK:   -4.70 KCAL/MOL
REMARK 922        TOTAL FREE ENERGY PREDICTED BY IDOCK:   -7.64 KCAL/MOL
REMARK 923 INTER-LIGAND FREE ENERGY PREDICTED BY IDOCK:   -7.21 KCAL/MOL
REMARK 924 INTRA-LIGAND FREE ENERGY PREDICTED BY IDOCK:   -0.43 KCAL/MOL
REMARK 927      BINDING AFFINITY PREDICTED BY RF-SCORE:    0.00 PKD
ROOT
HETATM    1  C   UNL     1      -7.244  15.249  67.481  1.00  0.00    -0.224 C  
HETATM    2  C   UNL     1      -8.275  14.320  68.108  1.00  0.00    -0.146 C  
ENDROOT
BRANCH   2   3
HETATM    3  N   UNL     1      -7.941  12.923  67.819  1.00  0.00    -0.148 NA 
HETATM    4  H   UNL     1      -6.946  12.838  67.607  1.00  0.00     0.000 HD 
BRANCH   3   5
HETATM    5  C   UNL     1      -8.322  11.942  68.873  1.00  0.00     0.116 C  
HETATM    6  C   UNL     1      -7.131  11.062  69.280  1.00  0.00    -0.123 C  
HETATM    7  C   UNL     1      -7.503  10.082  70.397  1.00  0.00    -0.050 C  
HETATM    8  C   UNL     1      -8.607   9.101  69.915  1.00  0.00    -0.150 C  
HETATM    9  N   UNL     1      -6.279   9.367  70.812  1.00  0.00    -0.064 NA 
HETATM   10  C   UNL     1      -9.599  11.132  68.507  1.00  0.00    -0.193 C  
HETATM   11  H2  UNL     1      -5.525  10.001  71.080  1.00  0.00     0.000 HD 
HETATM   12  H1  UNL     1      -6.526   8.715  71.555  1.00  0.00     0.000 HD 
HETATM   13  C   UNL     1      -9.835   9.858  69.344  1.00  0.00    -0.217 C  
HETATM   14  H   UNL     1     -11.377   9.457  68.138  1.00  0.00     0.000 HD 
HETATM   15  O   UNL     1     -10.625   8.994  68.487  1.00  0.00    -0.209 OA 
BRANCH   8  16
HETATM   16  O   UNL     1      -9.007   8.261  71.046  1.00  0.00    -0.139 OA 
BRANCH  16  17
HETATM   17  C   UNL     1      -9.305   6.890  70.693  1.00  0.00    -0.162 C  
HETATM   18  H1  UNL     1     -12.523   7.174  71.971  1.00  0.00     0.000 HD 
HETATM   19  O   UNL     1      -8.207   6.050  71.070  1.00  0.00    -0.119 OA 
HETATM   20  C   UNL     1      -8.312   5.405  72.283  1.00  0.00    -0.122 C  
HETATM   21  H2  UNL     1     -11.644   8.281  71.076  1.00  0.00     0.000 HD 
HETATM   22  N   UNL     1     -11.587   7.478  71.701  1.00  0.00    -0.260 NA 
HETATM   23  C   UNL     1      -9.493   4.942  72.714  1.00  0.00    -0.155 C  
HETATM   24  C   UNL     1     -10.741   6.424  71.107  1.00  0.00    -0.244 C  
HETATM   25  C   UNL     1     -10.730   5.115  71.904  1.00  0.00    -0.219 C  
BRANCH  20  26
HETATM   26  C   UNL     1      -6.986   5.231  72.986  1.00  0.00    -0.083 C  
HETATM   27  N   UNL     1      -6.633   6.302  73.916  1.00  0.00    -0.070 NA 
HETATM   28  H2  UNL     1      -7.378   6.434  74.599  1.00  0.00     0.000 HD 
HETATM   29  H1  UNL     1      -5.737   6.185  74.390  1.00  0.00     0.000 HD 
ENDBRANCH  20  26
ENDBRANCH  16  17
ENDBRANCH   8  16
BRANCH  10  30
HETATM   30  O   UNL     1     -10.808  11.959  68.372  1.00  0.00    -0.206 OA 
BRANCH  30  31
HETATM   31  C   UNL     1     -11.554  11.825  67.147  1.00  0.00    -0.266 C  
HETATM   32  O   UNL     1      -9.537  10.945  66.055  1.00  0.00    -0.193 OA 
HETATM   33  C   UNL     1     -11.433  14.211  65.445  1.00  0.00    -0.325 C  
HETATM   34  C   UNL     1     -10.707  11.747  65.826  1.00  0.00    -0.280 C  
HETATM   35  O   UNL     1     -12.528  12.856  67.076  1.00  0.00    -0.273 OA 
HETATM   36  O   UNL     1     -12.583  14.027  64.594  1.00  0.00    -0.618 OA 
HETATM   37  C   UNL     1     -10.347  13.112  65.156  1.00  0.00    -0.311 C  
HETATM   38  H   UNL     1     -12.299  14.084  63.688  1.00  0.00     0.000 HD 
HETATM   39  C   UNL     1     -10.915  15.624  65.170  1.00  0.00    -0.411 C  
HETATM   40  H   UNL     1      -9.025  10.897  65.256  1.00  0.00     0.000 HD 
HETATM   41  C   UNL     1     -11.887  14.119  66.896  1.00  0.00    -0.431 C  
BRANCH  37  42
HETATM   42  N   UNL     1     -10.161  13.028  63.679  1.00  0.00    -0.675 NA 
HETATM   43  H   UNL     1     -10.424  13.814  63.084  1.00  0.00     0.000 HD 
HETATM   44  C   UNL     1      -9.610  11.830  63.094  1.00  0.00    -0.236 C  
ENDBRANCH  37  42
ENDBRANCH  30  31
ENDBRANCH  10  30
ENDBRANCH   3   5
ENDBRANCH   2   3
TORSDOF 8
ENDMDL
MODEL      172
REMARK 921   NORMALIZED FREE ENERGY PREDICTED BY IDOCK:   -4.69 KCAL/MOL
REMARK 922        TOTAL FREE ENERGY PREDICTED BY IDOCK:   -7.63 KCAL/MOL
REMARK 923 INTER-LIGAND FREE ENERGY PREDICTED BY IDOCK:   -6.67 KCAL/MOL
REMARK 924 INTRA-LIGAND FREE ENERGY PREDICTED BY IDOCK:   -0.96 KCAL/MOL
REMARK 927      BINDING AFFINITY PREDICTED BY RF-SCORE:    0.00 PKD
ROOT
HETATM    1  C   UNL     1      -9.078   8.238  72.375  1.00  0.00    -0.307 C  
HETATM    2  C   UNL     1      -7.943   8.843  71.560  1.00  0.00    -0.066 C  
ENDROOT
BRANCH   2   3
HETATM    3  N   UNL     1      -7.747   8.084  70.322  1.00  0.00    -0.084 NA 
HETATM    4  H   UNL     1      -8.296   7.225  70.349  1.00  0.00     0.000 HD 
BRANCH   3   5
HETATM    5  C   UNL     1      -8.027   8.829  69.063  1.00  0.00    -0.111 C  
HETATM    6  C   UNL     1      -8.547  10.246  69.352  1.00  0.00    -0.167 C  
HETATM    7  C   UNL     1      -8.793  11.036  68.064  1.00  0.00    -0.138 C  
HETATM    8  C   UNL     1      -9.892  10.350  67.207  1.00  0.00    -0.178 C  
HETATM    9  N   UNL     1      -9.167  12.417  68.431  1.00  0.00    -0.311 NA 
HETATM   10  C   UNL     1      -8.923   8.028  68.075  1.00  0.00    -0.130 C  
HETATM   11  H2  UNL     1      -8.479  12.862  69.040  1.00  0.00     0.000 HD 
HETATM   12  H1  UNL     1      -9.330  12.943  67.574  1.00  0.00     0.000 HD 
HETATM   13  C   UNL     1      -9.565   8.856  66.945  1.00  0.00    -0.190 C  
HETATM   14  H   UNL     1     -10.559   7.205  66.418  1.00  0.00     0.000 HD 
HETATM   15  O   UNL     1     -10.760   8.120  66.579  1.00  0.00    -0.081 OA 
BRANCH   8  16
HETATM   16  O   UNL     1     -10.013  11.075  65.940  1.00  0.00    -0.221 OA 
BRANCH  16  17
HETATM   17  C   UNL     1     -11.374  11.359  65.544  1.00  0.00     0.003 C  
HETATM   18  H1  UNL     1     -10.371  12.053  62.291  1.00  0.00     0.000 HD 
HETATM   19  O   UNL     1     -12.000  12.181  66.537  1.00  0.00    -0.618 OA 
HETATM   20  C   UNL     1     -12.006  13.538  66.300  1.00  0.00    -0.413 C  
HETATM   21  H2  UNL     1      -9.847  10.841  63.319  1.00  0.00     0.000 HD 
HETATM   22  N   UNL     1     -10.273  11.766  63.265  1.00  0.00    -0.430 NA 
HETATM   23  C   UNL     1     -12.157  14.017  65.059  1.00  0.00    -0.427 C  
HETATM   24  C   UNL     1     -11.524  11.801  64.049  1.00  0.00    -0.359 C  
HETATM   25  C   UNL     1     -12.315  13.103  63.894  1.00  0.00    -0.439 C  
BRANCH  20  26
HETATM   26  C   UNL     1     -11.904  14.366  67.560  1.00  0.00    -0.386 C  
HETATM   27  N   UNL     1     -10.676  15.149  67.688  1.00  0.00    -0.278 NA 
HETATM   28  H2  UNL     1     -10.549  15.740  66.867  1.00  0.00     0.000 HD 
HETATM   29  H1  UNL     1     -10.606  15.708  68.539  1.00  0.00     0.000 HD 
ENDBRANCH  20  26
ENDBRANCH  16  17
ENDBRANCH   8  16
BRANCH  10  30
HETATM   30  O   UNL     1      -8.305   6.783  67.593  1.00  0.00    -0.121 OA 
BRANCH  30  31
HETATM   31  C   UNL     1      -9.092   5.581  67.701  1.00  0.00    -0.107 C  
HETATM   32  O   UNL     1     -10.441   6.664  69.447  1.00  0.00    -0.194 OA 
HETATM   33  C   UNL     1      -8.051   3.685  69.683  1.00  0.00    -0.053 C  
HETATM   34  C   UNL     1      -9.894   5.398  69.039  1.00  0.00    -0.168 C  
HETATM   35  O   UNL     1      -8.269   4.456  67.434  1.00  0.00    -0.100 OA 
HETATM   36  O   UNL     1      -8.671   2.451  69.266  1.00  0.00    -0.067 OA 
HETATM   37  C   UNL     1      -9.131   4.698  70.210  1.00  0.00    -0.109 C  
HETATM   38  H   UNL     1      -9.127   2.076  70.011  1.00  0.00     0.000 HD 
HETATM   39  C   UNL     1      -7.031   3.313  70.760  1.00  0.00    -0.033 C  
HETATM   40  H   UNL     1     -10.926   6.553  70.256  1.00  0.00     0.000 HD 
HETATM   41  C   UNL     1      -7.321   4.285  68.488  1.00  0.00    -0.060 C  
BRANCH  37  42
HETATM   42  N   UNL     1     -10.022   3.967  71.157  1.00  0.00    -0.150 NA 
HETATM   43  H   UNL     1     -10.514   3.127  70.852  1.00  0.00     0.000 HD 
HETATM   44  C   UNL     1     -10.186   4.452  72.505  1.00  0.00    -0.181 C  
ENDBRANCH  37  42
ENDBRANCH  30  31
ENDBRANCH  10  30
ENDBRANCH   3   5
ENDBRANCH   2   3
TORSDOF 8
ENDMDL
MODEL      173
REMARK 921   NORMALIZED FREE ENERGY PREDICTED BY IDOCK:   -4.69 KCAL/MOL
REMARK 922        TOTAL FREE ENERGY PREDICTED BY IDOCK:   -7.62 KCAL/MOL
REMARK 923 INTER-LIGAND FREE ENERGY PREDICTED BY IDOCK:   -6.42 KCAL/MOL
REMARK 924 INTRA-LIGAND FREE ENERGY PREDICTED BY IDOCK:   -1.20 KCAL/MOL
REMARK 927      BINDING AFFINITY PREDICTED BY RF-SCORE:    0.00 PKD
ROOT
HETATM    1  C   UNL     1      -5.272  11.848  70.927  1.00  0.00    -0.141 C  
HETATM    2  C   UNL     1      -6.098  10.882  70.088  1.00  0.00    -0.132 C  
ENDROOT
BRANCH   2   3
HETATM    3  N   UNL     1      -5.938  11.184  68.663  1.00  0.00    -0.043 NA 
HETATM    4  H   UNL     1      -5.786  10.322  68.138  1.00  0.00     0.000 HD 
BRANCH   3   5
HETATM    5  C   UNL     1      -7.043  11.968  68.046  1.00  0.00    -0.086 C  
HETATM    6  C   UNL     1      -6.907  13.467  68.352  1.00  0.00    -0.102 C  
HETATM    7  C   UNL     1      -8.014  14.288  67.683  1.00  0.00    -0.180 C  
HETATM    8  C   UNL     1      -9.407  13.870  68.229  1.00  0.00    -0.209 C  
HETATM    9  N   UNL     1      -7.738  15.719  67.922  1.00  0.00    -0.128 NA 
HETATM   10  C   UNL     1      -8.449  11.390  68.377  1.00  0.00    -0.155 C  
HETATM   11  H2  UNL     1      -6.805  15.996  67.617  1.00  0.00     0.000 HD 
HETATM   12  H1  UNL     1      -8.475  16.265  67.476  1.00  0.00     0.000 HD 
HETATM   13  C   UNL     1      -9.633  12.340  68.107  1.00  0.00    -0.213 C  
HETATM   14  H   UNL     1     -10.815  10.960  68.939  1.00  0.00     0.000 HD 
HETATM   15  O   UNL     1     -10.677  11.897  69.013  1.00  0.00    -0.214 OA 
BRANCH   8  16
HETATM   16  O   UNL     1     -10.435  14.598  67.482  1.00  0.00    -0.244 OA 
BRANCH  16  17
HETATM   17  C   UNL     1     -10.095  14.859  66.101  1.00  0.00    -0.298 C  
HETATM   18  H1  UNL     1     -11.259  18.123  66.343  1.00  0.00     0.000 HD 
HETATM   19  O   UNL     1     -10.522  13.760  65.287  1.00  0.00    -0.325 OA 
HETATM   20  C   UNL     1     -11.741  13.894  64.660  1.00  0.00    -0.397 C  
HETATM   21  H2  UNL     1     -10.376  17.235  67.453  1.00  0.00     0.000 HD 
HETATM   22  N   UNL     1     -11.016  17.185  66.661  1.00  0.00     0.072 NA 
HETATM   23  C   UNL     1     -12.140  15.080  64.182  1.00  0.00    -0.244 C  
HETATM   24  C   UNL     1     -10.467  16.300  65.614  1.00  0.00    -0.368 C  
HETATM   25  C   UNL     1     -11.286  16.292  64.318  1.00  0.00     0.039 C  
BRANCH  20  26
HETATM   26  C   UNL     1     -12.491  12.589  64.522  1.00  0.00    -0.459 C  
HETATM   27  N   UNL     1     -12.172  11.816  63.323  1.00  0.00    -0.912 NA 
HETATM   28  H2  UNL     1     -11.167  11.653  63.266  1.00  0.00     0.000 HD 
HETATM   29  H1  UNL     1     -12.678  10.935  63.230  1.00  0.00     0.000 HD 
ENDBRANCH  20  26
ENDBRANCH  16  17
ENDBRANCH   8  16
BRANCH  10  30
HETATM   30  O   UNL     1      -8.671  10.035  67.850  1.00  0.00    -0.124 OA 
BRANCH  30  31
HETATM   31  C   UNL     1      -8.765   8.969  68.814  1.00  0.00    -0.136 C  
HETATM   32  O   UNL     1      -6.538   8.194  68.121  1.00  0.00    -0.054 OA 
HETATM   33  C   UNL     1      -9.955   6.518  67.726  1.00  0.00    -0.131 C  
HETATM   34  C   UNL     1      -7.822   7.735  68.574  1.00  0.00    -0.120 C  
HETATM   35  O   UNL     1     -10.120   8.567  68.940  1.00  0.00    -0.192 OA 
HETATM   36  O   UNL     1     -10.371   5.833  68.925  1.00  0.00    -0.183 OA 
HETATM   37  C   UNL     1      -8.387   6.606  67.652  1.00  0.00    -0.122 C  
HETATM   38  H   UNL     1     -10.000   4.958  68.915  1.00  0.00     0.000 HD 
HETATM   39  C   UNL     1     -10.547   5.734  66.553  1.00  0.00    -0.294 C  
HETATM   40  H   UNL     1      -5.969   7.448  67.976  1.00  0.00     0.000 HD 
HETATM   41  C   UNL     1     -10.549   7.921  67.741  1.00  0.00    -0.175 C  
BRANCH  37  42
HETATM   42  N   UNL     1      -7.838   5.252  67.953  1.00  0.00    -0.091 NA 
HETATM   43  H   UNL     1      -8.014   4.475  67.316  1.00  0.00     0.000 HD 
HETATM   44  C   UNL     1      -7.057   5.046  69.148  1.00  0.00    -0.056 C  
ENDBRANCH  37  42
ENDBRANCH  30  31
ENDBRANCH  10  30
ENDBRANCH   3   5
ENDBRANCH   2   3
TORSDOF 8
ENDMDL
MODEL      174
REMARK 921   NORMALIZED FREE ENERGY PREDICTED BY IDOCK:   -4.62 KCAL/MOL
REMARK 922        TOTAL FREE ENERGY PREDICTED BY IDOCK:   -7.52 KCAL/MOL
REMARK 923 INTER-LIGAND FREE ENERGY PREDICTED BY IDOCK:   -6.64 KCAL/MOL
REMARK 924 INTRA-LIGAND FREE ENERGY PREDICTED BY IDOCK:   -0.88 KCAL/MOL
REMARK 927      BINDING AFFINITY PREDICTED BY RF-SCORE:    0.00 PKD
ROOT
HETATM    1  C   UNL     1     -12.484  14.672  64.180  1.00  0.00    -0.180 C  
HETATM    2  C   UNL     1     -11.515  13.568  64.581  1.00  0.00    -0.358 C  
ENDROOT
BRANCH   2   3
HETATM    3  N   UNL     1     -10.157  14.105  64.701  1.00  0.00    -0.650 NA 
HETATM    4  H   UNL     1     -10.188  15.056  65.070  1.00  0.00     0.000 HD 
BRANCH   3   5
HETATM    5  C   UNL     1      -9.211  13.280  65.502  1.00  0.00     0.530 C  
HETATM    6  C   UNL     1      -9.604  11.795  65.482  1.00  0.00    -0.222 C  
HETATM    7  C   UNL     1      -8.610  10.932  66.264  1.00  0.00    -0.164 C  
HETATM    8  C   UNL     1      -8.594  11.343  67.762  1.00  0.00    -0.129 C  
HETATM    9  N   UNL     1      -8.990   9.515  66.090  1.00  0.00    -0.150 NA 
HETATM   10  C   UNL     1      -8.982  13.844  66.934  1.00  0.00    -0.222 C  
HETATM   11  H2  UNL     1      -9.058   9.244  65.108  1.00  0.00     0.000 HD 
HETATM   12  H1  UNL     1      -8.328   8.940  66.610  1.00  0.00     0.000 HD 
HETATM   13  C   UNL     1      -8.337  12.864  67.935  1.00  0.00    -0.170 C  
HETATM   14  H   UNL     1      -8.625  14.251  69.344  1.00  0.00     0.000 HD 
HETATM   15  O   UNL     1      -8.782  13.320  69.238  1.00  0.00     0.520 OA 
BRANCH   8  16
HETATM   16  O   UNL     1      -7.553  10.571  68.444  1.00  0.00    -0.091 OA 
BRANCH  16  17
HETATM   17  C   UNL     1      -8.030   9.784  69.559  1.00  0.00    -0.137 C  
HETATM   18  H1  UNL     1      -7.148   6.829  67.960  1.00  0.00     0.000 HD 
HETATM   19  O   UNL     1      -9.302  10.285  69.989  1.00  0.00    -0.111 OA 
HETATM   20  C   UNL     1     -10.416   9.642  69.497  1.00  0.00    -0.224 C  
HETATM   21  H2  UNL     1      -6.316   8.279  68.026  1.00  0.00     0.000 HD 
HETATM   22  N   UNL     1      -7.232   7.836  68.097  1.00  0.00    -0.087 NA 
HETATM   23  C   UNL     1     -10.416   8.316  69.309  1.00  0.00    -0.218 C  
HETATM   24  C   UNL     1      -7.901   8.237  69.350  1.00  0.00    -0.104 C  
HETATM   25  C   UNL     1      -9.213   7.494  69.618  1.00  0.00    -0.146 C  
BRANCH  20  26
HETATM   26  C   UNL     1     -11.593  10.565  69.282  1.00  0.00    -0.236 C  
HETATM   27  N   UNL     1     -12.753  10.297  70.131  1.00  0.00    -0.557 NA 
HETATM   28  H2  UNL     1     -12.478  10.300  71.113  1.00  0.00     0.000 HD 
HETATM   29  H1  UNL     1     -13.548  10.920  69.986  1.00  0.00     0.000 HD 
ENDBRANCH  20  26
ENDBRANCH  16  17
ENDBRANCH   8  16
BRANCH  10  30
HETATM   30  O   UNL     1      -8.358  15.175  66.954  1.00  0.00    -0.222 OA 
BRANCH  30  31
HETATM   31  C   UNL     1      -8.981  16.198  66.154  1.00  0.00    -0.337 C  
HETATM   32  O   UNL     1      -6.781  17.254  65.855  1.00  0.00    -0.161 OA 
HETATM   33  C   UNL     1      -9.876  18.513  67.718  1.00  0.00    -0.312 C  
HETATM   34  C   UNL     1      -8.181  17.543  66.006  1.00  0.00    -0.103 C  
HETATM   35  O   UNL     1     -10.298  16.430  66.630  1.00  0.00    -0.285 OA 
HETATM   36  O   UNL     1     -10.843  19.113  66.832  1.00  0.00    -0.439 OA 
HETATM   37  C   UNL     1      -8.429  18.618  67.114  1.00  0.00    -0.265 C  
HETATM   38  H   UNL     1     -10.611  20.027  66.709  1.00  0.00     0.000 HD 
HETATM   39  C   UNL     1     -10.002  19.247  69.055  1.00  0.00    -0.446 C  
HETATM   40  H   UNL     1      -6.298  18.067  65.766  1.00  0.00     0.000 HD 
HETATM   41  C   UNL     1     -10.248  17.049  67.916  1.00  0.00    -0.317 C  
BRANCH  37  42
HETATM   42  N   UNL     1      -8.228  20.020  66.649  1.00  0.00    -0.328 NA 
HETATM   43  H   UNL     1      -8.921  20.464  66.046  1.00  0.00     0.000 HD 
HETATM   44  C   UNL     1      -7.048  20.746  67.052  1.00  0.00    -0.323 C  
ENDBRANCH  37  42
ENDBRANCH  30  31
ENDBRANCH  10  30
ENDBRANCH   3   5
ENDBRANCH   2   3
TORSDOF 8
ENDMDL
MODEL      175
REMARK 921   NORMALIZED FREE ENERGY PREDICTED BY IDOCK:   -4.60 KCAL/MOL
REMARK 922        TOTAL FREE ENERGY PREDICTED BY IDOCK:   -7.49 KCAL/MOL
REMARK 923 INTER-LIGAND FREE ENERGY PREDICTED BY IDOCK:   -8.72 KCAL/MOL
REMARK 924 INTRA-LIGAND FREE ENERGY PREDICTED BY IDOCK:    1.22 KCAL/MOL
REMARK 927      BINDING AFFINITY PREDICTED BY RF-SCORE:    0.00 PKD
ROOT
HETATM    1  C   UNL     1      -8.326   7.371  66.099  1.00  0.00    -0.139 C  
HETATM    2  C   UNL     1      -8.944   8.761  66.035  1.00  0.00    -0.192 C  
ENDROOT
BRANCH   2   3
HETATM    3  N   UNL     1     -10.119   8.833  66.908  1.00  0.00    -0.252 NA 
HETATM    4  H   UNL     1      -9.851   8.633  67.872  1.00  0.00     0.000 HD 
BRANCH   3   5
HETATM    5  C   UNL     1     -10.885  10.109  66.846  1.00  0.00    -0.106 C  
HETATM    6  C   UNL     1     -10.372  11.018  65.719  1.00  0.00    -0.316 C  
HETATM    7  C   UNL     1     -11.184  12.312  65.617  1.00  0.00    -0.333 C  
HETATM    8  C   UNL     1     -11.050  13.143  66.923  1.00  0.00    -0.282 C  
HETATM    9  N   UNL     1     -10.710  13.065  64.438  1.00  0.00    -0.373 NA 
HETATM   10  C   UNL     1     -10.981  10.821  68.225  1.00  0.00    -0.255 C  
HETATM   11  H2  UNL     1     -10.741  12.514  63.581  1.00  0.00     0.000 HD 
HETATM   12  H1  UNL     1     -11.251  13.927  64.370  1.00  0.00     0.000 HD 
HETATM   13  C   UNL     1     -11.411  12.301  68.176  1.00  0.00    -0.316 C  
HETATM   14  H   UNL     1     -11.070  12.376  70.143  1.00  0.00     0.000 HD 
HETATM   15  O   UNL     1     -10.849  12.891  69.376  1.00  0.00    -0.068 OA 
BRANCH   8  16
HETATM   16  O   UNL     1     -11.929  14.310  66.823  1.00  0.00    -0.414 OA 
BRANCH  16  17
HETATM   17  C   UNL     1     -11.296  15.563  67.170  1.00  0.00    -0.135 C  
HETATM   18  H1  UNL     1      -8.144  14.238  66.559  1.00  0.00     0.000 HD 
HETATM   19  O   UNL     1     -11.889  16.084  68.366  1.00  0.00    -0.304 OA 
HETATM   20  C   UNL     1     -11.233  15.815  69.547  1.00  0.00    -0.317 C  
HETATM   21  H2  UNL     1      -9.561  14.024  65.697  1.00  0.00     0.000 HD 
HETATM   22  N   UNL     1      -9.163  14.260  66.605  1.00  0.00    -0.266 NA 
HETATM   23  C   UNL     1      -9.894  15.791  69.598  1.00  0.00    -0.275 C  
HETATM   24  C   UNL     1      -9.732  15.529  67.100  1.00  0.00    -0.222 C  
HETATM   25  C   UNL     1      -9.072  16.046  68.382  1.00  0.00    -0.192 C  
BRANCH  20  26
HETATM   26  C   UNL     1     -12.165  15.638  70.723  1.00  0.00    -0.418 C  
HETATM   27  N   UNL     1     -13.435  14.984  70.413  1.00  0.00    -0.626 NA 
HETATM   28  H2  UNL     1     -13.266  14.087  69.958  1.00  0.00     0.000 HD 
HETATM   29  H1  UNL     1     -14.064  14.864  71.206  1.00  0.00     0.000 HD 
ENDBRANCH  20  26
ENDBRANCH  16  17
ENDBRANCH   8  16
BRANCH  10  30
HETATM   30  O   UNL     1     -11.709  10.048  69.242  1.00  0.00    -0.071 OA 
BRANCH  30  31
HETATM   31  C   UNL     1     -11.169  10.056  70.578  1.00  0.00    -0.336 C  
HETATM   32  O   UNL     1      -9.022   9.269  69.676  1.00  0.00    -0.140 OA 
HETATM   33  C   UNL     1     -11.510   7.506  71.987  1.00  0.00    -0.279 C  
HETATM   34  C   UNL     1      -9.895   9.167  70.814  1.00  0.00    -0.270 C  
HETATM   35  O   UNL     1     -12.198   9.740  71.503  1.00  0.00    -0.355 OA 
HETATM   36  O   UNL     1     -11.357   7.906  73.364  1.00  0.00    -0.512 OA 
HETATM   37  C   UNL     1     -10.158   7.677  71.205  1.00  0.00    -0.186 C  
HETATM   38  H   UNL     1     -10.685   7.363  73.762  1.00  0.00     0.000 HD 
HETATM   39  C   UNL     1     -11.987   6.052  72.010  1.00  0.00    -0.237 C  
HETATM   40  H   UNL     1      -8.253   8.732  69.819  1.00  0.00     0.000 HD 
HETATM   41  C   UNL     1     -12.587   8.375  71.350  1.00  0.00    -0.277 C  
BRANCH  37  42
HETATM   42  N   UNL     1      -9.072   7.071  72.030  1.00  0.00    -0.132 NA 
HETATM   43  H   UNL     1      -8.992   7.302  73.020  1.00  0.00     0.000 HD 
HETATM   44  C   UNL     1      -8.137   6.157  71.422  1.00  0.00    -0.118 C  
ENDBRANCH  37  42
ENDBRANCH  30  31
ENDBRANCH  10  30
ENDBRANCH   3   5
ENDBRANCH   2   3
TORSDOF 8
ENDMDL
MODEL      176
REMARK 921   NORMALIZED FREE ENERGY PREDICTED BY IDOCK:   -4.56 KCAL/MOL
REMARK 922        TOTAL FREE ENERGY PREDICTED BY IDOCK:   -7.44 KCAL/MOL
REMARK 923 INTER-LIGAND FREE ENERGY PREDICTED BY IDOCK:   -5.80 KCAL/MOL
REMARK 924 INTRA-LIGAND FREE ENERGY PREDICTED BY IDOCK:   -1.63 KCAL/MOL
REMARK 927      BINDING AFFINITY PREDICTED BY RF-SCORE:    0.00 PKD
ROOT
HETATM    1  C   UNL     1      -5.470  11.740  70.967  1.00  0.00    -0.066 C  
HETATM    2  C   UNL     1      -6.044  11.548  69.570  1.00  0.00    -0.100 C  
ENDROOT
BRANCH   2   3
HETATM    3  N   UNL     1      -7.430  11.080  69.652  1.00  0.00    -0.352 NA 
HETATM    4  H   UNL     1      -8.068  11.825  69.372  1.00  0.00     0.000 HD 
BRANCH   3   5
HETATM    5  C   UNL     1      -7.732   9.836  68.891  1.00  0.00    -0.082 C  
HETATM    6  C   UNL     1      -7.188   8.592  69.608  1.00  0.00    -0.052 C  
HETATM    7  C   UNL     1      -7.535   7.304  68.855  1.00  0.00    -0.101 C  
HETATM    8  C   UNL     1      -6.876   7.302  67.448  1.00  0.00    -0.077 C  
HETATM    9  N   UNL     1      -7.088   6.156  69.670  1.00  0.00    -0.070 NA 
HETATM   10  C   UNL     1      -7.311   9.928  67.396  1.00  0.00    -0.090 C  
HETATM   11  H2  UNL     1      -7.469   6.174  70.616  1.00  0.00     0.000 HD 
HETATM   12  H1  UNL     1      -7.318   5.299  69.170  1.00  0.00     0.000 HD 
HETATM   13  C   UNL     1      -7.234   8.583  66.648  1.00  0.00    -0.074 C  
HETATM   14  H   UNL     1      -6.499   9.592  65.088  1.00  0.00     0.000 HD 
HETATM   15  O   UNL     1      -6.280   8.808  65.578  1.00  0.00    -0.051 OA 
BRANCH   8  16
HETATM   16  O   UNL     1      -7.326   6.109  66.727  1.00  0.00    -0.076 OA 
BRANCH  16  17
HETATM   17  C   UNL     1      -8.627   6.241  66.110  1.00  0.00    -0.143 C  
HETATM   18  H1  UNL     1     -10.041   4.082  68.435  1.00  0.00     0.000 HD 
HETATM   19  O   UNL     1      -8.494   6.144  64.687  1.00  0.00    -0.093 OA 
HETATM   20  C   UNL     1      -8.729   4.907  64.128  1.00  0.00    -0.124 C  
HETATM   21  H2  UNL     1      -8.906   5.288  68.672  1.00  0.00     0.000 HD 
HETATM   22  N   UNL     1      -9.314   4.644  67.994  1.00  0.00    -0.128 NA 
HETATM   23  C   UNL     1      -9.683   4.104  64.616  1.00  0.00    -0.177 C  
HETATM   24  C   UNL     1      -9.744   5.377  66.787  1.00  0.00    -0.157 C  
HETATM   25  C   UNL     1     -10.515   4.516  65.781  1.00  0.00    -0.268 C  
BRANCH  20  26
HETATM   26  C   UNL     1      -7.872   4.625  62.916  1.00  0.00    -0.069 C  
HETATM   27  N   UNL     1      -6.433   4.609  63.166  1.00  0.00    -0.026 NA 
HETATM   28  H2  UNL     1      -6.213   3.950  63.913  1.00  0.00     0.000 HD 
HETATM   29  H1  UNL     1      -5.854   4.418  62.348  1.00  0.00     0.000 HD 
ENDBRANCH  20  26
ENDBRANCH  16  17
ENDBRANCH   8  16
BRANCH  10  30
HETATM   30  O   UNL     1      -8.032  10.963  66.640  1.00  0.00    -0.135 OA 
BRANCH  30  31
HETATM   31  C   UNL     1      -9.363  11.287  67.085  1.00  0.00    -0.163 C  
HETATM   32  O   UNL     1     -10.254  10.319  65.009  1.00  0.00    -0.320 OA 
HETATM   33  C   UNL     1     -10.261  13.945  66.229  1.00  0.00    -0.297 C  
HETATM   34  C   UNL     1     -10.465  11.369  65.968  1.00  0.00    -0.255 C  
HETATM   35  O   UNL     1      -9.323  12.475  67.860  1.00  0.00    -0.186 OA 
HETATM   36  O   UNL     1     -11.333  14.209  67.158  1.00  0.00    -0.305 OA 
HETATM   37  C   UNL     1     -10.637  12.758  65.271  1.00  0.00    -0.290 C  
HETATM   38  H   UNL     1     -12.113  14.430  66.662  1.00  0.00     0.000 HD 
HETATM   39  C   UNL     1     -10.019  15.250  65.468  1.00  0.00    -0.383 C  
HETATM   40  H   UNL     1     -10.920  10.369  64.334  1.00  0.00     0.000 HD 
HETATM   41  C   UNL     1      -9.011  13.590  67.024  1.00  0.00    -0.231 C  
BRANCH  37  42
HETATM   42  N   UNL     1     -12.014  13.005  64.753  1.00  0.00    -0.372 NA 
HETATM   43  H   UNL     1     -12.768  13.244  65.397  1.00  0.00     0.000 HD 
HETATM   44  C   UNL     1     -12.276  12.903  63.338  1.00  0.00    -0.490 C  
ENDBRANCH  37  42
ENDBRANCH  30  31
ENDBRANCH  10  30
ENDBRANCH   3   5
ENDBRANCH   2   3
TORSDOF 8
ENDMDL
MODEL      177
REMARK 921   NORMALIZED FREE ENERGY PREDICTED BY IDOCK:   -4.56 KCAL/MOL
REMARK 922        TOTAL FREE ENERGY PREDICTED BY IDOCK:   -7.43 KCAL/MOL
REMARK 923 INTER-LIGAND FREE ENERGY PREDICTED BY IDOCK:   -6.05 KCAL/MOL
REMARK 924 INTRA-LIGAND FREE ENERGY PREDICTED BY IDOCK:   -1.37 KCAL/MOL
REMARK 927      BINDING AFFINITY PREDICTED BY RF-SCORE:    0.00 PKD
ROOT
HETATM    1  C   UNL     1      -8.014   2.987  72.209  1.00  0.00    -0.059 C  
HETATM    2  C   UNL     1      -7.552   3.902  71.083  1.00  0.00    -0.048 C  
ENDROOT
BRANCH   2   3
HETATM    3  N   UNL     1      -8.709   4.455  70.373  1.00  0.00    -0.083 NA 
HETATM    4  H   UNL     1      -9.561   4.284  70.907  1.00  0.00     0.000 HD 
BRANCH   3   5
HETATM    5  C   UNL     1      -8.611   5.897  70.015  1.00  0.00    -0.130 C  
HETATM    6  C   UNL     1      -9.140   6.794  71.144  1.00  0.00    -0.151 C  
HETATM    7  C   UNL     1      -8.999   8.280  70.804  1.00  0.00    -0.149 C  
HETATM    8  C   UNL     1      -9.848   8.634  69.552  1.00  0.00    -0.187 C  
HETATM    9  N   UNL     1      -9.410   9.067  71.985  1.00  0.00    -0.347 NA 
HETATM   10  C   UNL     1      -9.232   6.216  68.625  1.00  0.00    -0.123 C  
HETATM   11  H2  UNL     1      -8.898   8.806  72.828  1.00  0.00     0.000 HD 
HETATM   12  H1  UNL     1      -9.317  10.056  71.759  1.00  0.00     0.000 HD 
HETATM   13  C   UNL     1      -9.514   7.707  68.354  1.00  0.00    -0.150 C  
HETATM   14  H   UNL     1     -10.385   7.143  66.647  1.00  0.00     0.000 HD 
HETATM   15  O   UNL     1     -10.590   7.710  67.380  1.00  0.00    -0.274 OA 
BRANCH   8  16
HETATM   16  O   UNL     1      -9.595  10.033  69.201  1.00  0.00    -0.186 OA 
BRANCH  16  17
HETATM   17  C   UNL     1     -10.716  10.703  68.579  1.00  0.00    -0.217 C  
HETATM   18  H1  UNL     1      -8.812  13.556  68.027  1.00  0.00     0.000 HD 
HETATM   19  O   UNL     1     -11.896  10.490  69.363  1.00  0.00    -0.261 OA 
HETATM   20  C   UNL     1     -12.232  11.484  70.256  1.00  0.00    -0.332 C  
HETATM   21  H2  UNL     1      -8.374  11.949  67.862  1.00  0.00     0.000 HD 
HETATM   22  N   UNL     1      -9.011  12.600  68.322  1.00  0.00    -0.194 NA 
HETATM   23  C   UNL     1     -12.036  12.774  69.952  1.00  0.00    -0.329 C  
HETATM   24  C   UNL     1     -10.410  12.171  68.127  1.00  0.00    -0.207 C  
HETATM   25  C   UNL     1     -11.444  13.176  68.646  1.00  0.00    -0.342 C  
BRANCH  20  26
HETATM   26  C   UNL     1     -12.882  10.962  71.516  1.00  0.00    -0.454 C  
HETATM   27  N   UNL     1     -12.507   9.600  71.888  1.00  0.00    -0.384 NA 
HETATM   28  H2  UNL     1     -11.492   9.521  71.956  1.00  0.00     0.000 HD 
HETATM   29  H1  UNL     1     -12.945   9.247  72.739  1.00  0.00     0.000 HD 
ENDBRANCH  20  26
ENDBRANCH  16  17
ENDBRANCH   8  16
BRANCH  10  30
HETATM   30  O   UNL     1      -8.551   5.550  67.504  1.00  0.00    -0.110 OA 
BRANCH  30  31
HETATM   31  C   UNL     1      -8.919   4.183  67.238  1.00  0.00    -0.128 C  
HETATM   32  O   UNL     1      -6.552   3.663  66.828  1.00  0.00    -0.040 OA 
HETATM   33  C   UNL     1      -9.520   3.670  64.413  1.00  0.00    -0.154 C  
HETATM   34  C   UNL     1      -7.887   3.339  66.406  1.00  0.00    -0.081 C  
HETATM   35  O   UNL     1     -10.209   4.151  66.647  1.00  0.00    -0.134 OA 
HETATM   36  O   UNL     1     -10.292   2.454  64.490  1.00  0.00    -0.354 OA 
HETATM   37  C   UNL     1      -8.033   3.411  64.851  1.00  0.00    -0.089 C  
HETATM   38  H   UNL     1      -9.895   1.809  63.917  1.00  0.00     0.000 HD 
HETATM   39  C   UNL     1      -9.622   4.154  62.965  1.00  0.00    -0.136 C  
HETATM   40  H   UNL     1      -5.929   3.152  66.324  1.00  0.00     0.000 HD 
HETATM   41  C   UNL     1     -10.156   4.704  65.332  1.00  0.00    -0.148 C  
BRANCH  37  42
HETATM   42  N   UNL     1      -7.552   2.189  64.144  1.00  0.00    -0.059 NA 
HETATM   43  H   UNL     1      -8.099   1.329  64.179  1.00  0.00     0.000 HD 
HETATM   44  C   UNL     1      -6.311   2.228  63.410  1.00  0.00    -0.014 C  
ENDBRANCH  37  42
ENDBRANCH  30  31
ENDBRANCH  10  30
ENDBRANCH   3   5
ENDBRANCH   2   3
TORSDOF 8
ENDMDL
MODEL      178
REMARK 921   NORMALIZED FREE ENERGY PREDICTED BY IDOCK:   -4.55 KCAL/MOL
REMARK 922        TOTAL FREE ENERGY PREDICTED BY IDOCK:   -7.41 KCAL/MOL
REMARK 923 INTER-LIGAND FREE ENERGY PREDICTED BY IDOCK:   -7.21 KCAL/MOL
REMARK 924 INTRA-LIGAND FREE ENERGY PREDICTED BY IDOCK:   -0.20 KCAL/MOL
REMARK 927      BINDING AFFINITY PREDICTED BY RF-SCORE:    0.00 PKD
ROOT
HETATM    1  C   UNL     1      -5.434  12.885  70.560  1.00  0.00    -0.163 C  
HETATM    2  C   UNL     1      -6.263  11.673  70.156  1.00  0.00    -0.121 C  
ENDROOT
BRANCH   2   3
HETATM    3  N   UNL     1      -6.196  11.473  68.706  1.00  0.00    -0.049 NA 
HETATM    4  H   UNL     1      -5.960  10.503  68.497  1.00  0.00     0.000 HD 
BRANCH   3   5
HETATM    5  C   UNL     1      -7.412  11.877  67.947  1.00  0.00    -0.114 C  
HETATM    6  C   UNL     1      -7.388  13.373  67.601  1.00  0.00    -0.173 C  
HETATM    7  C   UNL     1      -8.613  13.787  66.780  1.00  0.00    -0.035 C  
HETATM    8  C   UNL     1      -9.916  13.564  67.596  1.00  0.00    -0.229 C  
HETATM    9  N   UNL     1      -8.450  15.201  66.385  1.00  0.00    -0.416 NA 
HETATM   10  C   UNL     1      -8.730  11.418  68.634  1.00  0.00    -0.121 C  
HETATM   11  H2  UNL     1      -7.572  15.374  65.896  1.00  0.00     0.000 HD 
HETATM   12  H1  UNL     1      -9.265  15.477  65.839  1.00  0.00     0.000 HD 
HETATM   13  C   UNL     1     -10.013  12.111  68.132  1.00  0.00    -0.201 C  
HETATM   14  H   UNL     1     -10.997  11.141  69.576  1.00  0.00     0.000 HD 
HETATM   15  O   UNL     1     -10.938  12.030  69.247  1.00  0.00    -0.211 OA 
BRANCH   8  16
HETATM   16  O   UNL     1     -11.061  13.866  66.734  1.00  0.00    -0.296 OA 
BRANCH  16  17
HETATM   17  C   UNL     1     -10.766  13.831  65.319  1.00  0.00    -0.339 C  
HETATM   18  H1  UNL     1     -14.032  14.712  64.531  1.00  0.00     0.000 HD 
HETATM   19  O   UNL     1     -10.004  12.655  65.018  1.00  0.00    -0.245 OA 
HETATM   20  C   UNL     1     -10.708  11.565  64.554  1.00  0.00    -0.329 C  
HETATM   21  H2  UNL     1     -13.051  15.293  65.756  1.00  0.00     0.000 HD 
HETATM   22  N   UNL     1     -13.230  14.510  65.128  1.00  0.00    -0.363 NA 
HETATM   23  C   UNL     1     -11.761  11.724  63.742  1.00  0.00    -0.499 C  
HETATM   24  C   UNL     1     -11.998  14.142  64.403  1.00  0.00    -0.457 C  
HETATM   25  C   UNL     1     -12.210  13.080  63.319  1.00  0.00    -0.464 C  
BRANCH  20  26
HETATM   26  C   UNL     1     -10.124  10.243  64.995  1.00  0.00    -0.283 C  
HETATM   27  N   UNL     1      -8.746  10.004  64.572  1.00  0.00    -0.179 NA 
HETATM   28  H2  UNL     1      -8.147  10.772  64.875  1.00  0.00     0.000 HD 
HETATM   29  H1  UNL     1      -8.351   9.111  64.870  1.00  0.00     0.000 HD 
ENDBRANCH  20  26
ENDBRANCH  16  17
ENDBRANCH   8  16
BRANCH  10  30
HETATM   30  O   UNL     1      -8.870   9.957  68.731  1.00  0.00    -0.126 OA 
BRANCH  30  31
HETATM   31  C   UNL     1      -8.708   9.373  70.038  1.00  0.00    -0.210 C  
HETATM   32  O   UNL     1      -6.655   8.273  69.252  1.00  0.00    -0.038 OA 
HETATM   33  C   UNL     1     -10.004   6.755  70.310  1.00  0.00    -0.178 C  
HETATM   34  C   UNL     1      -7.790   8.099  70.117  1.00  0.00    -0.098 C  
HETATM   35  O   UNL     1      -9.986   9.124  70.603  1.00  0.00    -0.208 OA 
HETATM   36  O   UNL     1     -10.120   6.629  71.742  1.00  0.00    -0.183 OA 
HETATM   37  C   UNL     1      -8.495   6.726  69.871  1.00  0.00    -0.140 C  
HETATM   38  H   UNL     1      -9.724   5.806  72.005  1.00  0.00     0.000 HD 
HETATM   39  C   UNL     1     -10.804   5.598  69.709  1.00  0.00    -0.370 C  
HETATM   40  H   UNL     1      -6.101   7.504  69.300  1.00  0.00     0.000 HD 
HETATM   41  C   UNL     1     -10.638   8.074  69.888  1.00  0.00    -0.242 C  
BRANCH  37  42
HETATM   42  N   UNL     1      -7.838   5.580  70.565  1.00  0.00    -0.095 NA 
HETATM   43  H   UNL     1      -8.224   5.220  71.437  1.00  0.00     0.000 HD 
HETATM   44  C   UNL     1      -6.653   4.984  69.997  1.00  0.00    -0.036 C  
ENDBRANCH  37  42
ENDBRANCH  30  31
ENDBRANCH  10  30
ENDBRANCH   3   5
ENDBRANCH   2   3
TORSDOF 8
ENDMDL
MODEL      179
REMARK 921   NORMALIZED FREE ENERGY PREDICTED BY IDOCK:   -4.52 KCAL/MOL
REMARK 922        TOTAL FREE ENERGY PREDICTED BY IDOCK:   -7.38 KCAL/MOL
REMARK 923 INTER-LIGAND FREE ENERGY PREDICTED BY IDOCK:   -6.25 KCAL/MOL
REMARK 924 INTRA-LIGAND FREE ENERGY PREDICTED BY IDOCK:   -1.13 KCAL/MOL
REMARK 927      BINDING AFFINITY PREDICTED BY RF-SCORE:    0.00 PKD
ROOT
HETATM    1  C   UNL     1     -12.370   6.821  72.164  1.00  0.00    -0.234 C  
HETATM    2  C   UNL     1     -11.078   7.326  72.792  1.00  0.00    -0.319 C  
ENDROOT
BRANCH   2   3
HETATM    3  N   UNL     1     -10.057   7.525  71.759  1.00  0.00    -0.175 NA 
HETATM    4  H   UNL     1      -9.143   7.241  72.113  1.00  0.00     0.000 HD 
BRANCH   3   5
HETATM    5  C   UNL     1     -10.328   6.859  70.455  1.00  0.00    -0.202 C  
HETATM    6  C   UNL     1      -9.678   5.469  70.387  1.00  0.00    -0.242 C  
HETATM    7  C   UNL     1      -9.991   4.759  69.067  1.00  0.00    -0.143 C  
HETATM    8  C   UNL     1      -9.407   5.556  67.868  1.00  0.00    -0.110 C  
HETATM    9  N   UNL     1      -9.439   3.390  69.135  1.00  0.00    -0.173 NA 
HETATM   10  C   UNL     1      -9.990   7.765  69.235  1.00  0.00    -0.182 C  
HETATM   11  H2  UNL     1      -9.772   2.872  69.949  1.00  0.00     0.000 HD 
HETATM   12  H1  UNL     1      -9.647   2.917  68.257  1.00  0.00     0.000 HD 
HETATM   13  C   UNL     1      -9.877   7.035  67.882  1.00  0.00    -0.138 C  
HETATM   14  H   UNL     1      -9.281   8.772  67.094  1.00  0.00     0.000 HD 
HETATM   15  O   UNL     1      -8.994   7.866  67.086  1.00  0.00    -0.125 OA 
BRANCH   8  16
HETATM   16  O   UNL     1      -9.826   4.900  66.627  1.00  0.00    -0.162 OA 
BRANCH  16  17
HETATM   17  C   UNL     1      -8.782   4.782  65.634  1.00  0.00    -0.131 C  
HETATM   18  H1  UNL     1     -11.052   3.660  63.257  1.00  0.00     0.000 HD 
HETATM   19  O   UNL     1      -7.635   4.153  66.219  1.00  0.00    -0.087 OA 
HETATM   20  C   UNL     1      -7.508   2.795  66.022  1.00  0.00    -0.072 C  
HETATM   21  H2  UNL     1     -11.233   4.871  64.397  1.00  0.00     0.000 HD 
HETATM   22  N   UNL     1     -10.731   4.016  64.157  1.00  0.00    -0.224 NA 
HETATM   23  C   UNL     1      -7.875   2.233  64.863  1.00  0.00    -0.077 C  
HETATM   24  C   UNL     1      -9.274   4.234  64.252  1.00  0.00    -0.151 C  
HETATM   25  C   UNL     1      -8.438   3.052  63.754  1.00  0.00    -0.086 C  
BRANCH  20  26
HETATM   26  C   UNL     1      -6.868   2.078  67.188  1.00  0.00    -0.039 C  
HETATM   27  N   UNL     1      -5.407   2.036  67.163  1.00  0.00    -0.016 NA 
HETATM   28  H2  UNL     1      -5.030   2.980  67.080  1.00  0.00     0.000 HD 
HETATM   29  H1  UNL     1      -4.975   1.553  67.950  1.00  0.00     0.000 HD 
ENDBRANCH  20  26
ENDBRANCH  16  17
ENDBRANCH   8  16
BRANCH  10  30
HETATM   30  O   UNL     1     -10.806   8.986  69.160  1.00  0.00    -0.193 OA 
BRANCH  30  31
HETATM   31  C   UNL     1     -10.269  10.168  69.785  1.00  0.00    -0.247 C  
HETATM   32  O   UNL     1     -12.224  10.226  71.273  1.00  0.00    -0.346 OA 
HETATM   33  C   UNL     1     -11.160  12.659  68.519  1.00  0.00    -0.266 C  
HETATM   34  C   UNL     1     -11.296  11.065  70.565  1.00  0.00    -0.022 C  
HETATM   35  O   UNL     1      -9.550  10.923  68.821  1.00  0.00    -0.180 OA 
HETATM   36  O   UNL     1     -10.160  13.596  68.971  1.00  0.00    -0.421 OA 
HETATM   37  C   UNL     1     -12.035  12.157  69.724  1.00  0.00    -0.302 C  
HETATM   38  H   UNL     1     -10.601  14.333  69.378  1.00  0.00     0.000 HD 
HETATM   39  C   UNL     1     -11.992  13.393  67.465  1.00  0.00    -0.381 C  
HETATM   40  H   UNL     1     -12.845  10.769  71.744  1.00  0.00     0.000 HD 
HETATM   41  C   UNL     1     -10.454  11.478  67.866  1.00  0.00    -0.184 C  
BRANCH  37  42
HETATM   42  N   UNL     1     -12.450  13.349  70.518  1.00  0.00    -0.309 NA 
HETATM   43  H   UNL     1     -12.136  14.281  70.245  1.00  0.00     0.000 HD 
HETATM   44  C   UNL     1     -13.298  13.181  71.672  1.00  0.00    -0.308 C  
ENDBRANCH  37  42
ENDBRANCH  30  31
ENDBRANCH  10  30
ENDBRANCH   3   5
ENDBRANCH   2   3
TORSDOF 8
ENDMDL
MODEL      180
REMARK 921   NORMALIZED FREE ENERGY PREDICTED BY IDOCK:   -4.51 KCAL/MOL
REMARK 922        TOTAL FREE ENERGY PREDICTED BY IDOCK:   -7.35 KCAL/MOL
REMARK 923 INTER-LIGAND FREE ENERGY PREDICTED BY IDOCK:   -6.04 KCAL/MOL
REMARK 924 INTRA-LIGAND FREE ENERGY PREDICTED BY IDOCK:   -1.31 KCAL/MOL
REMARK 927      BINDING AFFINITY PREDICTED BY RF-SCORE:    0.00 PKD
ROOT
HETATM    1  C   UNL     1      -7.995   8.292  64.008  1.00  0.00    -0.147 C  
HETATM    2  C   UNL     1      -7.011   8.746  65.078  1.00  0.00    -0.076 C  
ENDROOT
BRANCH   2   3
HETATM    3  N   UNL     1      -7.545   9.906  65.798  1.00  0.00    -0.108 NA 
HETATM    4  H   UNL     1      -8.325  10.310  65.279  1.00  0.00     0.000 HD 
BRANCH   3   5
HETATM    5  C   UNL     1      -7.947   9.654  67.209  1.00  0.00    -0.106 C  
HETATM    6  C   UNL     1      -7.188   8.460  67.806  1.00  0.00    -0.088 C  
HETATM    7  C   UNL     1      -7.561   8.223  69.272  1.00  0.00    -0.094 C  
HETATM    8  C   UNL     1      -9.068   7.870  69.400  1.00  0.00    -0.145 C  
HETATM    9  N   UNL     1      -6.699   7.145  69.801  1.00  0.00    -0.047 NA 
HETATM   10  C   UNL     1      -9.490   9.563  67.389  1.00  0.00    -0.135 C  
HETATM   11  H2  UNL     1      -5.705   7.338  69.674  1.00  0.00     0.000 HD 
HETATM   12  H1  UNL     1      -6.947   6.987  70.777  1.00  0.00     0.000 HD 
HETATM   13  C   UNL     1      -9.965   8.935  68.714  1.00  0.00    -0.184 C  
HETATM   14  H   UNL     1     -11.827   9.046  67.999  1.00  0.00     0.000 HD 
HETATM   15  O   UNL     1     -11.278   8.394  68.419  1.00  0.00     0.278 OA 
BRANCH   8  16
HETATM   16  O   UNL     1      -9.400   7.763  70.822  1.00  0.00    -0.160 OA 
BRANCH  16  17
HETATM   17  C   UNL     1     -10.416   6.779  71.124  1.00  0.00    -0.214 C  
HETATM   18  H1  UNL     1     -10.016   7.291  74.536  1.00  0.00     0.000 HD 
HETATM   19  O   UNL     1     -10.214   5.617  70.311  1.00  0.00    -0.205 OA 
HETATM   20  C   UNL     1      -9.516   4.576  70.884  1.00  0.00    -0.166 C  
HETATM   21  H2  UNL     1     -10.032   8.416  73.298  1.00  0.00     0.000 HD 
HETATM   22  N   UNL     1      -9.865   7.439  73.539  1.00  0.00    -0.287 NA 
HETATM   23  C   UNL     1      -9.667   4.283  72.182  1.00  0.00    -0.221 C  
HETATM   24  C   UNL     1     -10.649   6.552  72.656  1.00  0.00    -0.221 C  
HETATM   25  C   UNL     1     -10.585   5.073  73.049  1.00  0.00    -0.278 C  
BRANCH  20  26
HETATM   26  C   UNL     1      -8.668   3.809  69.898  1.00  0.00    -0.076 C  
HETATM   27  N   UNL     1      -8.809   4.226  68.504  1.00  0.00    -0.098 NA 
HETATM   28  H2  UNL     1      -8.632   5.226  68.417  1.00  0.00     0.000 HD 
HETATM   29  H1  UNL     1      -8.236   3.707  67.837  1.00  0.00     0.000 HD 
ENDBRANCH  20  26
ENDBRANCH  16  17
ENDBRANCH   8  16
BRANCH  10  30
HETATM   30  O   UNL     1     -10.199  10.809  67.060  1.00  0.00    -0.200 OA 
BRANCH  30  31
HETATM   31  C   UNL     1      -9.475  12.039  67.248  1.00  0.00    -0.181 C  
HETATM   32  O   UNL     1     -10.972  12.593  69.117  1.00  0.00    -0.363 OA 
HETATM   33  C   UNL     1     -10.573  14.282  65.707  1.00  0.00    -0.309 C  
HETATM   34  C   UNL     1     -10.231  13.174  68.031  1.00  0.00    -0.233 C  
HETATM   35  O   UNL     1      -9.005  12.504  65.992  1.00  0.00    -0.021 OA 
HETATM   36  O   UNL     1      -9.456  15.194  65.675  1.00  0.00    -0.397 OA 
HETATM   37  C   UNL     1     -11.122  14.128  67.172  1.00  0.00    -0.307 C  
HETATM   38  H   UNL     1      -9.748  16.038  65.999  1.00  0.00     0.000 HD 
HETATM   39  C   UNL     1     -11.623  14.851  64.752  1.00  0.00    -0.410 C  
HETATM   40  H   UNL     1     -11.428  13.278  69.590  1.00  0.00     0.000 HD 
HETATM   41  C   UNL     1     -10.105  12.929  65.187  1.00  0.00    -0.223 C  
BRANCH  37  42
HETATM   42  N   UNL     1     -11.272  15.494  67.751  1.00  0.00    -0.317 NA 
HETATM   43  H   UNL     1     -10.853  16.298  67.283  1.00  0.00     0.000 HD 
HETATM   44  C   UNL     1     -12.012  15.675  68.976  1.00  0.00    -0.304 C  
ENDBRANCH  37  42
ENDBRANCH  30  31
ENDBRANCH  10  30
ENDBRANCH   3   5
ENDBRANCH   2   3
TORSDOF 8
ENDMDL
MODEL      181
REMARK 921   NORMALIZED FREE ENERGY PREDICTED BY IDOCK:   -4.50 KCAL/MOL
REMARK 922        TOTAL FREE ENERGY PREDICTED BY IDOCK:   -7.34 KCAL/MOL
REMARK 923 INTER-LIGAND FREE ENERGY PREDICTED BY IDOCK:   -6.22 KCAL/MOL
REMARK 924 INTRA-LIGAND FREE ENERGY PREDICTED BY IDOCK:   -1.12 KCAL/MOL
REMARK 927      BINDING AFFINITY PREDICTED BY RF-SCORE:    0.00 PKD
ROOT
HETATM    1  C   UNL     1     -11.725   7.791  72.510  1.00  0.00    -0.393 C  
HETATM    2  C   UNL     1     -10.339   8.164  73.018  1.00  0.00    -0.187 C  
ENDROOT
BRANCH   2   3
HETATM    3  N   UNL     1      -9.360   8.078  71.931  1.00  0.00    -0.153 NA 
HETATM    4  H   UNL     1      -8.521   7.595  72.254  1.00  0.00     0.000 HD 
BRANCH   3   5
HETATM    5  C   UNL     1      -9.854   7.455  70.672  1.00  0.00    -0.179 C  
HETATM    6  C   UNL     1      -9.465   5.971  70.589  1.00  0.00    -0.190 C  
HETATM    7  C   UNL     1     -10.010   5.310  69.319  1.00  0.00    -0.215 C  
HETATM    8  C   UNL     1      -9.402   5.978  68.055  1.00  0.00    -0.114 C  
HETATM    9  N   UNL     1      -9.701   3.867  69.379  1.00  0.00    -0.166 NA 
HETATM   10  C   UNL     1      -9.470   8.271  69.405  1.00  0.00    -0.159 C  
HETATM   11  H2  UNL     1     -10.047   3.426  70.231  1.00  0.00     0.000 HD 
HETATM   12  H1  UNL     1     -10.064   3.427  68.534  1.00  0.00     0.000 HD 
HETATM   13  C   UNL     1      -9.604   7.516  68.067  1.00  0.00    -0.143 C  
HETATM   14  H   UNL     1      -8.785   9.111  67.185  1.00  0.00     0.000 HD 
HETATM   15  O   UNL     1      -8.662   8.169  67.178  1.00  0.00    -0.124 OA 
BRANCH   8  16
HETATM   16  O   UNL     1     -10.035   5.391  66.871  1.00  0.00    -0.148 OA 
BRANCH  16  17
HETATM   17  C   UNL     1      -9.113   5.046  65.812  1.00  0.00    -0.154 C  
HETATM   18  H1  UNL     1     -11.663   3.605  63.946  1.00  0.00     0.000 HD 
HETATM   19  O   UNL     1      -7.921   4.486  66.379  1.00  0.00    -0.101 OA 
HETATM   20  C   UNL     1      -7.849   3.111  66.429  1.00  0.00    -0.077 C  
HETATM   21  H2  UNL     1     -11.686   5.013  64.850  1.00  0.00     0.000 HD 
HETATM   22  N   UNL     1     -11.234   4.107  64.723  1.00  0.00    -0.201 NA 
HETATM   23  C   UNL     1      -8.358   2.361  65.442  1.00  0.00    -0.090 C  
HETATM   24  C   UNL     1      -9.771   4.275  64.619  1.00  0.00    -0.146 C  
HETATM   25  C   UNL     1      -9.023   2.985  64.265  1.00  0.00    -0.110 C  
BRANCH  20  26
HETATM   26  C   UNL     1      -7.098   2.594  67.634  1.00  0.00    -0.049 C  
HETATM   27  N   UNL     1      -6.843   3.586  68.676  1.00  0.00    -0.045 NA 
HETATM   28  H2  UNL     1      -7.717   4.023  68.967  1.00  0.00     0.000 HD 
HETATM   29  H1  UNL     1      -6.336   3.237  69.490  1.00  0.00     0.000 HD 
ENDBRANCH  20  26
ENDBRANCH  16  17
ENDBRANCH   8  16
BRANCH  10  30
HETATM   30  O   UNL     1     -10.064   9.616  69.364  1.00  0.00    -0.181 OA 
BRANCH  30  31
HETATM   31  C   UNL     1     -10.320  10.176  68.062  1.00  0.00    -0.190 C  
HETATM   32  O   UNL     1      -8.019  11.038  68.021  1.00  0.00    -0.108 OA 
HETATM   33  C   UNL     1     -11.345  12.923  68.158  1.00  0.00    -0.289 C  
HETATM   34  C   UNL     1      -9.363  11.337  67.609  1.00  0.00    -0.160 C  
HETATM   35  O   UNL     1     -11.682  10.567  67.977  1.00  0.00    -0.450 OA 
HETATM   36  O   UNL     1     -11.953  13.058  66.857  1.00  0.00    -0.382 OA 
HETATM   37  C   UNL     1      -9.785  12.782  68.030  1.00  0.00    -0.220 C  
HETATM   38  H   UNL     1     -11.593  13.831  66.435  1.00  0.00     0.000 HD 
HETATM   39  C   UNL     1     -11.752  14.164  68.955  1.00  0.00    -0.369 C  
HETATM   40  H   UNL     1      -7.440  11.740  67.747  1.00  0.00     0.000 HD 
HETATM   41  C   UNL     1     -11.921  11.685  68.832  1.00  0.00    -0.292 C  
BRANCH  37  42
HETATM   42  N   UNL     1      -9.303  13.845  67.101  1.00  0.00    -0.233 NA 
HETATM   43  H   UNL     1      -9.817  14.047  66.244  1.00  0.00     0.000 HD 
HETATM   44  C   UNL     1      -8.107  14.586  67.419  1.00  0.00    -0.200 C  
ENDBRANCH  37  42
ENDBRANCH  30  31
ENDBRANCH  10  30
ENDBRANCH   3   5
ENDBRANCH   2   3
TORSDOF 8
ENDMDL
MODEL      182
REMARK 921   NORMALIZED FREE ENERGY PREDICTED BY IDOCK:   -4.43 KCAL/MOL
REMARK 922        TOTAL FREE ENERGY PREDICTED BY IDOCK:   -7.25 KCAL/MOL
REMARK 923 INTER-LIGAND FREE ENERGY PREDICTED BY IDOCK:   -6.00 KCAL/MOL
REMARK 924 INTRA-LIGAND FREE ENERGY PREDICTED BY IDOCK:   -1.25 KCAL/MOL
REMARK 927      BINDING AFFINITY PREDICTED BY RF-SCORE:    0.00 PKD
ROOT
HETATM    1  C   UNL     1      -8.108   4.946  71.728  1.00  0.00    -0.113 C  
HETATM    2  C   UNL     1      -9.436   4.248  71.990  1.00  0.00    -0.135 C  
ENDROOT
BRANCH   2   3
HETATM    3  N   UNL     1     -10.509   4.901  71.236  1.00  0.00    -0.149 NA 
HETATM    4  H   UNL     1     -11.278   5.144  71.861  1.00  0.00     0.000 HD 
BRANCH   3   5
HETATM    5  C   UNL     1     -10.101   6.093  70.443  1.00  0.00    -0.189 C  
HETATM    6  C   UNL     1     -10.528   7.399  71.129  1.00  0.00    -0.220 C  
HETATM    7  C   UNL     1     -10.071   8.632  70.344  1.00  0.00    -0.188 C  
HETATM    8  C   UNL     1     -10.733   8.658  68.939  1.00  0.00    -0.082 C  
HETATM    9  N   UNL     1     -10.409   9.835  71.132  1.00  0.00    -0.279 NA 
HETATM   10  C   UNL     1     -10.536   6.003  68.952  1.00  0.00    -0.248 C  
HETATM   11  H2  UNL     1     -10.027   9.806  72.077  1.00  0.00     0.000 HD 
HETATM   12  H1  UNL     1     -10.105  10.655  70.609  1.00  0.00     0.000 HD 
HETATM   13  C   UNL     1     -10.495   7.331  68.170  1.00  0.00    -0.198 C  
HETATM   14  H   UNL     1     -11.325   6.354  66.637  1.00  0.00     0.000 HD 
HETATM   15  O   UNL     1     -11.470   7.166  67.108  1.00  0.00     0.016 OA 
BRANCH   8  16
HETATM   16  O   UNL     1     -10.181   9.788  68.188  1.00  0.00    -0.168 OA 
BRANCH  16  17
HETATM   17  C   UNL     1     -11.127  10.436  67.307  1.00  0.00    -0.179 C  
HETATM   18  H1  UNL     1      -9.370   9.379  64.503  1.00  0.00     0.000 HD 
HETATM   19  O   UNL     1     -11.420  11.749  67.802  1.00  0.00    -0.281 OA 
HETATM   20  C   UNL     1     -10.707  12.790  67.248  1.00  0.00    -0.237 C  
HETATM   21  H2  UNL     1      -9.707   8.542  65.912  1.00  0.00     0.000 HD 
HETATM   22  N   UNL     1      -9.598   9.466  65.494  1.00  0.00    -0.275 NA 
HETATM   23  C   UNL     1     -10.382  12.785  65.949  1.00  0.00    -0.298 C  
HETATM   24  C   UNL     1     -10.777  10.304  65.787  1.00  0.00     0.114 C  
HETATM   25  C   UNL     1     -10.773  11.654  65.062  1.00  0.00    -0.351 C  
BRANCH  20  26
HETATM   26  C   UNL     1     -10.423  13.907  68.225  1.00  0.00    -0.250 C  
HETATM   27  N   UNL     1      -9.309  13.662  69.139  1.00  0.00    -0.274 NA 
HETATM   28  H2  UNL     1      -8.466  13.432  68.613  1.00  0.00     0.000 HD 
HETATM   29  H1  UNL     1      -9.117  14.416  69.799  1.00  0.00     0.000 HD 
ENDBRANCH  20  26
ENDBRANCH  16  17
ENDBRANCH   8  16
BRANCH  10  30
HETATM   30  O   UNL     1      -9.914   4.889  68.219  1.00  0.00    -0.154 OA 
BRANCH  30  31
HETATM   31  C   UNL     1      -9.175   5.225  67.029  1.00  0.00    -0.116 C  
HETATM   32  O   UNL     1     -11.138   4.611  65.682  1.00  0.00    -0.826 OA 
HETATM   33  C   UNL     1      -7.695   2.956  65.902  1.00  0.00    -0.081 C  
HETATM   34  C   UNL     1      -9.700   4.593  65.689  1.00  0.00    -0.192 C  
HETATM   35  O   UNL     1      -7.800   4.936  67.232  1.00  0.00    -0.094 OA 
HETATM   36  O   UNL     1      -6.714   3.622  65.080  1.00  0.00    -0.042 OA 
HETATM   37  C   UNL     1      -9.141   3.179  65.328  1.00  0.00    -0.148 C  
HETATM   38  H   UNL     1      -6.769   3.268  64.200  1.00  0.00     0.000 HD 
HETATM   39  C   UNL     1      -7.303   1.478  65.929  1.00  0.00    -0.056 C  
HETATM   40  H   UNL     1     -11.455   4.230  64.872  1.00  0.00     0.000 HD 
HETATM   41  C   UNL     1      -7.607   3.523  67.313  1.00  0.00    -0.078 C  
BRANCH  37  42
HETATM   42  N   UNL     1      -9.101   2.903  63.863  1.00  0.00    -0.101 NA 
HETATM   43  H   UNL     1      -8.925   1.957  63.524  1.00  0.00     0.000 HD 
HETATM   44  C   UNL     1      -9.312   3.979  62.926  1.00  0.00    -0.123 C  
ENDBRANCH  37  42
ENDBRANCH  30  31
ENDBRANCH  10  30
ENDBRANCH   3   5
ENDBRANCH   2   3
TORSDOF 8
ENDMDL
MODEL      183
REMARK 921   NORMALIZED FREE ENERGY PREDICTED BY IDOCK:   -4.41 KCAL/MOL
REMARK 922        TOTAL FREE ENERGY PREDICTED BY IDOCK:   -7.22 KCAL/MOL
REMARK 923 INTER-LIGAND FREE ENERGY PREDICTED BY IDOCK:   -8.04 KCAL/MOL
REMARK 924 INTRA-LIGAND FREE ENERGY PREDICTED BY IDOCK:    0.82 KCAL/MOL
REMARK 927      BINDING AFFINITY PREDICTED BY RF-SCORE:    0.00 PKD
ROOT
HETATM    1  C   UNL     1     -12.598  12.526  63.072  1.00  0.00     0.057 C  
HETATM    2  C   UNL     1     -12.649  11.752  64.382  1.00  0.00     0.107 C  
ENDROOT
BRANCH   2   3
HETATM    3  N   UNL     1     -11.311  11.673  64.976  1.00  0.00    -0.223 NA 
HETATM    4  H   UNL     1     -10.626  11.428  64.262  1.00  0.00     0.000 HD 
BRANCH   3   5
HETATM    5  C   UNL     1     -10.866  12.888  65.714  1.00  0.00    -0.269 C  
HETATM    6  C   UNL     1     -10.899  14.134  64.817  1.00  0.00    -0.426 C  
HETATM    7  C   UNL     1     -10.487  15.396  65.581  1.00  0.00    -0.372 C  
HETATM    8  C   UNL     1      -9.021  15.276  66.081  1.00  0.00    -0.216 C  
HETATM    9  N   UNL     1     -10.666  16.558  64.686  1.00  0.00    -0.841 NA 
HETATM   10  C   UNL     1      -9.508  12.684  66.446  1.00  0.00    -0.231 C  
HETATM   11  H2  UNL     1     -11.611  16.619  64.306  1.00  0.00     0.000 HD 
HETATM   12  H1  UNL     1     -10.392  17.398  65.194  1.00  0.00     0.000 HD 
HETATM   13  C   UNL     1      -8.802  13.977  66.901  1.00  0.00    -0.194 C  
HETATM   14  H   UNL     1      -7.260  12.835  67.458  1.00  0.00     0.000 HD 
HETATM   15  O   UNL     1      -7.394  13.630  66.956  1.00  0.00     0.046 OA 
BRANCH   8  16
HETATM   16  O   UNL     1      -8.712  16.452  66.897  1.00  0.00    -0.177 OA 
BRANCH  16  17
HETATM   17  C   UNL     1      -9.799  17.398  67.015  1.00  0.00    -0.286 C  
HETATM   18  H1  UNL     1      -7.579  20.069  67.082  1.00  0.00     0.000 HD 
HETATM   19  O   UNL     1     -10.741  16.925  67.986  1.00  0.00    -0.352 OA 
HETATM   20  C   UNL     1     -10.615  17.426  69.263  1.00  0.00    -0.084 C  
HETATM   21  H2  UNL     1      -7.537  18.687  66.138  1.00  0.00     0.000 HD 
HETATM   22  N   UNL     1      -7.880  19.097  67.007  1.00  0.00    -0.246 NA 
HETATM   23  C   UNL     1     -10.253  18.699  69.467  1.00  0.00     0.349 C  
HETATM   24  C   UNL     1      -9.337  18.889  67.130  1.00  0.00    -0.300 C  
HETATM   25  C   UNL     1      -9.967  19.612  68.325  1.00  0.00    -0.543 C  
BRANCH  20  26
HETATM   26  C   UNL     1     -10.992  16.432  70.336  1.00  0.00    -0.207 C  
HETATM   27  N   UNL     1     -10.791  15.029  69.978  1.00  0.00    -0.373 NA 
HETATM   28  H2  UNL     1      -9.828  14.877  69.679  1.00  0.00     0.000 HD 
HETATM   29  H1  UNL     1     -11.045  14.357  70.702  1.00  0.00     0.000 HD 
ENDBRANCH  20  26
ENDBRANCH  16  17
ENDBRANCH   8  16
BRANCH  10  30
HETATM   30  O   UNL     1      -9.550  11.655  67.497  1.00  0.00    -0.168 OA 
BRANCH  30  31
HETATM   31  C   UNL     1     -10.693  10.779  67.504  1.00  0.00    -0.264 C  
HETATM   32  O   UNL     1     -11.383  11.755  69.651  1.00  0.00    -0.357 OA 
HETATM   33  C   UNL     1     -10.183   8.214  68.835  1.00  0.00    -0.210 C  
HETATM   34  C   UNL     1     -11.363  10.527  68.903  1.00  0.00    -0.251 C  
HETATM   35  O   UNL     1     -10.352   9.556  66.868  1.00  0.00    -0.240 OA 
HETATM   36  O   UNL     1     -11.237   7.388  68.301  1.00  0.00    -0.443 OA 
HETATM   37  C   UNL     1     -10.776   9.349  69.747  1.00  0.00    -0.234 C  
HETATM   38  H   UNL     1     -11.714   7.002  69.026  1.00  0.00     0.000 HD 
HETATM   39  C   UNL     1      -9.251   7.278  69.607  1.00  0.00    -0.143 C  
HETATM   40  H   UNL     1     -11.788  11.602  70.497  1.00  0.00     0.000 HD 
HETATM   41  C   UNL     1      -9.419   8.834  67.672  1.00  0.00    -0.141 C  
BRANCH  37  42
HETATM   42  N   UNL     1     -11.761   8.724  70.675  1.00  0.00    -0.431 NA 
HETATM   43  H   UNL     1     -12.621   8.314  70.309  1.00  0.00     0.000 HD 
HETATM   44  C   UNL     1     -11.496   8.701  72.092  1.00  0.00    -0.373 C  
ENDBRANCH  37  42
ENDBRANCH  30  31
ENDBRANCH  10  30
ENDBRANCH   3   5
ENDBRANCH   2   3
TORSDOF 8
ENDMDL
MODEL      184
REMARK 921   NORMALIZED FREE ENERGY PREDICTED BY IDOCK:   -4.38 KCAL/MOL
REMARK 922        TOTAL FREE ENERGY PREDICTED BY IDOCK:   -7.17 KCAL/MOL
REMARK 923 INTER-LIGAND FREE ENERGY PREDICTED BY IDOCK:   -6.06 KCAL/MOL
REMARK 924 INTRA-LIGAND FREE ENERGY PREDICTED BY IDOCK:   -1.10 KCAL/MOL
REMARK 927      BINDING AFFINITY PREDICTED BY RF-SCORE:    0.00 PKD
ROOT
HETATM    1  C   UNL     1     -14.411   8.631  72.307  1.00  0.00    -0.486 C  
HETATM    2  C   UNL     1     -13.076   9.363  72.333  1.00  0.00    -0.379 C  
ENDROOT
BRANCH   2   3
HETATM    3  N   UNL     1     -11.984   8.418  72.584  1.00  0.00    -0.467 NA 
HETATM    4  H   UNL     1     -12.363   7.487  72.763  1.00  0.00     0.000 HD 
BRANCH   3   5
HETATM    5  C   UNL     1     -10.940   8.349  71.525  1.00  0.00    -0.262 C  
HETATM    6  C   UNL     1     -10.725   9.716  70.858  1.00  0.00    -0.402 C  
HETATM    7  C   UNL     1      -9.619   9.665  69.800  1.00  0.00    -0.219 C  
HETATM    8  C   UNL     1     -10.009   8.694  68.652  1.00  0.00    -0.183 C  
HETATM    9  N   UNL     1      -9.391  11.038  69.302  1.00  0.00    -0.409 NA 
HETATM   10  C   UNL     1     -11.185   7.194  70.511  1.00  0.00    -0.290 C  
HETATM   11  H2  UNL     1      -9.187  11.699  70.052  1.00  0.00     0.000 HD 
HETATM   12  H1  UNL     1      -8.655  11.004  68.598  1.00  0.00     0.000 HD 
HETATM   13  C   UNL     1     -10.388   7.291  69.195  1.00  0.00    -0.205 C  
HETATM   14  H   UNL     1     -11.415   5.699  68.559  1.00  0.00     0.000 HD 
HETATM   15  O   UNL     1     -11.182   6.557  68.227  1.00  0.00    -0.277 OA 
BRANCH   8  16
HETATM   16  O   UNL     1      -8.879   8.593  67.726  1.00  0.00    -0.135 OA 
BRANCH  16  17
HETATM   17  C   UNL     1      -9.181   9.002  66.372  1.00  0.00    -0.188 C  
HETATM   18  H1  UNL     1      -8.229   5.900  65.133  1.00  0.00     0.000 HD 
HETATM   19  O   UNL     1      -8.656  10.316  66.141  1.00  0.00    -0.133 OA 
HETATM   20  C   UNL     1      -7.425  10.389  65.528  1.00  0.00    -0.142 C  
HETATM   21  H2  UNL     1      -9.098   6.260  66.517  1.00  0.00     0.000 HD 
HETATM   22  N   UNL     1      -8.426   6.613  65.836  1.00  0.00    -0.140 NA 
HETATM   23  C   UNL     1      -7.081   9.517  64.572  1.00  0.00    -0.107 C  
HETATM   24  C   UNL     1      -8.879   7.909  65.293  1.00  0.00     0.077 C  
HETATM   25  C   UNL     1      -8.012   8.436  64.144  1.00  0.00    -0.151 C  
BRANCH  20  26
HETATM   26  C   UNL     1      -6.592  11.561  65.995  1.00  0.00     0.368 C  
HETATM   27  N   UNL     1      -5.185  11.258  66.250  1.00  0.00    -0.146 NA 
HETATM   28  H2  UNL     1      -4.762  10.832  65.425  1.00  0.00     0.000 HD 
HETATM   29  H1  UNL     1      -4.623  12.048  66.565  1.00  0.00     0.000 HD 
ENDBRANCH  20  26
ENDBRANCH  16  17
ENDBRANCH   8  16
BRANCH  10  30
HETATM   30  O   UNL     1     -11.132   5.854  71.116  1.00  0.00    -0.274 OA 
BRANCH  30  31
HETATM   31  C   UNL     1      -9.836   5.371  71.515  1.00  0.00    -0.168 C  
HETATM   32  O   UNL     1      -9.804   3.922  69.531  1.00  0.00    -0.177 OA 
HETATM   33  C   UNL     1      -9.959   3.002  73.241  1.00  0.00    -0.112 C  
HETATM   34  C   UNL     1      -9.395   3.991  70.907  1.00  0.00    -0.151 C  
HETATM   35  O   UNL     1      -9.755   5.361  72.932  1.00  0.00    -0.147 OA 
HETATM   36  O   UNL     1      -8.659   3.023  73.866  1.00  0.00    -0.073 OA 
HETATM   37  C   UNL     1      -9.831   2.717  71.701  1.00  0.00    -0.141 C  
HETATM   38  H   UNL     1      -8.246   2.178  73.729  1.00  0.00     0.000 HD 
HETATM   39  C   UNL     1     -10.768   1.924  73.965  1.00  0.00    -0.215 C  
HETATM   40  H   UNL     1      -9.537   3.088  69.163  1.00  0.00     0.000 HD 
HETATM   41  C   UNL     1     -10.621   4.357  73.461  1.00  0.00    -0.227 C  
BRANCH  37  42
HETATM   42  N   UNL     1      -8.913   1.555  71.525  1.00  0.00    -0.059 NA 
HETATM   43  H   UNL     1      -9.276   0.661  71.195  1.00  0.00     0.000 HD 
HETATM   44  C   UNL     1      -7.509   1.699  71.825  1.00  0.00    -0.039 C  
ENDBRANCH  37  42
ENDBRANCH  30  31
ENDBRANCH  10  30
ENDBRANCH   3   5
ENDBRANCH   2   3
TORSDOF 8
ENDMDL
MODEL      185
REMARK 921   NORMALIZED FREE ENERGY PREDICTED BY IDOCK:   -4.37 KCAL/MOL
REMARK 922        TOTAL FREE ENERGY PREDICTED BY IDOCK:   -7.16 KCAL/MOL
REMARK 923 INTER-LIGAND FREE ENERGY PREDICTED BY IDOCK:   -5.39 KCAL/MOL
REMARK 924 INTRA-LIGAND FREE ENERGY PREDICTED BY IDOCK:   -1.76 KCAL/MOL
REMARK 927      BINDING AFFINITY PREDICTED BY RF-SCORE:    0.00 PKD
ROOT
HETATM    1  C   UNL     1     -11.303   6.093  70.708  1.00  0.00    -0.364 C  
HETATM    2  C   UNL     1     -10.098   5.680  71.541  1.00  0.00    -0.201 C  
ENDROOT
BRANCH   2   3
HETATM    3  N   UNL     1      -8.952   6.541  71.237  1.00  0.00    -0.142 NA 
HETATM    4  H   UNL     1      -8.142   6.253  71.787  1.00  0.00     0.000 HD 
BRANCH   3   5
HETATM    5  C   UNL     1      -8.584   6.632  69.797  1.00  0.00    -0.136 C  
HETATM    6  C   UNL     1      -7.902   5.346  69.308  1.00  0.00    -0.089 C  
HETATM    7  C   UNL     1      -7.562   5.413  67.816  1.00  0.00    -0.088 C  
HETATM    8  C   UNL     1      -6.550   6.558  67.540  1.00  0.00    -0.061 C  
HETATM    9  N   UNL     1      -7.029   4.098  67.404  1.00  0.00    -0.058 NA 
HETATM   10  C   UNL     1      -7.788   7.926  69.459  1.00  0.00    -0.110 C  
HETATM   11  H2  UNL     1      -7.660   3.329  67.629  1.00  0.00     0.000 HD 
HETATM   12  H1  UNL     1      -6.803   4.142  66.411  1.00  0.00     0.000 HD 
HETATM   13  C   UNL     1      -7.051   7.913  68.105  1.00  0.00    -0.089 C  
HETATM   14  H   UNL     1      -6.257   9.673  68.619  1.00  0.00     0.000 HD 
HETATM   15  O   UNL     1      -5.951   8.843  68.273  1.00  0.00    -0.041 OA 
BRANCH   8  16
HETATM   16  O   UNL     1      -6.343   6.654  66.093  1.00  0.00    -0.039 OA 
BRANCH  16  17
HETATM   17  C   UNL     1      -7.562   6.641  65.315  1.00  0.00    -0.088 C  
HETATM   18  H1  UNL     1      -6.052   4.749  62.824  1.00  0.00     0.000 HD 
HETATM   19  O   UNL     1      -8.129   7.957  65.292  1.00  0.00    -0.121 OA 
HETATM   20  C   UNL     1      -7.836   8.736  64.194  1.00  0.00    -0.139 C  
HETATM   21  H2  UNL     1      -5.910   4.609  64.485  1.00  0.00     0.000 HD 
HETATM   22  N   UNL     1      -6.133   5.239  63.715  1.00  0.00    -0.021 NA 
HETATM   23  C   UNL     1      -7.737   8.192  62.974  1.00  0.00    -0.135 C  
HETATM   24  C   UNL     1      -7.438   5.889  63.947  1.00  0.00    -0.075 C  
HETATM   25  C   UNL     1      -7.930   6.730  62.765  1.00  0.00    -0.092 C  
BRANCH  20  26
HETATM   26  C   UNL     1      -7.725  10.208  64.516  1.00  0.00    -0.138 C  
HETATM   27  N   UNL     1      -6.610  10.568  65.390  1.00  0.00    -0.242 NA 
HETATM   28  H2  UNL     1      -5.733  10.226  64.999  1.00  0.00     0.000 HD 
HETATM   29  H1  UNL     1      -6.535  11.562  65.608  1.00  0.00     0.000 HD 
ENDBRANCH  20  26
ENDBRANCH  16  17
ENDBRANCH   8  16
BRANCH  10  30
HETATM   30  O   UNL     1      -8.547   9.165  69.686  1.00  0.00    -0.127 OA 
BRANCH  30  31
HETATM   31  C   UNL     1      -9.560   9.494  68.717  1.00  0.00    -0.157 C  
HETATM   32  O   UNL     1      -8.307  11.531  68.151  1.00  0.00    -0.137 OA 
HETATM   33  C   UNL     1     -11.730  11.136  69.815  1.00  0.00    -0.345 C  
HETATM   34  C   UNL     1      -9.638  11.002  68.282  1.00  0.00    -0.171 C  
HETATM   35  O   UNL     1     -10.819   9.024  69.175  1.00  0.00    -0.193 OA 
HETATM   36  O   UNL     1     -12.784  10.915  68.855  1.00  0.00    -0.600 OA 
HETATM   37  C   UNL     1     -10.540  11.928  69.160  1.00  0.00    -0.044 C  
HETATM   38  H   UNL     1     -13.091  11.760  68.546  1.00  0.00     0.000 HD 
HETATM   39  C   UNL     1     -12.362  11.898  70.981  1.00  0.00    -0.362 C  
HETATM   40  H   UNL     1      -8.354  12.442  67.887  1.00  0.00     0.000 HD 
HETATM   41  C   UNL     1     -11.237   9.782  70.310  1.00  0.00    -0.288 C  
BRANCH  37  42
HETATM   42  N   UNL     1     -11.114  13.088  68.419  1.00  0.00    -0.247 NA 
HETATM   43  H   UNL     1     -11.851  12.940  67.729  1.00  0.00     0.000 HD 
HETATM   44  C   UNL     1     -10.624  14.418  68.682  1.00  0.00    -0.252 C  
ENDBRANCH  37  42
ENDBRANCH  30  31
ENDBRANCH  10  30
ENDBRANCH   3   5
ENDBRANCH   2   3
TORSDOF 8
ENDMDL
MODEL      186
REMARK 921   NORMALIZED FREE ENERGY PREDICTED BY IDOCK:   -4.36 KCAL/MOL
REMARK 922        TOTAL FREE ENERGY PREDICTED BY IDOCK:   -7.14 KCAL/MOL
REMARK 923 INTER-LIGAND FREE ENERGY PREDICTED BY IDOCK:   -7.06 KCAL/MOL
REMARK 924 INTRA-LIGAND FREE ENERGY PREDICTED BY IDOCK:   -0.09 KCAL/MOL
REMARK 927      BINDING AFFINITY PREDICTED BY RF-SCORE:    0.00 PKD
ROOT
HETATM    1  C   UNL     1     -13.614  13.881  72.631  1.00  0.00    -0.626 C  
HETATM    2  C   UNL     1     -13.368  12.501  72.036  1.00  0.00    -0.426 C  
ENDROOT
BRANCH   2   3
HETATM    3  N   UNL     1     -12.965  12.619  70.632  1.00  0.00     0.089 NA 
HETATM    4  H   UNL     1     -12.388  13.450  70.503  1.00  0.00     0.000 HD 
BRANCH   3   5
HETATM    5  C   UNL     1     -12.279  11.427  70.061  1.00  0.00    -0.301 C  
HETATM    6  C   UNL     1     -11.674  10.545  71.163  1.00  0.00    -0.323 C  
HETATM    7  C   UNL     1     -11.007   9.292  70.588  1.00  0.00    -0.276 C  
HETATM    8  C   UNL     1      -9.821   9.683  69.664  1.00  0.00    -0.215 C  
HETATM    9  N   UNL     1     -10.567   8.443  71.714  1.00  0.00    -0.259 NA 
HETATM   10  C   UNL     1     -11.270  11.795  68.935  1.00  0.00    -0.253 C  
HETATM   11  H2  UNL     1     -11.325   8.223  72.360  1.00  0.00     0.000 HD 
HETATM   12  H1  UNL     1     -10.122   7.609  71.331  1.00  0.00     0.000 HD 
HETATM   13  C   UNL     1     -10.259  10.691  68.567  1.00  0.00    -0.175 C  
HETATM   14  H   UNL     1      -9.381  12.018  67.359  1.00  0.00     0.000 HD 
HETATM   15  O   UNL     1      -9.114  11.401  68.029  1.00  0.00    -0.158 OA 
BRANCH   8  16
HETATM   16  O   UNL     1      -9.288   8.464  69.052  1.00  0.00    -0.147 OA 
BRANCH  16  17
HETATM   17  C   UNL     1      -7.844   8.392  69.028  1.00  0.00    -0.102 C  
HETATM   18  H1  UNL     1      -7.942   5.191  67.683  1.00  0.00     0.000 HD 
HETATM   19  O   UNL     1      -7.320   8.882  70.268  1.00  0.00    -0.054 OA 
HETATM   20  C   UNL     1      -7.013   7.939  71.224  1.00  0.00    -0.050 C  
HETATM   21  H2  UNL     1      -8.896   6.516  67.318  1.00  0.00     0.000 HD 
HETATM   22  N   UNL     1      -8.308   6.079  68.027  1.00  0.00    -0.116 NA 
HETATM   23  C   UNL     1      -6.501   6.751  70.877  1.00  0.00    -0.052 C  
HETATM   24  C   UNL     1      -7.282   7.029  68.500  1.00  0.00    -0.091 C  
HETATM   25  C   UNL     1      -6.252   6.408  69.449  1.00  0.00    -0.034 C  
BRANCH  20  26
HETATM   26  C   UNL     1      -7.246   8.421  72.637  1.00  0.00    -0.077 C  
HETATM   27  N   UNL     1      -6.054   8.906  73.330  1.00  0.00    -0.258 NA 
HETATM   28  H2  UNL     1      -5.600   9.635  72.780  1.00  0.00     0.000 HD 
HETATM   29  H1  UNL     1      -6.211   9.232  74.284  1.00  0.00     0.000 HD 
ENDBRANCH  20  26
ENDBRANCH  16  17
ENDBRANCH   8  16
BRANCH  10  30
HETATM   30  O   UNL     1     -11.896  12.413  67.757  1.00  0.00    -0.361 OA 
BRANCH  30  31
HETATM   31  C   UNL     1     -12.030  13.847  67.767  1.00  0.00    -0.355 C  
HETATM   32  O   UNL     1     -12.121  13.820  65.311  1.00  0.00    -0.365 OA 
HETATM   33  C   UNL     1      -9.459  15.255  67.655  1.00  0.00    -0.205 C  
HETATM   34  C   UNL     1     -11.651  14.586  66.433  1.00  0.00    -0.364 C  
HETATM   35  O   UNL     1     -11.316  14.377  68.872  1.00  0.00    -0.245 OA 
HETATM   36  O   UNL     1      -9.815  16.561  68.154  1.00  0.00    -0.235 OA 
HETATM   37  C   UNL     1     -10.148  14.984  66.269  1.00  0.00    -0.282 C  
HETATM   38  H   UNL     1      -9.533  17.212  67.521  1.00  0.00     0.000 HD 
HETATM   39  C   UNL     1      -7.933  15.232  67.558  1.00  0.00    -0.197 C  
HETATM   40  H   UNL     1     -11.891  14.267  64.505  1.00  0.00     0.000 HD 
HETATM   41  C   UNL     1      -9.912  14.213  68.669  1.00  0.00    -0.222 C  
BRANCH  37  42
HETATM   42  N   UNL     1      -9.934  16.183  65.408  1.00  0.00    -0.497 NA 
HETATM   43  H   UNL     1      -9.041  16.675  65.429  1.00  0.00     0.000 HD 
HETATM   44  C   UNL     1     -10.994  16.644  64.546  1.00  0.00     0.176 C  
ENDBRANCH  37  42
ENDBRANCH  30  31
ENDBRANCH  10  30
ENDBRANCH   3   5
ENDBRANCH   2   3
TORSDOF 8
ENDMDL
MODEL      187
REMARK 921   NORMALIZED FREE ENERGY PREDICTED BY IDOCK:   -4.33 KCAL/MOL
REMARK 922        TOTAL FREE ENERGY PREDICTED BY IDOCK:   -7.10 KCAL/MOL
REMARK 923 INTER-LIGAND FREE ENERGY PREDICTED BY IDOCK:   -6.27 KCAL/MOL
REMARK 924 INTRA-LIGAND FREE ENERGY PREDICTED BY IDOCK:   -0.84 KCAL/MOL
REMARK 927      BINDING AFFINITY PREDICTED BY RF-SCORE:    0.00 PKD
ROOT
HETATM    1  C   UNL     1      -6.771  14.538  68.523  1.00  0.00    -0.096 C  
HETATM    2  C   UNL     1      -6.369  13.080  68.699  1.00  0.00    -0.083 C  
ENDROOT
BRANCH   2   3
HETATM    3  N   UNL     1      -7.100  12.235  67.750  1.00  0.00    -0.102 NA 
HETATM    4  H   UNL     1      -6.518  12.042  66.935  1.00  0.00     0.000 HD 
BRANCH   3   5
HETATM    5  C   UNL     1      -7.637  10.963  68.308  1.00  0.00    -0.100 C  
HETATM    6  C   UNL     1      -6.978   9.740  67.653  1.00  0.00    -0.086 C  
HETATM    7  C   UNL     1      -7.490   8.427  68.253  1.00  0.00    -0.096 C  
HETATM    8  C   UNL     1      -9.015   8.272  68.000  1.00  0.00    -0.138 C  
HETATM    9  N   UNL     1      -6.720   7.315  67.660  1.00  0.00    -0.062 NA 
HETATM   10  C   UNL     1      -9.192  10.911  68.301  1.00  0.00    -0.161 C  
HETATM   11  H2  UNL     1      -5.712   7.432  67.772  1.00  0.00     0.000 HD 
HETATM   12  H1  UNL     1      -7.060   6.441  68.060  1.00  0.00     0.000 HD 
HETATM   13  C   UNL     1      -9.807   9.510  68.495  1.00  0.00    -0.158 C  
HETATM   14  H   UNL     1     -11.591  10.343  68.159  1.00  0.00     0.000 HD 
HETATM   15  O   UNL     1     -11.107   9.585  67.856  1.00  0.00    -0.179 OA 
BRANCH   8  16
HETATM   16  O   UNL     1      -9.478   7.063  68.685  1.00  0.00    -0.137 OA 
BRANCH  16  17
HETATM   17  C   UNL     1      -9.223   7.052  70.109  1.00  0.00    -0.152 C  
HETATM   18  H1  UNL     1      -8.309   3.702  70.004  1.00  0.00     0.000 HD 
HETATM   19  O   UNL     1     -10.290   7.721  70.792  1.00  0.00    -0.202 OA 
HETATM   20  C   UNL     1     -11.289   6.924  71.307  1.00  0.00    -0.279 C  
HETATM   21  H2  UNL     1      -7.951   4.926  68.921  1.00  0.00     0.000 HD 
HETATM   22  N   UNL     1      -8.600   4.610  69.641  1.00  0.00    -0.077 NA 
HETATM   23  C   UNL     1     -11.006   5.725  71.833  1.00  0.00    -0.318 C  
HETATM   24  C   UNL     1      -8.777   5.658  70.666  1.00  0.00    -0.134 C  
HETATM   25  C   UNL     1      -9.610   5.210  71.872  1.00  0.00    -0.193 C  
BRANCH  20  26
HETATM   26  C   UNL     1     -12.652   7.574  71.272  1.00  0.00    -0.314 C  
HETATM   27  N   UNL     1     -12.985   8.377  72.447  1.00  0.00    -0.557 NA 
HETATM   28  H2  UNL     1     -12.264   9.080  72.609  1.00  0.00     0.000 HD 
HETATM   29  H1  UNL     1     -13.906   8.816  72.424  1.00  0.00     0.000 HD 
ENDBRANCH  20  26
ENDBRANCH  16  17
ENDBRANCH   8  16
BRANCH  10  30
HETATM   30  O   UNL     1      -9.823  11.935  69.147  1.00  0.00     0.055 OA 
BRANCH  30  31
HETATM   31  C   UNL     1     -11.018  12.556  68.636  1.00  0.00    -0.255 C  
HETATM   32  O   UNL     1      -9.741  13.322  66.680  1.00  0.00    -0.255 OA 
HETATM   33  C   UNL     1     -11.347  15.338  69.508  1.00  0.00    -0.288 C  
HETATM   34  C   UNL     1     -10.806  13.693  67.572  1.00  0.00    -0.264 C  
HETATM   35  O   UNL     1     -11.814  13.006  69.721  1.00  0.00    -0.308 OA 
HETATM   36  O   UNL     1     -12.758  15.549  69.297  1.00  0.00    -0.524 OA 
HETATM   37  C   UNL     1     -10.605  15.137  68.137  1.00  0.00    -0.246 C  
HETATM   38  H   UNL     1     -12.869  16.322  68.755  1.00  0.00     0.000 HD 
HETATM   39  C   UNL     1     -10.836  16.563  70.269  1.00  0.00    -0.156 C  
HETATM   40  H   UNL     1      -9.614  14.009  66.037  1.00  0.00     0.000 HD 
HETATM   41  C   UNL     1     -11.170  14.099  70.377  1.00  0.00     0.123 C  
BRANCH  37  42
HETATM   42  N   UNL     1     -11.057  16.214  67.209  1.00  0.00    -0.168 NA 
HETATM   43  H   UNL     1     -11.934  16.704  67.382  1.00  0.00     0.000 HD 
HETATM   44  C   UNL     1     -10.248  16.560  66.066  1.00  0.00    -0.356 C  
ENDBRANCH  37  42
ENDBRANCH  30  31
ENDBRANCH  10  30
ENDBRANCH   3   5
ENDBRANCH   2   3
TORSDOF 8
ENDMDL
MODEL      188
REMARK 921   NORMALIZED FREE ENERGY PREDICTED BY IDOCK:   -4.32 KCAL/MOL
REMARK 922        TOTAL FREE ENERGY PREDICTED BY IDOCK:   -7.07 KCAL/MOL
REMARK 923 INTER-LIGAND FREE ENERGY PREDICTED BY IDOCK:   -5.14 KCAL/MOL
REMARK 924 INTRA-LIGAND FREE ENERGY PREDICTED BY IDOCK:   -1.94 KCAL/MOL
REMARK 927      BINDING AFFINITY PREDICTED BY RF-SCORE:    0.00 PKD
ROOT
HETATM    1  C   UNL     1     -13.863   9.296  72.313  1.00  0.00    -0.492 C  
HETATM    2  C   UNL     1     -12.357   9.233  72.102  1.00  0.00    -0.328 C  
ENDROOT
BRANCH   2   3
HETATM    3  N   UNL     1     -12.041   8.378  70.954  1.00  0.00    -0.464 NA 
HETATM    4  H   UNL     1     -12.896   8.139  70.451  1.00  0.00     0.000 HD 
BRANCH   3   5
HETATM    5  C   UNL     1     -11.027   8.923  70.010  1.00  0.00    -0.206 C  
HETATM    6  C   UNL     1     -11.376  10.354  69.574  1.00  0.00    -0.325 C  
HETATM    7  C   UNL     1     -10.314  10.939  68.639  1.00  0.00    -0.191 C  
HETATM    8  C   UNL     1     -10.227  10.110  67.329  1.00  0.00    -0.222 C  
HETATM    9  N   UNL     1     -10.660  12.351  68.372  1.00  0.00    -0.231 NA 
HETATM   10  C   UNL     1     -10.736   7.964  68.820  1.00  0.00    -0.051 C  
HETATM   11  H2  UNL     1     -10.775  12.896  69.226  1.00  0.00     0.000 HD 
HETATM   12  H1  UNL     1      -9.953  12.741  67.749  1.00  0.00     0.000 HD 
HETATM   13  C   UNL     1     -10.007   8.602  67.620  1.00  0.00    -0.194 C  
HETATM   14  H   UNL     1     -10.257   6.869  66.658  1.00  0.00     0.000 HD 
HETATM   15  O   UNL     1     -10.391   7.792  66.480  1.00  0.00    -0.234 OA 
BRANCH   8  16
HETATM   16  O   UNL     1      -9.126  10.637  66.519  1.00  0.00    -0.157 OA 
BRANCH  16  17
HETATM   17  C   UNL     1      -7.813  10.214  66.951  1.00  0.00    -0.107 C  
HETATM   18  H1  UNL     1      -6.877  13.496  67.601  1.00  0.00     0.000 HD 
HETATM   19  O   UNL     1      -7.294   9.247  66.029  1.00  0.00    -0.093 OA 
HETATM   20  C   UNL     1      -6.448   9.719  65.050  1.00  0.00    -0.098 C  
HETATM   21  H2  UNL     1      -8.337  12.737  67.906  1.00  0.00     0.000 HD 
HETATM   22  N   UNL     1      -7.493  12.729  67.333  1.00  0.00    -0.156 NA 
HETATM   23  C   UNL     1      -5.581  10.706  65.310  1.00  0.00    -0.137 C  
HETATM   24  C   UNL     1      -6.867  11.392  67.363  1.00  0.00    -0.101 C  
HETATM   25  C   UNL     1      -5.506  11.330  66.660  1.00  0.00    -0.126 C  
BRANCH  20  26
HETATM   26  C   UNL     1      -6.568   8.970  63.743  1.00  0.00    -0.089 C  
HETATM   27  N   UNL     1      -5.298   8.660  63.089  1.00  0.00    -0.067 NA 
HETATM   28  H2  UNL     1      -4.687   8.155  63.730  1.00  0.00     0.000 HD 
HETATM   29  H1  UNL     1      -5.379   8.154  62.207  1.00  0.00     0.000 HD 
ENDBRANCH  20  26
ENDBRANCH  16  17
ENDBRANCH   8  16
BRANCH  10  30
HETATM   30  O   UNL     1     -10.152   6.676  69.225  1.00  0.00    -0.161 OA 
BRANCH  30  31
HETATM   31  C   UNL     1      -8.767   6.685  69.620  1.00  0.00    -0.140 C  
HETATM   32  O   UNL     1      -8.181   5.670  67.461  1.00  0.00    -0.102 OA 
HETATM   33  C   UNL     1      -7.935   4.232  70.998  1.00  0.00    -0.071 C  
HETATM   34  C   UNL     1      -7.822   5.692  68.852  1.00  0.00    -0.096 C  
HETATM   35  O   UNL     1      -8.678   6.501  71.025  1.00  0.00    -0.137 OA 
HETATM   36  O   UNL     1      -6.744   4.668  71.685  1.00  0.00    -0.032 OA 
HETATM   37  C   UNL     1      -7.715   4.248  69.442  1.00  0.00    -0.054 C  
HETATM   38  H   UNL     1      -6.032   4.081  71.454  1.00  0.00     0.000 HD 
HETATM   39  C   UNL     1      -8.249   2.831  71.525  1.00  0.00    -0.072 C  
HETATM   40  H   UNL     1      -7.610   5.069  66.997  1.00  0.00     0.000 HD 
HETATM   41  C   UNL     1      -9.075   5.172  71.367  1.00  0.00    -0.144 C  
BRANCH  37  42
HETATM   42  N   UNL     1      -6.415   3.576  69.155  1.00  0.00    -0.033 NA 
HETATM   43  H   UNL     1      -5.587   3.807  69.705  1.00  0.00     0.000 HD 
HETATM   44  C   UNL     1      -6.332   2.598  68.098  1.00  0.00    -0.029 C  
ENDBRANCH  37  42
ENDBRANCH  30  31
ENDBRANCH  10  30
ENDBRANCH   3   5
ENDBRANCH   2   3
TORSDOF 8
ENDMDL
MODEL      189
REMARK 921   NORMALIZED FREE ENERGY PREDICTED BY IDOCK:   -4.31 KCAL/MOL
REMARK 922        TOTAL FREE ENERGY PREDICTED BY IDOCK:   -7.07 KCAL/MOL
REMARK 923 INTER-LIGAND FREE ENERGY PREDICTED BY IDOCK:   -7.49 KCAL/MOL
REMARK 924 INTRA-LIGAND FREE ENERGY PREDICTED BY IDOCK:    0.42 KCAL/MOL
REMARK 927      BINDING AFFINITY PREDICTED BY RF-SCORE:    0.00 PKD
ROOT
HETATM    1  C   UNL     1      -7.380   9.916  68.708  1.00  0.00    -0.078 C  
HETATM    2  C   UNL     1      -7.536  11.259  68.008  1.00  0.00    -0.095 C  
ENDROOT
BRANCH   2   3
HETATM    3  N   UNL     1      -8.241  12.205  68.878  1.00  0.00    -0.352 NA 
HETATM    4  H   UNL     1      -7.983  12.043  69.851  1.00  0.00     0.000 HD 
BRANCH   3   5
HETATM    5  C   UNL     1      -8.063  13.643  68.536  1.00  0.00    -0.118 C  
HETATM    6  C   UNL     1      -6.933  14.281  69.358  1.00  0.00    -0.106 C  
HETATM    7  C   UNL     1      -6.712  15.749  68.980  1.00  0.00    -0.143 C  
HETATM    8  C   UNL     1      -7.983  16.587  69.287  1.00  0.00    -0.104 C  
HETATM    9  N   UNL     1      -5.535  16.246  69.721  1.00  0.00    -0.139 NA 
HETATM   10  C   UNL     1      -9.396  14.443  68.584  1.00  0.00    -0.188 C  
HETATM   11  H2  UNL     1      -4.705  15.672  69.572  1.00  0.00     0.000 HD 
HETATM   12  H1  UNL     1      -5.388  17.223  69.469  1.00  0.00     0.000 HD 
HETATM   13  C   UNL     1      -9.246  15.977  68.622  1.00  0.00    -0.216 C  
HETATM   14  H   UNL     1     -11.226  16.078  68.864  1.00  0.00     0.000 HD 
HETATM   15  O   UNL     1     -10.454  16.452  69.270  1.00  0.00    -0.262 OA 
BRANCH   8  16
HETATM   16  O   UNL     1      -7.765  17.953  68.807  1.00  0.00    -0.288 OA 
BRANCH  16  17
HETATM   17  C   UNL     1      -7.385  18.042  67.414  1.00  0.00    -0.205 C  
HETATM   18  H1  UNL     1      -5.340  20.775  68.057  1.00  0.00     0.000 HD 
HETATM   19  O   UNL     1      -8.550  17.904  66.591  1.00  0.00    -0.246 OA 
HETATM   20  C   UNL     1      -9.139  19.070  66.154  1.00  0.00    -0.191 C  
HETATM   21  H2  UNL     1      -5.555  19.384  68.962  1.00  0.00     0.000 HD 
HETATM   22  N   UNL     1      -5.972  20.002  68.267  1.00  0.00    -0.239 NA 
HETATM   23  C   UNL     1      -8.393  20.133  65.826  1.00  0.00    -0.007 C  
HETATM   24  C   UNL     1      -6.415  19.227  67.091  1.00  0.00    -0.187 C  
HETATM   25  C   UNL     1      -6.908  20.094  65.928  1.00  0.00    -0.284 C  
BRANCH  20  26
HETATM   26  C   UNL     1     -10.642  18.973  66.029  1.00  0.00    -0.423 C  
HETATM   27  N   UNL     1     -11.119  18.008  65.041  1.00  0.00    -0.489 NA 
HETATM   28  H2  UNL     1     -10.721  17.088  65.226  1.00  0.00     0.000 HD 
HETATM   29  H1  UNL     1     -12.133  17.942  64.956  1.00  0.00     0.000 HD 
ENDBRANCH  20  26
ENDBRANCH  16  17
ENDBRANCH   8  16
BRANCH  10  30
HETATM   30  O   UNL     1     -10.395  13.991  67.603  1.00  0.00    -0.239 OA 
BRANCH  30  31
HETATM   31  C   UNL     1     -11.658  13.533  68.123  1.00  0.00    -0.333 C  
HETATM   32  O   UNL     1     -10.934  14.205  70.374  1.00  0.00    -0.453 OA 
HETATM   33  C   UNL     1     -11.622  10.720  68.954  1.00  0.00    -0.291 C  
HETATM   34  C   UNL     1     -11.698  13.217  69.662  1.00  0.00    -0.303 C  
HETATM   35  O   UNL     1     -12.108  12.426  67.357  1.00  0.00    -0.505 OA 
HETATM   36  O   UNL     1     -13.028  10.394  68.957  1.00  0.00    -0.072 OA 
HETATM   37  C   UNL     1     -11.293  11.766  70.079  1.00  0.00    -0.045 C  
HETATM   38  H   UNL     1     -13.251  10.034  69.808  1.00  0.00     0.000 HD 
HETATM   39  C   UNL     1     -10.874   9.400  69.152  1.00  0.00    -0.176 C  
HETATM   40  H   UNL     1     -10.959  14.014  71.304  1.00  0.00     0.000 HD 
HETATM   41  C   UNL     1     -11.265  11.298  67.590  1.00  0.00    -0.292 C  
BRANCH  37  42
HETATM   42  N   UNL     1     -11.936  11.301  71.341  1.00  0.00    -0.048 NA 
HETATM   43  H   UNL     1     -11.556  10.498  71.844  1.00  0.00     0.000 HD 
HETATM   44  C   UNL     1     -13.097  11.989  71.849  1.00  0.00    -0.370 C  
ENDBRANCH  37  42
ENDBRANCH  30  31
ENDBRANCH  10  30
ENDBRANCH   3   5
ENDBRANCH   2   3
TORSDOF 8
ENDMDL
MODEL      190
REMARK 921   NORMALIZED FREE ENERGY PREDICTED BY IDOCK:   -4.28 KCAL/MOL
REMARK 922        TOTAL FREE ENERGY PREDICTED BY IDOCK:   -7.02 KCAL/MOL
REMARK 923 INTER-LIGAND FREE ENERGY PREDICTED BY IDOCK:   -6.54 KCAL/MOL
REMARK 924 INTRA-LIGAND FREE ENERGY PREDICTED BY IDOCK:   -0.48 KCAL/MOL
REMARK 927      BINDING AFFINITY PREDICTED BY RF-SCORE:    0.00 PKD
ROOT
HETATM    1  C   UNL     1      -7.354   7.989  62.923  1.00  0.00    -0.103 C  
HETATM    2  C   UNL     1      -7.736   9.361  63.461  1.00  0.00    -0.122 C  
ENDROOT
BRANCH   2   3
HETATM    3  N   UNL     1      -7.861   9.316  64.921  1.00  0.00    -0.112 NA 
HETATM    4  H   UNL     1      -6.950   9.466  65.354  1.00  0.00     0.000 HD 
BRANCH   3   5
HETATM    5  C   UNL     1      -8.865  10.247  65.506  1.00  0.00    -0.172 C  
HETATM    6  C   UNL     1      -8.952  11.555  64.706  1.00  0.00     0.213 C  
HETATM    7  C   UNL     1     -10.016  12.500  65.273  1.00  0.00    -0.207 C  
HETATM    8  C   UNL     1      -9.655  12.917  66.725  1.00  0.00    -0.246 C  
HETATM    9  N   UNL     1     -10.122  13.669  64.377  1.00  0.00    -0.748 NA 
HETATM   10  C   UNL     1      -8.667  10.464  67.034  1.00  0.00    -0.130 C  
HETATM   11  H2  UNL     1     -10.305  13.407  63.408  1.00  0.00     0.000 HD 
HETATM   12  H1  UNL     1     -10.830  14.298  64.755  1.00  0.00     0.000 HD 
HETATM   13  C   UNL     1      -9.402  11.681  67.629  1.00  0.00    -0.178 C  
HETATM   14  H   UNL     1      -8.473  11.289  69.354  1.00  0.00     0.000 HD 
HETATM   15  O   UNL     1      -8.628  12.045  68.800  1.00  0.00    -0.062 OA 
BRANCH   8  16
HETATM   16  O   UNL     1     -10.751  13.725  67.262  1.00  0.00    -0.279 OA 
BRANCH  16  17
HETATM   17  C   UNL     1     -10.352  15.032  67.735  1.00  0.00    -0.245 C  
HETATM   18  H1  UNL     1     -11.862  16.572  65.012  1.00  0.00     0.000 HD 
HETATM   19  O   UNL     1      -8.984  14.989  68.160  1.00  0.00    -0.166 OA 
HETATM   20  C   UNL     1      -8.040  15.405  67.246  1.00  0.00    -0.200 C  
HETATM   21  H2  UNL     1     -12.410  15.286  65.932  1.00  0.00     0.000 HD 
HETATM   22  N   UNL     1     -11.587  15.806  65.627  1.00  0.00     0.200 NA 
HETATM   23  C   UNL     1      -8.294  16.423  66.413  1.00  0.00    -0.363 C  
HETATM   24  C   UNL     1     -10.774  16.208  66.791  1.00  0.00    -0.235 C  
HETATM   25  C   UNL     1      -9.603  17.132  66.440  1.00  0.00    -0.296 C  
BRANCH  20  26
HETATM   26  C   UNL     1      -6.732  14.657  67.354  1.00  0.00    -0.009 C  
HETATM   27  N   UNL     1      -5.534  15.490  67.278  1.00  0.00    -0.329 NA 
HETATM   28  H2  UNL     1      -5.575  16.230  67.979  1.00  0.00     0.000 HD 
HETATM   29  H1  UNL     1      -4.651  14.985  67.350  1.00  0.00     0.000 HD 
ENDBRANCH  20  26
ENDBRANCH  16  17
ENDBRANCH   8  16
BRANCH  10  30
HETATM   30  O   UNL     1      -8.843   9.242  67.833  1.00  0.00    -0.124 OA 
BRANCH  30  31
HETATM   31  C   UNL     1     -10.090   9.101  68.540  1.00  0.00    -0.191 C  
HETATM   32  O   UNL     1      -8.933   9.688  70.627  1.00  0.00    -0.273 OA 
HETATM   33  C   UNL     1     -10.547   6.388  69.560  1.00  0.00    -0.253 C  
HETATM   34  C   UNL     1      -9.983   8.867  70.091  1.00  0.00    -0.185 C  
HETATM   35  O   UNL     1     -10.870   8.091  67.918  1.00  0.00    -0.118 OA 
HETATM   36  O   UNL     1     -11.975   6.385  69.764  1.00  0.00    -0.542 OA 
HETATM   37  C   UNL     1      -9.846   7.381  70.556  1.00  0.00    -0.180 C  
HETATM   38  H   UNL     1     -12.150   6.119  70.660  1.00  0.00     0.000 HD 
HETATM   39  C   UNL     1     -10.081   4.944  69.756  1.00  0.00    -0.319 C  
HETATM   40  H   UNL     1      -8.869   9.547  71.564  1.00  0.00     0.000 HD 
HETATM   41  C   UNL     1     -10.267   6.814  68.124  1.00  0.00    -0.174 C  
BRANCH  37  42
HETATM   42  N   UNL     1     -10.393   7.124  71.920  1.00  0.00    -0.192 NA 
HETATM   43  H   UNL     1     -10.828   7.881  72.448  1.00  0.00     0.000 HD 
HETATM   44  C   UNL     1     -10.303   5.803  72.490  1.00  0.00    -0.198 C  
ENDBRANCH  37  42
ENDBRANCH  30  31
ENDBRANCH  10  30
ENDBRANCH   3   5
ENDBRANCH   2   3
TORSDOF 8
ENDMDL
MODEL      191
REMARK 921   NORMALIZED FREE ENERGY PREDICTED BY IDOCK:   -4.27 KCAL/MOL
REMARK 922        TOTAL FREE ENERGY PREDICTED BY IDOCK:   -7.01 KCAL/MOL
REMARK 923 INTER-LIGAND FREE ENERGY PREDICTED BY IDOCK:   -6.90 KCAL/MOL
REMARK 924 INTRA-LIGAND FREE ENERGY PREDICTED BY IDOCK:   -0.10 KCAL/MOL
REMARK 927      BINDING AFFINITY PREDICTED BY RF-SCORE:    0.00 PKD
ROOT
HETATM    1  C   UNL     1      -5.421   6.979  70.097  1.00  0.00    -0.023 C  
HETATM    2  C   UNL     1      -5.803   5.703  70.834  1.00  0.00    -0.024 C  
ENDROOT
BRANCH   2   3
HETATM    3  N   UNL     1      -7.079   5.188  70.326  1.00  0.00    -0.052 NA 
HETATM    4  H   UNL     1      -7.259   4.261  70.711  1.00  0.00     0.000 HD 
BRANCH   3   5
HETATM    5  C   UNL     1      -8.258   6.070  70.548  1.00  0.00    -0.113 C  
HETATM    6  C   UNL     1      -9.028   5.672  71.816  1.00  0.00    -0.142 C  
HETATM    7  C   UNL     1     -10.216   6.603  72.077  1.00  0.00    -0.188 C  
HETATM    8  C   UNL     1     -11.243   6.513  70.915  1.00  0.00    -0.311 C  
HETATM    9  N   UNL     1     -10.820   6.230  73.372  1.00  0.00    -0.394 NA 
HETATM   10  C   UNL     1      -9.160   6.197  69.286  1.00  0.00    -0.129 C  
HETATM   11  H2  UNL     1     -10.144   6.232  74.137  1.00  0.00     0.000 HD 
HETATM   12  H1  UNL     1     -11.611   6.850  73.546  1.00  0.00     0.000 HD 
HETATM   13  C   UNL     1     -10.572   6.763  69.538  1.00  0.00    -0.232 C  
HETATM   14  H   UNL     1     -10.973   6.381  67.619  1.00  0.00     0.000 HD 
HETATM   15  O   UNL     1     -11.384   6.228  68.461  1.00  0.00    -0.324 OA 
BRANCH   8  16
HETATM   16  O   UNL     1     -12.300   7.498  71.153  1.00  0.00    -0.320 OA 
BRANCH  16  17
HETATM   17  C   UNL     1     -11.829   8.761  71.677  1.00  0.00    -0.330 C  
HETATM   18  H1  UNL     1     -14.957   9.467  73.015  1.00  0.00     0.000 HD 
HETATM   19  O   UNL     1     -11.053   9.434  70.678  1.00  0.00    -0.248 OA 
HETATM   20  C   UNL     1     -11.709  10.379  69.920  1.00  0.00    -0.264 C  
HETATM   21  H2  UNL     1     -14.129   8.013  72.982  1.00  0.00     0.000 HD 
HETATM   22  N   UNL     1     -14.239   8.923  72.535  1.00  0.00    -0.564 NA 
HETATM   23  C   UNL     1     -12.648  11.164  70.465  1.00  0.00    -0.360 C  
HETATM   24  C   UNL     1     -12.931   9.596  72.414  1.00  0.00    -0.276 C  
HETATM   25  C   UNL     1     -13.021  11.037  71.901  1.00  0.00    -0.485 C  
BRANCH  20  26
HETATM   26  C   UNL     1     -11.205  10.461  68.498  1.00  0.00    -0.251 C  
HETATM   27  N   UNL     1      -9.937  11.169  68.331  1.00  0.00    -0.180 NA 
HETATM   28  H2  UNL     1      -9.224  10.760  68.934  1.00  0.00     0.000 HD 
HETATM   29  H1  UNL     1      -9.597  11.224  67.371  1.00  0.00     0.000 HD 
ENDBRANCH  20  26
ENDBRANCH  16  17
ENDBRANCH   8  16
BRANCH  10  30
HETATM   30  O   UNL     1      -8.489   6.824  68.138  1.00  0.00    -0.120 OA 
BRANCH  30  31
HETATM   31  C   UNL     1      -9.247   6.930  66.918  1.00  0.00    -0.145 C  
HETATM   32  O   UNL     1      -9.309   4.476  66.787  1.00  0.00    -0.130 OA 
HETATM   33  C   UNL     1      -7.571   7.014  64.512  1.00  0.00    -0.107 C  
HETATM   34  C   UNL     1      -9.233   5.666  65.984  1.00  0.00    -0.152 C  
HETATM   35  O   UNL     1      -8.846   8.096  66.215  1.00  0.00    -0.146 OA 
HETATM   36  O   UNL     1      -8.472   7.589  63.543  1.00  0.00    -0.370 OA 
HETATM   37  C   UNL     1      -8.064   5.587  64.949  1.00  0.00    -0.124 C  
HETATM   38  H   UNL     1      -8.507   7.014  62.786  1.00  0.00     0.000 HD 
HETATM   39  C   UNL     1      -6.193   6.973  63.848  1.00  0.00    -0.043 C  
HETATM   40  H   UNL     1      -9.301   3.713  66.222  1.00  0.00     0.000 HD 
HETATM   41  C   UNL     1      -7.515   7.934  65.724  1.00  0.00    -0.078 C  
BRANCH  37  42
HETATM   42  N   UNL     1      -8.403   4.820  63.716  1.00  0.00    -0.118 NA 
HETATM   43  H   UNL     1      -7.770   4.831  62.916  1.00  0.00     0.000 HD 
HETATM   44  C   UNL     1      -9.630   4.065  63.657  1.00  0.00    -0.156 C  
ENDBRANCH  37  42
ENDBRANCH  30  31
ENDBRANCH  10  30
ENDBRANCH   3   5
ENDBRANCH   2   3
TORSDOF 8
ENDMDL
MODEL      192
REMARK 921   NORMALIZED FREE ENERGY PREDICTED BY IDOCK:   -4.22 KCAL/MOL
REMARK 922        TOTAL FREE ENERGY PREDICTED BY IDOCK:   -6.94 KCAL/MOL
REMARK 923 INTER-LIGAND FREE ENERGY PREDICTED BY IDOCK:   -5.72 KCAL/MOL
REMARK 924 INTRA-LIGAND FREE ENERGY PREDICTED BY IDOCK:   -1.22 KCAL/MOL
REMARK 927      BINDING AFFINITY PREDICTED BY RF-SCORE:    0.00 PKD
ROOT
HETATM    1  C   UNL     1      -7.108   8.249  71.352  1.00  0.00    -0.067 C  
HETATM    2  C   UNL     1      -7.928   7.137  71.993  1.00  0.00    -0.092 C  
ENDROOT
BRANCH   2   3
HETATM    3  N   UNL     1      -9.319   7.204  71.533  1.00  0.00    -0.153 NA 
HETATM    4  H   UNL     1      -9.946   7.299  72.331  1.00  0.00     0.000 HD 
BRANCH   3   5
HETATM    5  C   UNL     1      -9.610   8.261  70.525  1.00  0.00    -0.167 C  
HETATM    6  C   UNL     1     -10.660   9.256  71.042  1.00  0.00    -0.386 C  
HETATM    7  C   UNL     1     -10.931  10.374  70.031  1.00  0.00    -0.308 C  
HETATM    8  C   UNL     1     -11.516   9.788  68.716  1.00  0.00     0.183 C  
HETATM    9  N   UNL     1     -11.850  11.348  70.653  1.00  0.00    -0.440 NA 
HETATM   10  C   UNL     1      -9.941   7.680  69.121  1.00  0.00    -0.181 C  
HETATM   11  H2  UNL     1     -11.504  11.701  71.546  1.00  0.00     0.000 HD 
HETATM   12  H1  UNL     1     -12.031  12.093  69.981  1.00  0.00     0.000 HD 
HETATM   13  C   UNL     1     -10.616   8.662  68.142  1.00  0.00    -0.133 C  
HETATM   14  H   UNL     1     -10.812   7.129  66.876  1.00  0.00     0.000 HD 
HETATM   15  O   UNL     1     -11.362   7.819  67.227  1.00  0.00     0.274 OA 
BRANCH   8  16
HETATM   16  O   UNL     1     -11.652  10.876  67.745  1.00  0.00    -0.523 OA 
BRANCH  16  17
HETATM   17  C   UNL     1     -10.430  11.608  67.495  1.00  0.00    -0.200 C  
HETATM   18  H1  UNL     1     -11.836  14.539  68.720  1.00  0.00     0.000 HD 
HETATM   19  O   UNL     1      -9.928  11.270  66.196  1.00  0.00    -0.213 OA 
HETATM   20  C   UNL     1     -10.252  12.126  65.167  1.00  0.00    -0.278 C  
HETATM   21  H2  UNL     1     -11.979  12.977  69.305  1.00  0.00     0.000 HD 
HETATM   22  N   UNL     1     -11.783  13.548  68.483  1.00  0.00    -0.336 NA 
HETATM   23  C   UNL     1     -10.320  13.448  65.370  1.00  0.00    -0.321 C  
HETATM   24  C   UNL     1     -10.512  13.129  67.859  1.00  0.00    -0.240 C  
HETATM   25  C   UNL     1     -10.055  14.036  66.712  1.00  0.00    -0.264 C  
BRANCH  20  26
HETATM   26  C   UNL     1     -10.435  11.426  63.840  1.00  0.00    -0.387 C  
HETATM   27  N   UNL     1      -9.570  11.903  62.764  1.00  0.00    -0.544 NA 
HETATM   28  H2  UNL     1      -8.593  11.860  63.052  1.00  0.00     0.000 HD 
HETATM   29  H1  UNL     1      -9.694  11.431  61.868  1.00  0.00     0.000 HD 
ENDBRANCH  20  26
ENDBRANCH  16  17
ENDBRANCH   8  16
BRANCH  10  30
HETATM   30  O   UNL     1      -8.828   6.938  68.509  1.00  0.00    -0.125 OA 
BRANCH  30  31
HETATM   31  C   UNL     1      -9.175   5.865  67.614  1.00  0.00    -0.104 C  
HETATM   32  O   UNL     1      -9.115   4.307  69.514  1.00  0.00    -0.098 OA 
HETATM   33  C   UNL     1      -6.842   4.525  66.444  1.00  0.00    -0.058 C  
HETATM   34  C   UNL     1      -8.833   4.413  68.108  1.00  0.00    -0.109 C  
HETATM   35  O   UNL     1      -8.615   6.120  66.335  1.00  0.00    -0.122 OA 
HETATM   36  O   UNL     1      -7.418   3.882  65.289  1.00  0.00    -0.078 OA 
HETATM   37  C   UNL     1      -7.399   3.890  67.769  1.00  0.00    -0.067 C  
HETATM   38  H   UNL     1      -7.199   2.957  65.319  1.00  0.00     0.000 HD 
HETATM   39  C   UNL     1      -5.326   4.363  66.316  1.00  0.00    -0.009 C  
HETATM   40  H   UNL     1      -8.908   3.430  69.812  1.00  0.00     0.000 HD 
HETATM   41  C   UNL     1      -7.193   6.007  66.395  1.00  0.00    -0.076 C  
BRANCH  37  42
HETATM   42  N   UNL     1      -7.316   2.406  67.636  1.00  0.00    -0.055 NA 
HETATM   43  H   UNL     1      -7.255   1.977  66.712  1.00  0.00     0.000 HD 
HETATM   44  C   UNL     1      -7.323   1.580  68.818  1.00  0.00    -0.042 C  
ENDBRANCH  37  42
ENDBRANCH  30  31
ENDBRANCH  10  30
ENDBRANCH   3   5
ENDBRANCH   2   3
TORSDOF 8
ENDMDL
MODEL      193
REMARK 921   NORMALIZED FREE ENERGY PREDICTED BY IDOCK:   -4.21 KCAL/MOL
REMARK 922        TOTAL FREE ENERGY PREDICTED BY IDOCK:   -6.92 KCAL/MOL
REMARK 923 INTER-LIGAND FREE ENERGY PREDICTED BY IDOCK:   -6.11 KCAL/MOL
REMARK 924 INTRA-LIGAND FREE ENERGY PREDICTED BY IDOCK:   -0.81 KCAL/MOL
REMARK 927      BINDING AFFINITY PREDICTED BY RF-SCORE:    0.00 PKD
ROOT
HETATM    1  C   UNL     1      -9.327  14.787  67.848  1.00  0.00    -0.193 C  
HETATM    2  C   UNL     1      -8.363  13.692  68.284  1.00  0.00    -0.165 C  
ENDROOT
BRANCH   2   3
HETATM    3  N   UNL     1      -9.102  12.572  68.873  1.00  0.00    -0.364 NA 
HETATM    4  H   UNL     1     -10.101  12.679  68.693  1.00  0.00     0.000 HD 
BRANCH   3   5
HETATM    5  C   UNL     1      -8.651  11.216  68.454  1.00  0.00    -0.152 C  
HETATM    6  C   UNL     1      -7.375  11.287  67.602  1.00  0.00    -0.100 C  
HETATM    7  C   UNL     1      -6.877   9.894  67.206  1.00  0.00    -0.083 C  
HETATM    8  C   UNL     1      -7.932   9.170  66.325  1.00  0.00    -0.103 C  
HETATM    9  N   UNL     1      -5.587  10.046  66.502  1.00  0.00    -0.045 NA 
HETATM   10  C   UNL     1      -9.788  10.378  67.802  1.00  0.00    -0.168 C  
HETATM   11  H2  UNL     1      -4.901  10.568  67.047  1.00  0.00     0.000 HD 
HETATM   12  H1  UNL     1      -5.256   9.119  66.238  1.00  0.00     0.000 HD 
HETATM   13  C   UNL     1      -9.324   9.140  67.009  1.00  0.00    -0.148 C  
HETATM   14  H   UNL     1     -11.228   8.892  66.453  1.00  0.00     0.000 HD 
HETATM   15  O   UNL     1     -10.375   8.910  66.035  1.00  0.00    -0.101 OA 
BRANCH   8  16
HETATM   16  O   UNL     1      -7.462   7.807  66.066  1.00  0.00    -0.075 OA 
BRANCH  16  17
HETATM   17  C   UNL     1      -7.291   7.000  67.253  1.00  0.00    -0.091 C  
HETATM   18  H1  UNL     1      -4.560   5.371  65.855  1.00  0.00     0.000 HD 
HETATM   19  O   UNL     1      -8.566   6.510  67.686  1.00  0.00    -0.117 OA 
HETATM   20  C   UNL     1      -8.908   5.238  67.282  1.00  0.00    -0.105 C  
HETATM   21  H2  UNL     1      -4.970   6.992  65.783  1.00  0.00     0.000 HD 
HETATM   22  N   UNL     1      -5.324   6.045  65.917  1.00  0.00    -0.012 NA 
HETATM   23  C   UNL     1      -7.982   4.274  67.196  1.00  0.00    -0.097 C  
HETATM   24  C   UNL     1      -6.119   5.966  67.159  1.00  0.00    -0.022 C  
HETATM   25  C   UNL     1      -6.555   4.544  67.526  1.00  0.00    -0.047 C  
BRANCH  20  26
HETATM   26  C   UNL     1     -10.389   5.065  67.037  1.00  0.00    -0.190 C  
HETATM   27  N   UNL     1     -10.802   5.172  65.639  1.00  0.00    -0.681 NA 
HETATM   28  H2  UNL     1     -10.271   4.517  65.065  1.00  0.00     0.000 HD 
HETATM   29  H1  UNL     1     -11.801   5.056  65.474  1.00  0.00     0.000 HD 
ENDBRANCH  20  26
ENDBRANCH  16  17
ENDBRANCH   8  16
BRANCH  10  30
HETATM   30  O   UNL     1     -10.906  10.088  68.713  1.00  0.00    -0.214 OA 
BRANCH  30  31
HETATM   31  C   UNL     1     -10.617  10.099  70.124  1.00  0.00    -0.281 C  
HETATM   32  O   UNL     1      -9.731   7.815  69.925  1.00  0.00    -0.174 OA 
HETATM   33  C   UNL     1     -12.827   9.096  71.772  1.00  0.00    -0.377 C  
HETATM   34  C   UNL     1     -10.450   8.694  70.807  1.00  0.00    -0.204 C  
HETATM   35  O   UNL     1     -11.588  10.888  70.796  1.00  0.00    -0.312 OA 
HETATM   36  O   UNL     1     -12.505   9.646  73.066  1.00  0.00     0.396 OA 
HETATM   37  C   UNL     1     -11.759   8.027  71.341  1.00  0.00    -0.287 C  
HETATM   38  H   UNL     1     -12.487   8.937  73.698  1.00  0.00     0.000 HD 
HETATM   39  C   UNL     1     -14.230   8.497  71.895  1.00  0.00    -0.536 C  
HETATM   40  H   UNL     1      -9.630   6.966  70.338  1.00  0.00     0.000 HD 
HETATM   41  C   UNL     1     -12.856  10.234  70.759  1.00  0.00    -0.344 C  
BRANCH  37  42
HETATM   42  N   UNL     1     -11.538   7.109  72.496  1.00  0.00    -0.427 NA 
HETATM   43  H   UNL     1     -12.024   6.212  72.537  1.00  0.00     0.000 HD 
HETATM   44  C   UNL     1     -10.637   7.493  73.554  1.00  0.00    -0.292 C  
ENDBRANCH  37  42
ENDBRANCH  30  31
ENDBRANCH  10  30
ENDBRANCH   3   5
ENDBRANCH   2   3
TORSDOF 8
ENDMDL
MODEL      194
REMARK 921   NORMALIZED FREE ENERGY PREDICTED BY IDOCK:   -4.18 KCAL/MOL
REMARK 922        TOTAL FREE ENERGY PREDICTED BY IDOCK:   -6.88 KCAL/MOL
REMARK 923 INTER-LIGAND FREE ENERGY PREDICTED BY IDOCK:   -7.53 KCAL/MOL
REMARK 924 INTRA-LIGAND FREE ENERGY PREDICTED BY IDOCK:    0.64 KCAL/MOL
REMARK 927      BINDING AFFINITY PREDICTED BY RF-SCORE:    0.00 PKD
ROOT
HETATM    1  C   UNL     1     -11.909  13.843  64.555  1.00  0.00    -0.449 C  
HETATM    2  C   UNL     1     -11.939  12.628  65.472  1.00  0.00    -0.456 C  
ENDROOT
BRANCH   2   3
HETATM    3  N   UNL     1     -10.584  12.103  65.662  1.00  0.00    -0.253 NA 
HETATM    4  H   UNL     1      -9.900  12.851  65.549  1.00  0.00     0.000 HD 
BRANCH   3   5
HETATM    5  C   UNL     1     -10.349  11.386  66.946  1.00  0.00    -0.227 C  
HETATM    6  C   UNL     1     -10.690   9.893  66.828  1.00  0.00    -0.154 C  
HETATM    7  C   UNL     1     -10.407   9.139  68.130  1.00  0.00    -0.216 C  
HETATM    8  C   UNL     1     -11.299   9.685  69.279  1.00  0.00     0.038 C  
HETATM    9  N   UNL     1     -10.641   7.700  67.893  1.00  0.00    -0.369 NA 
HETATM   10  C   UNL     1     -11.029  12.085  68.159  1.00  0.00    -0.230 C  
HETATM   11  H2  UNL     1     -10.102   7.339  67.105  1.00  0.00     0.000 HD 
HETATM   12  H1  UNL     1     -10.453   7.198  68.760  1.00  0.00     0.000 HD 
HETATM   13  C   UNL     1     -11.159  11.223  69.430  1.00  0.00    -0.257 C  
HETATM   14  H   UNL     1     -12.209  12.722  70.233  1.00  0.00     0.000 HD 
HETATM   15  O   UNL     1     -12.294  11.780  70.141  1.00  0.00    -0.262 OA 
BRANCH   8  16
HETATM   16  O   UNL     1     -10.915   9.014  70.523  1.00  0.00    -0.234 OA 
BRANCH  16  17
HETATM   17  C   UNL     1     -11.115   7.582  70.513  1.00  0.00    -0.259 C  
HETATM   18  H1  UNL     1     -14.245   7.926  71.980  1.00  0.00     0.000 HD 
HETATM   19  O   UNL     1      -9.924   6.929  70.968  1.00  0.00    -0.188 OA 
HETATM   20  C   UNL     1      -9.884   6.574  72.298  1.00  0.00    -0.156 C  
HETATM   21  H2  UNL     1     -13.534   8.857  70.785  1.00  0.00     0.000 HD 
HETATM   22  N   UNL     1     -13.362   8.225  71.567  1.00  0.00    -0.311 NA 
HETATM   23  C   UNL     1     -10.985   6.141  72.926  1.00  0.00    -0.294 C  
HETATM   24  C   UNL     1     -12.472   7.124  71.148  1.00  0.00    -0.359 C  
HETATM   25  C   UNL     1     -12.288   6.037  72.212  1.00  0.00    -0.042 C  
BRANCH  20  26
HETATM   26  C   UNL     1      -8.500   6.658  72.899  1.00  0.00    -0.118 C  
HETATM   27  N   UNL     1      -8.127   7.975  73.412  1.00  0.00    -0.175 NA 
HETATM   28  H2  UNL     1      -8.823   8.301  74.083  1.00  0.00     0.000 HD 
HETATM   29  H1  UNL     1      -7.193   8.033  73.818  1.00  0.00     0.000 HD 
ENDBRANCH  20  26
ENDBRANCH  16  17
ENDBRANCH   8  16
BRANCH  10  30
HETATM   30  O   UNL     1     -10.509  13.434  68.432  1.00  0.00    -0.239 OA 
BRANCH  30  31
HETATM   31  C   UNL     1     -10.918  14.484  67.535  1.00  0.00    -0.293 C  
HETATM   32  O   UNL     1      -8.704  14.390  66.473  1.00  0.00    -0.438 OA 
HETATM   33  C   UNL     1     -10.319  17.173  68.543  1.00  0.00    -0.364 C  
HETATM   34  C   UNL     1      -9.762  15.291  66.842  1.00  0.00    -0.233 C  
HETATM   35  O   UNL     1     -11.822  15.349  68.206  1.00  0.00    -0.339 OA 
HETATM   36  O   UNL     1     -11.215  17.989  67.760  1.00  0.00    -0.075 OA 
HETATM   37  C   UNL     1      -9.216  16.526  67.629  1.00  0.00    -0.200 C  
HETATM   38  H   UNL     1     -10.707  18.672  67.336  1.00  0.00     0.000 HD 
HETATM   39  C   UNL     1      -9.722  18.091  69.611  1.00  0.00     0.501 C  
HETATM   40  H   UNL     1      -8.005  14.878  66.054  1.00  0.00     0.000 HD 
HETATM   41  C   UNL     1     -11.133  16.079  69.221  1.00  0.00    -0.331 C  
BRANCH  37  42
HETATM   42  N   UNL     1      -8.658  17.598  66.755  1.00  0.00    -0.245 NA 
HETATM   43  H   UNL     1      -9.199  18.444  66.573  1.00  0.00     0.000 HD 
HETATM   44  C   UNL     1      -7.352  17.435  66.167  1.00  0.00    -0.296 C  
ENDBRANCH  37  42
ENDBRANCH  30  31
ENDBRANCH  10  30
ENDBRANCH   3   5
ENDBRANCH   2   3
TORSDOF 8
ENDMDL
MODEL      195
REMARK 921   NORMALIZED FREE ENERGY PREDICTED BY IDOCK:   -4.16 KCAL/MOL
REMARK 922        TOTAL FREE ENERGY PREDICTED BY IDOCK:   -6.85 KCAL/MOL
REMARK 923 INTER-LIGAND FREE ENERGY PREDICTED BY IDOCK:   -6.44 KCAL/MOL
REMARK 924 INTRA-LIGAND FREE ENERGY PREDICTED BY IDOCK:   -0.41 KCAL/MOL
REMARK 927      BINDING AFFINITY PREDICTED BY RF-SCORE:    0.00 PKD
ROOT
HETATM    1  C   UNL     1      -6.416  19.020  65.551  1.00  0.00    -0.306 C  
HETATM    2  C   UNL     1      -6.309  17.605  66.102  1.00  0.00    -0.239 C  
ENDROOT
BRANCH   2   3
HETATM    3  N   UNL     1      -7.406  16.778  65.590  1.00  0.00     0.498 NA 
HETATM    4  H   UNL     1      -7.040  15.893  65.237  1.00  0.00     0.000 HD 
BRANCH   3   5
HETATM    5  C   UNL     1      -8.518  16.525  66.546  1.00  0.00    -0.293 C  
HETATM    6  C   UNL     1      -9.171  17.836  67.009  1.00  0.00    -0.257 C  
HETATM    7  C   UNL     1     -10.347  17.584  67.957  1.00  0.00    -0.368 C  
HETATM    8  C   UNL     1      -9.859  16.876  69.251  1.00  0.00    -0.152 C  
HETATM    9  N   UNL     1     -10.991  18.880  68.252  1.00  0.00    -0.175 NA 
HETATM   10  C   UNL     1      -8.104  15.589  67.718  1.00  0.00    -0.141 C  
HETATM   11  H2  UNL     1     -11.267  19.382  67.408  1.00  0.00     0.000 HD 
HETATM   12  H1  UNL     1     -11.774  18.712  68.883  1.00  0.00     0.000 HD 
HETATM   13  C   UNL     1      -9.056  15.588  68.931  1.00  0.00    -0.219 C  
HETATM   14  H   UNL     1      -7.732  14.414  69.858  1.00  0.00     0.000 HD 
HETATM   15  O   UNL     1      -8.224  15.202  70.055  1.00  0.00     0.005 OA 
BRANCH   8  16
HETATM   16  O   UNL     1     -11.029  16.556  70.073  1.00  0.00    -0.350 OA 
BRANCH  16  17
HETATM   17  C   UNL     1     -10.978  15.253  70.699  1.00  0.00    -0.284 C  
HETATM   18  H1  UNL     1     -12.696  13.818  68.043  1.00  0.00     0.000 HD 
HETATM   19  O   UNL     1     -11.313  15.376  72.087  1.00  0.00    -0.434 OA 
HETATM   20  C   UNL     1     -12.622  15.117  72.432  1.00  0.00    -0.351 C  
HETATM   21  H2  UNL     1     -11.487  14.975  68.013  1.00  0.00     0.000 HD 
HETATM   22  N   UNL     1     -12.227  14.552  68.573  1.00  0.00    -0.201 NA 
HETATM   23  C   UNL     1     -13.315  14.153  71.813  1.00  0.00    -0.459 C  
HETATM   24  C   UNL     1     -11.698  14.126  69.884  1.00  0.00    -0.309 C  
HETATM   25  C   UNL     1     -12.701  13.335  70.730  1.00  0.00    -0.284 C  
BRANCH  20  26
HETATM   26  C   UNL     1     -13.116  15.961  73.583  1.00  0.00    -0.505 C  
HETATM   27  N   UNL     1     -12.232  17.059  73.970  1.00  0.00    -0.323 NA 
HETATM   28  H2  UNL     1     -12.028  17.648  73.163  1.00  0.00     0.000 HD 
HETATM   29  H1  UNL     1     -12.565  17.629  74.747  1.00  0.00     0.000 HD 
ENDBRANCH  20  26
ENDBRANCH  16  17
ENDBRANCH   8  16
BRANCH  10  30
HETATM   30  O   UNL     1      -7.723  14.235  67.288  1.00  0.00    -0.185 OA 
BRANCH  30  31
HETATM   31  C   UNL     1      -8.537  13.147  67.768  1.00  0.00    -0.188 C  
HETATM   32  O   UNL     1      -6.917  12.782  69.580  1.00  0.00    -0.321 OA 
HETATM   33  C   UNL     1      -7.814  10.554  66.602  1.00  0.00    -0.125 C  
HETATM   34  C   UNL     1      -7.815  12.098  68.689  1.00  0.00    -0.078 C  
HETATM   35  O   UNL     1      -9.172  12.515  66.667  1.00  0.00    -0.222 OA 
HETATM   36  O   UNL     1      -9.008   9.780  66.836  1.00  0.00    -0.136 OA 
HETATM   37  C   UNL     1      -7.108  10.910  67.960  1.00  0.00    -0.077 C  
HETATM   38  H   UNL     1      -8.765   8.982  67.292  1.00  0.00     0.000 HD 
HETATM   39  C   UNL     1      -6.923   9.706  65.691  1.00  0.00    -0.096 C  
HETATM   40  H   UNL     1      -6.481  12.148  70.137  1.00  0.00     0.000 HD 
HETATM   41  C   UNL     1      -8.203  11.832  65.871  1.00  0.00     0.360 C  
BRANCH  37  42
HETATM   42  N   UNL     1      -7.028   9.665  68.776  1.00  0.00    -0.065 NA 
HETATM   43  H   UNL     1      -6.517   8.854  68.425  1.00  0.00     0.000 HD 
HETATM   44  C   UNL     1      -7.677   9.609  70.063  1.00  0.00    -0.157 C  
ENDBRANCH  37  42
ENDBRANCH  30  31
ENDBRANCH  10  30
ENDBRANCH   3   5
ENDBRANCH   2   3
TORSDOF 8
ENDMDL
MODEL      196
REMARK 921   NORMALIZED FREE ENERGY PREDICTED BY IDOCK:   -4.14 KCAL/MOL
REMARK 922        TOTAL FREE ENERGY PREDICTED BY IDOCK:   -6.82 KCAL/MOL
REMARK 923 INTER-LIGAND FREE ENERGY PREDICTED BY IDOCK:   -5.89 KCAL/MOL
REMARK 924 INTRA-LIGAND FREE ENERGY PREDICTED BY IDOCK:   -0.92 KCAL/MOL
REMARK 927      BINDING AFFINITY PREDICTED BY RF-SCORE:    0.00 PKD
ROOT
HETATM    1  C   UNL     1      -7.308   4.330  71.876  1.00  0.00    -0.068 C  
HETATM    2  C   UNL     1      -8.429   3.299  71.881  1.00  0.00    -0.073 C  
ENDROOT
BRANCH   2   3
HETATM    3  N   UNL     1      -9.594   3.814  71.155  1.00  0.00    -0.166 NA 
HETATM    4  H   UNL     1     -10.429   3.737  71.736  1.00  0.00     0.000 HD 
BRANCH   3   5
HETATM    5  C   UNL     1      -9.461   5.203  70.634  1.00  0.00    -0.170 C  
HETATM    6  C   UNL     1      -9.986   6.235  71.644  1.00  0.00    -0.202 C  
HETATM    7  C   UNL     1      -9.810   7.669  71.136  1.00  0.00    -0.173 C  
HETATM    8  C   UNL     1     -10.634   7.891  69.838  1.00  0.00    -0.242 C  
HETATM    9  N   UNL     1     -10.221   8.595  72.212  1.00  0.00    -0.322 NA 
HETATM   10  C   UNL     1     -10.056   5.371  69.207  1.00  0.00    -0.231 C  
HETATM   11  H2  UNL     1      -9.727   8.424  73.088  1.00  0.00     0.000 HD 
HETATM   12  H1  UNL     1     -10.104   9.549  71.874  1.00  0.00     0.000 HD 
HETATM   13  C   UNL     1     -10.303   6.826  68.761  1.00  0.00    -0.196 C  
HETATM   14  H   UNL     1     -11.162   6.084  67.116  1.00  0.00     0.000 HD 
HETATM   15  O   UNL     1     -11.364   6.736  67.776  1.00  0.00    -0.178 OA 
BRANCH   8  16
HETATM   16  O   UNL     1     -10.347   9.235  69.332  1.00  0.00    -0.201 OA 
BRANCH  16  17
HETATM   17  C   UNL     1      -9.457   9.264  68.192  1.00  0.00    -0.138 C  
HETATM   18  H1  UNL     1      -6.826  10.375  70.170  1.00  0.00     0.000 HD 
HETATM   19  O   UNL     1     -10.125   9.869  67.078  1.00  0.00    -0.195 OA 
HETATM   20  C   UNL     1      -9.887  11.210  66.870  1.00  0.00    -0.194 C  
HETATM   21  H2  UNL     1      -7.991   9.224  70.516  1.00  0.00     0.000 HD 
HETATM   22  N   UNL     1      -7.767  10.045  69.954  1.00  0.00    -0.166 NA 
HETATM   23  C   UNL     1      -8.676  11.735  67.098  1.00  0.00    -0.169 C  
HETATM   24  C   UNL     1      -8.013   9.770  68.524  1.00  0.00    -0.089 C  
HETATM   25  C   UNL     1      -7.551  10.892  67.589  1.00  0.00    -0.096 C  
BRANCH  20  26
HETATM   26  C   UNL     1     -11.080  11.951  66.312  1.00  0.00    -0.314 C  
HETATM   27  N   UNL     1     -12.099  12.312  67.295  1.00  0.00    -0.517 NA 
HETATM   28  H2  UNL     1     -11.680  12.845  68.057  1.00  0.00     0.000 HD 
HETATM   29  H1  UNL     1     -12.905  12.812  66.919  1.00  0.00     0.000 HD 
ENDBRANCH  20  26
ENDBRANCH  16  17
ENDBRANCH   8  16
BRANCH  10  30
HETATM   30  O   UNL     1      -9.372   4.566  68.182  1.00  0.00    -0.125 OA 
BRANCH  30  31
HETATM   31  C   UNL     1      -8.943   5.256  66.992  1.00  0.00    -0.112 C  
HETATM   32  O   UNL     1     -11.101   4.717  65.946  1.00  0.00    -0.738 OA 
HETATM   33  C   UNL     1      -7.577   3.513  65.068  1.00  0.00    -0.077 C  
HETATM   34  C   UNL     1      -9.700   4.883  65.667  1.00  0.00    -0.145 C  
HETATM   35  O   UNL     1      -7.539   5.108  66.845  1.00  0.00    -0.086 OA 
HETATM   36  O   UNL     1      -6.855   4.468  64.263  1.00  0.00    -0.043 OA 
HETATM   37  C   UNL     1      -9.127   3.672  64.862  1.00  0.00    -0.136 C  
HETATM   38  H   UNL     1      -7.076   4.320  63.351  1.00  0.00     0.000 HD 
HETATM   39  C   UNL     1      -7.075   2.130  64.649  1.00  0.00    -0.052 C  
HETATM   40  H   UNL     1     -11.558   4.492  65.144  1.00  0.00     0.000 HD 
HETATM   41  C   UNL     1      -7.224   3.751  66.531  1.00  0.00    -0.068 C  
BRANCH  37  42
HETATM   42  N   UNL     1      -9.389   3.744  63.396  1.00  0.00    -0.116 NA 
HETATM   43  H   UNL     1      -9.134   4.581  62.871  1.00  0.00     0.000 HD 
HETATM   44  C   UNL     1     -10.006   2.627  62.723  1.00  0.00    -0.094 C  
ENDBRANCH  37  42
ENDBRANCH  30  31
ENDBRANCH  10  30
ENDBRANCH   3   5
ENDBRANCH   2   3
TORSDOF 8
ENDMDL
MODEL      197
REMARK 921   NORMALIZED FREE ENERGY PREDICTED BY IDOCK:   -4.13 KCAL/MOL
REMARK 922        TOTAL FREE ENERGY PREDICTED BY IDOCK:   -6.80 KCAL/MOL
REMARK 923 INTER-LIGAND FREE ENERGY PREDICTED BY IDOCK:   -5.98 KCAL/MOL
REMARK 924 INTRA-LIGAND FREE ENERGY PREDICTED BY IDOCK:   -0.82 KCAL/MOL
REMARK 927      BINDING AFFINITY PREDICTED BY RF-SCORE:    0.00 PKD
ROOT
HETATM    1  C   UNL     1      -8.670  10.487  62.331  1.00  0.00    -0.281 C  
HETATM    2  C   UNL     1      -8.677  10.590  63.850  1.00  0.00    -0.171 C  
ENDROOT
BRANCH   2   3
HETATM    3  N   UNL     1      -9.899   9.989  64.392  1.00  0.00    -0.392 NA 
HETATM    4  H   UNL     1      -9.723   9.021  64.661  1.00  0.00     0.000 HD 
BRANCH   3   5
HETATM    5  C   UNL     1     -10.528  10.726  65.522  1.00  0.00    -0.194 C  
HETATM    6  C   UNL     1     -11.226  12.006  65.039  1.00  0.00    -0.374 C  
HETATM    7  C   UNL     1     -11.917  12.747  66.188  1.00  0.00    -0.414 C  
HETATM    8  C   UNL     1     -10.873  13.208  67.242  1.00  0.00    -0.257 C  
HETATM    9  N   UNL     1     -12.663  13.889  65.621  1.00  0.00    -0.545 NA 
HETATM   10  C   UNL     1      -9.549  10.961  66.707  1.00  0.00    -0.183 C  
HETATM   11  H2  UNL     1     -13.315  13.607  64.888  1.00  0.00     0.000 HD 
HETATM   12  H1  UNL     1     -13.123  14.382  66.386  1.00  0.00     0.000 HD 
HETATM   13  C   UNL     1      -9.992  12.028  67.729  1.00  0.00    -0.195 C  
HETATM   14  H   UNL     1      -8.218  11.788  68.617  1.00  0.00     0.000 HD 
HETATM   15  O   UNL     1      -8.758  12.511  68.319  1.00  0.00    -0.183 OA 
BRANCH   8  16
HETATM   16  O   UNL     1     -11.588  13.810  68.370  1.00  0.00    -0.291 OA 
BRANCH  16  17
HETATM   17  C   UNL     1     -10.729  14.396  69.375  1.00  0.00    -0.162 C  
HETATM   18  H1  UNL     1     -13.293  14.338  71.719  1.00  0.00     0.000 HD 
HETATM   19  O   UNL     1      -9.995  15.484  68.802  1.00  0.00    -0.200 OA 
HETATM   20  C   UNL     1     -10.513  16.747  68.994  1.00  0.00    -0.336 C  
HETATM   21  H2  UNL     1     -12.878  13.181  70.582  1.00  0.00     0.000 HD 
HETATM   22  N   UNL     1     -12.831  14.171  70.825  1.00  0.00    -0.329 NA 
HETATM   23  C   UNL     1     -11.113  17.074  70.146  1.00  0.00     0.463 C  
HETATM   24  C   UNL     1     -11.437  14.651  70.748  1.00  0.00    -0.182 C  
HETATM   25  C   UNL     1     -11.248  16.086  71.252  1.00  0.00    -0.281 C  
BRANCH  20  26
HETATM   26  C   UNL     1     -10.261  17.680  67.833  1.00  0.00    -0.357 C  
HETATM   27  N   UNL     1     -10.313  17.054  66.513  1.00  0.00    -0.312 NA 
HETATM   28  H2  UNL     1     -11.202  16.569  66.389  1.00  0.00     0.000 HD 
HETATM   29  H1  UNL     1     -10.144  17.684  65.729  1.00  0.00     0.000 HD 
ENDBRANCH  20  26
ENDBRANCH  16  17
ENDBRANCH   8  16
BRANCH  10  30
HETATM   30  O   UNL     1      -9.079   9.721  67.343  1.00  0.00    -0.134 OA 
BRANCH  30  31
HETATM   31  C   UNL     1      -7.666   9.450  67.277  1.00  0.00    -0.091 C  
HETATM   32  O   UNL     1      -8.170   7.224  66.366  1.00  0.00    -0.110 OA 
HETATM   33  C   UNL     1      -6.605   8.210  69.715  1.00  0.00    -0.037 C  
HETATM   34  C   UNL     1      -7.254   7.935  67.215  1.00  0.00    -0.090 C  
HETATM   35  O   UNL     1      -7.009  10.121  68.342  1.00  0.00    -0.065 OA 
HETATM   36  O   UNL     1      -5.194   8.489  69.599  1.00  0.00    -0.029 OA 
HETATM   37  C   UNL     1      -7.067   7.215  68.590  1.00  0.00    -0.085 C  
HETATM   38  H   UNL     1      -4.718   7.670  69.678  1.00  0.00     0.000 HD 
HETATM   39  C   UNL     1      -6.818   7.639  71.118  1.00  0.00    -0.049 C  
HETATM   40  H   UNL     1      -7.921   6.309  66.328  1.00  0.00     0.000 HD 
HETATM   41  C   UNL     1      -7.367   9.522  69.588  1.00  0.00    -0.084 C  
BRANCH  37  42
HETATM   42  N   UNL     1      -6.096   6.084  68.550  1.00  0.00    -0.020 NA 
HETATM   43  H   UNL     1      -5.792   5.639  69.416  1.00  0.00     0.000 HD 
HETATM   44  C   UNL     1      -5.586   5.622  67.282  1.00  0.00    -0.012 C  
ENDBRANCH  37  42
ENDBRANCH  30  31
ENDBRANCH  10  30
ENDBRANCH   3   5
ENDBRANCH   2   3
TORSDOF 8
ENDMDL
MODEL      198
REMARK 921   NORMALIZED FREE ENERGY PREDICTED BY IDOCK:   -4.07 KCAL/MOL
REMARK 922        TOTAL FREE ENERGY PREDICTED BY IDOCK:   -6.72 KCAL/MOL
REMARK 923 INTER-LIGAND FREE ENERGY PREDICTED BY IDOCK:   -5.48 KCAL/MOL
REMARK 924 INTRA-LIGAND FREE ENERGY PREDICTED BY IDOCK:   -1.24 KCAL/MOL
REMARK 927      BINDING AFFINITY PREDICTED BY RF-SCORE:    0.00 PKD
ROOT
HETATM    1  C   UNL     1      -9.079   5.221  65.625  1.00  0.00    -0.158 C  
HETATM    2  C   UNL     1      -8.313   6.498  65.309  1.00  0.00    -0.121 C  
ENDROOT
BRANCH   2   3
HETATM    3  N   UNL     1      -7.605   6.973  66.502  1.00  0.00    -0.087 NA 
HETATM    4  H   UNL     1      -6.606   7.044  66.310  1.00  0.00     0.000 HD 
BRANCH   3   5
HETATM    5  C   UNL     1      -8.106   8.252  67.077  1.00  0.00    -0.104 C  
HETATM    6  C   UNL     1      -8.251   9.335  65.997  1.00  0.00    -0.111 C  
HETATM    7  C   UNL     1      -8.810  10.640  66.571  1.00  0.00    -0.151 C  
HETATM    8  C   UNL     1      -7.838  11.229  67.630  1.00  0.00    -0.116 C  
HETATM    9  N   UNL     1      -9.036  11.579  65.452  1.00  0.00    -0.398 NA 
HETATM   10  C   UNL     1      -7.289   8.716  68.317  1.00  0.00    -0.087 C  
HETATM   11  H2  UNL     1      -9.629  11.185  64.722  1.00  0.00     0.000 HD 
HETATM   12  H1  UNL     1      -9.408  12.447  65.834  1.00  0.00     0.000 HD 
HETATM   13  C   UNL     1      -7.490  10.189  68.727  1.00  0.00    -0.086 C  
HETATM   14  H   UNL     1      -6.052   9.915  70.087  1.00  0.00     0.000 HD 
HETATM   15  O   UNL     1      -6.265  10.552  69.415  1.00  0.00    -0.042 OA 
BRANCH   8  16
HETATM   16  O   UNL     1      -8.464  12.410  68.228  1.00  0.00    -0.171 OA 
BRANCH  16  17
HETATM   17  C   UNL     1      -8.081  13.662  67.614  1.00  0.00    -0.177 C  
HETATM   18  H1  UNL     1      -6.335  14.619  70.460  1.00  0.00     0.000 HD 
HETATM   19  O   UNL     1      -9.217  14.242  66.961  1.00  0.00    -0.218 OA 
HETATM   20  C   UNL     1      -9.918  15.193  67.670  1.00  0.00    -0.229 C  
HETATM   21  H2  UNL     1      -6.415  13.116  69.729  1.00  0.00     0.000 HD 
HETATM   22  N   UNL     1      -6.887  14.011  69.855  1.00  0.00     0.001 NA 
HETATM   23  C   UNL     1      -9.282  16.058  68.472  1.00  0.00    -0.206 C  
HETATM   24  C   UNL     1      -7.235  14.595  68.544  1.00  0.00    -0.118 C  
HETATM   25  C   UNL     1      -7.802  16.016  68.630  1.00  0.00    -0.179 C  
BRANCH  20  26
HETATM   26  C   UNL     1     -11.401  15.183  67.382  1.00  0.00    -0.306 C  
HETATM   27  N   UNL     1     -12.146  14.092  68.009  1.00  0.00    -0.545 NA 
HETATM   28  H2  UNL     1     -11.983  14.089  69.016  1.00  0.00     0.000 HD 
HETATM   29  H1  UNL     1     -13.147  14.085  67.815  1.00  0.00     0.000 HD 
ENDBRANCH  20  26
ENDBRANCH  16  17
ENDBRANCH   8  16
BRANCH  10  30
HETATM   30  O   UNL     1      -7.364   7.789  69.456  1.00  0.00    -0.083 OA 
BRANCH  30  31
HETATM   31  C   UNL     1      -8.529   7.887  70.298  1.00  0.00    -0.128 C  
HETATM   32  O   UNL     1      -7.058   7.926  72.267  1.00  0.00    -0.070 OA 
HETATM   33  C   UNL     1      -9.578   5.278  71.137  1.00  0.00    -0.163 C  
HETATM   34  C   UNL     1      -8.335   7.461  71.799  1.00  0.00    -0.107 C  
HETATM   35  O   UNL     1      -9.604   7.182  69.696  1.00  0.00    -0.155 OA 
HETATM   36  O   UNL     1     -10.930   5.610  71.516  1.00  0.00    -0.252 OA 
HETATM   37  C   UNL     1      -8.547   5.945  72.117  1.00  0.00    -0.129 C  
HETATM   38  H   UNL     1     -11.079   5.298  72.401  1.00  0.00     0.000 HD 
HETATM   39  C   UNL     1      -9.489   3.751  71.153  1.00  0.00    -0.236 C  
HETATM   40  H   UNL     1      -6.942   7.669  73.174  1.00  0.00     0.000 HD 
HETATM   41  C   UNL     1      -9.339   5.779  69.718  1.00  0.00    -0.147 C  
BRANCH  37  42
HETATM   42  N   UNL     1      -9.004   5.682  73.512  1.00  0.00    -0.125 NA 
HETATM   43  H   UNL     1      -8.903   4.751  73.918  1.00  0.00     0.000 HD 
HETATM   44  C   UNL     1      -9.592   6.748  74.286  1.00  0.00    -0.275 C  
ENDBRANCH  37  42
ENDBRANCH  30  31
ENDBRANCH  10  30
ENDBRANCH   3   5
ENDBRANCH   2   3
TORSDOF 8
ENDMDL
MODEL      199
REMARK 921   NORMALIZED FREE ENERGY PREDICTED BY IDOCK:   -4.01 KCAL/MOL
REMARK 922        TOTAL FREE ENERGY PREDICTED BY IDOCK:   -6.63 KCAL/MOL
REMARK 923 INTER-LIGAND FREE ENERGY PREDICTED BY IDOCK:   -6.67 KCAL/MOL
REMARK 924 INTRA-LIGAND FREE ENERGY PREDICTED BY IDOCK:    0.04 KCAL/MOL
REMARK 927      BINDING AFFINITY PREDICTED BY RF-SCORE:    0.00 PKD
ROOT
HETATM    1  C   UNL     1     -12.140   7.465  72.166  1.00  0.00    -0.289 C  
HETATM    2  C   UNL     1     -11.891   8.907  71.745  1.00  0.00    -0.358 C  
ENDROOT
BRANCH   2   3
HETATM    3  N   UNL     1     -11.460   8.958  70.345  1.00  0.00    -0.408 NA 
HETATM    4  H   UNL     1     -12.218   8.652  69.735  1.00  0.00     0.000 HD 
BRANCH   3   5
HETATM    5  C   UNL     1     -10.934  10.273  69.885  1.00  0.00    -0.303 C  
HETATM    6  C   UNL     1     -12.053  11.320  69.779  1.00  0.00    -0.394 C  
HETATM    7  C   UNL     1     -11.514  12.688  69.352  1.00  0.00    -0.266 C  
HETATM    8  C   UNL     1     -10.879  12.605  67.936  1.00  0.00    -0.219 C  
HETATM    9  N   UNL     1     -12.626  13.659  69.397  1.00  0.00    -0.164 NA 
HETATM   10  C   UNL     1     -10.066  10.158  68.599  1.00  0.00    -0.172 C  
HETATM   11  H2  UNL     1     -13.088  13.685  70.306  1.00  0.00     0.000 HD 
HETATM   12  H1  UNL     1     -12.267  14.570  69.113  1.00  0.00     0.000 HD 
HETATM   13  C   UNL     1      -9.810  11.484  67.854  1.00  0.00    -0.185 C  
HETATM   14  H   UNL     1      -8.918  10.408  66.427  1.00  0.00     0.000 HD 
HETATM   15  O   UNL     1      -9.572  11.094  66.477  1.00  0.00    -0.189 OA 
BRANCH   8  16
HETATM   16  O   UNL     1     -10.281  13.904  67.620  1.00  0.00    -0.237 OA 
BRANCH  16  17
HETATM   17  C   UNL     1      -9.670  14.569  68.749  1.00  0.00    -0.210 C  
HETATM   18  H1  UNL     1     -11.746  17.326  68.355  1.00  0.00     0.000 HD 
HETATM   19  O   UNL     1      -8.245  14.438  68.669  1.00  0.00    -0.147 OA 
HETATM   20  C   UNL     1      -7.559  15.493  68.108  1.00  0.00    -0.120 C  
HETATM   21  H2  UNL     1     -12.117  15.700  68.217  1.00  0.00     0.000 HD 
HETATM   22  N   UNL     1     -11.372  16.395  68.169  1.00  0.00    -0.281 NA 
HETATM   23  C   UNL     1      -7.954  16.756  68.315  1.00  0.00    -0.200 C  
HETATM   24  C   UNL     1     -10.244  15.998  69.034  1.00  0.00    -0.236 C  
HETATM   25  C   UNL     1      -9.148  17.062  69.150  1.00  0.00    -0.058 C  
BRANCH  20  26
HETATM   26  C   UNL     1      -6.331  15.067  67.337  1.00  0.00     0.060 C  
HETATM   27  N   UNL     1      -5.964  13.660  67.488  1.00  0.00    -0.344 NA 
HETATM   28  H2  UNL     1      -6.755  13.062  67.249  1.00  0.00     0.000 HD 
HETATM   29  H1  UNL     1      -5.135  13.372  66.967  1.00  0.00     0.000 HD 
ENDBRANCH  20  26
ENDBRANCH  16  17
ENDBRANCH   8  16
BRANCH  10  30
HETATM   30  O   UNL     1      -8.845   9.358  68.778  1.00  0.00    -0.129 OA 
BRANCH  30  31
HETATM   31  C   UNL     1      -8.564   8.364  67.774  1.00  0.00    -0.130 C  
HETATM   32  O   UNL     1     -10.960   8.290  67.230  1.00  0.00    -0.474 OA 
HETATM   33  C   UNL     1      -8.712   5.614  68.787  1.00  0.00    -0.106 C  
HETATM   34  C   UNL     1      -9.779   7.475  67.323  1.00  0.00    -0.167 C  
HETATM   35  O   UNL     1      -7.469   7.566  68.197  1.00  0.00    -0.099 OA 
HETATM   36  O   UNL     1      -7.952   4.892  67.796  1.00  0.00    -0.093 OA 
HETATM   37  C   UNL     1     -10.038   6.183  68.163  1.00  0.00    -0.157 C  
HETATM   38  H   UNL     1      -8.486   4.178  67.469  1.00  0.00     0.000 HD 
HETATM   39  C   UNL     1      -8.982   4.628  69.925  1.00  0.00    -0.144 C  
HETATM   40  H   UNL     1     -11.694   7.753  66.957  1.00  0.00     0.000 HD 
HETATM   41  C   UNL     1      -7.855   6.760  69.310  1.00  0.00    -0.110 C  
BRANCH  37  42
HETATM   42  N   UNL     1     -10.690   5.085  67.393  1.00  0.00    -0.056 NA 
HETATM   43  H   UNL     1     -11.480   4.578  67.793  1.00  0.00     0.000 HD 
HETATM   44  C   UNL     1     -10.199   4.740  66.082  1.00  0.00    -0.281 C  
ENDBRANCH  37  42
ENDBRANCH  30  31
ENDBRANCH  10  30
ENDBRANCH   3   5
ENDBRANCH   2   3
TORSDOF 8
ENDMDL
MODEL      200
REMARK 921   NORMALIZED FREE ENERGY PREDICTED BY IDOCK:   -3.99 KCAL/MOL
REMARK 922        TOTAL FREE ENERGY PREDICTED BY IDOCK:   -6.59 KCAL/MOL
REMARK 923 INTER-LIGAND FREE ENERGY PREDICTED BY IDOCK:   -7.47 KCAL/MOL
REMARK 924 INTRA-LIGAND FREE ENERGY PREDICTED BY IDOCK:    0.88 KCAL/MOL
REMARK 927      BINDING AFFINITY PREDICTED BY RF-SCORE:    0.00 PKD
ROOT
HETATM    1  C   UNL     1      -9.852  19.308  65.792  1.00  0.00    -0.045 C  
HETATM    2  C   UNL     1     -11.083  18.429  65.621  1.00  0.00     0.540 C  
ENDROOT
BRANCH   2   3
HETATM    3  N   UNL     1     -10.705  17.132  65.052  1.00  0.00    -0.681 NA 
HETATM    4  H   UNL     1      -9.898  17.242  64.438  1.00  0.00     0.000 HD 
BRANCH   3   5
HETATM    5  C   UNL     1     -10.449  16.049  66.041  1.00  0.00    -0.345 C  
HETATM    6  C   UNL     1     -11.142  14.740  65.633  1.00  0.00    -0.342 C  
HETATM    7  C   UNL     1     -10.846  13.607  66.620  1.00  0.00    -0.283 C  
HETATM    8  C   UNL     1     -11.399  13.956  68.030  1.00  0.00    -0.288 C  
HETATM    9  N   UNL     1     -11.441  12.364  66.091  1.00  0.00    -0.359 NA 
HETATM   10  C   UNL     1     -10.753  16.484  67.503  1.00  0.00    -0.283 C  
HETATM   11  H2  UNL     1     -11.129  12.151  65.143  1.00  0.00     0.000 HD 
HETATM   12  H1  UNL     1     -11.244  11.609  66.748  1.00  0.00     0.000 HD 
HETATM   13  C   UNL     1     -10.883  15.334  68.522  1.00  0.00    -0.253 C  
HETATM   14  H   UNL     1     -11.420  16.706  69.871  1.00  0.00     0.000 HD 
HETATM   15  O   UNL     1     -11.735  15.862  69.570  1.00  0.00    -0.342 OA 
BRANCH   8  16
HETATM   16  O   UNL     1     -10.995  12.899  68.960  1.00  0.00    -0.246 OA 
BRANCH  16  17
HETATM   17  C   UNL     1     -11.989  11.867  69.156  1.00  0.00    -0.276 C  
HETATM   18  H1  UNL     1     -12.769  13.098  72.309  1.00  0.00     0.000 HD 
HETATM   19  O   UNL     1     -11.455  10.604  68.738  1.00  0.00    -0.266 OA 
HETATM   20  C   UNL     1     -10.920   9.803  69.724  1.00  0.00    -0.256 C  
HETATM   21  H2  UNL     1     -12.448  13.940  70.899  1.00  0.00     0.000 HD 
HETATM   22  N   UNL     1     -12.307  13.063  71.400  1.00  0.00    -0.140 NA 
HETATM   23  C   UNL     1     -11.471   9.757  70.944  1.00  0.00    -0.447 C  
HETATM   24  C   UNL     1     -12.697  11.920  70.551  1.00  0.00    -0.023 C  
HETATM   25  C   UNL     1     -12.672  10.572  71.278  1.00  0.00    -0.532 C  
BRANCH  20  26
HETATM   26  C   UNL     1      -9.747   8.977  69.252  1.00  0.00    -0.168 C  
HETATM   27  N   UNL     1      -9.280   9.279  67.900  1.00  0.00    -0.130 NA 
HETATM   28  H2  UNL     1      -9.067  10.273  67.816  1.00  0.00     0.000 HD 
HETATM   29  H1  UNL     1      -8.488   8.721  67.582  1.00  0.00     0.000 HD 
ENDBRANCH  20  26
ENDBRANCH  16  17
ENDBRANCH   8  16
BRANCH  10  30
HETATM   30  O   UNL     1      -9.898  17.580  67.985  1.00  0.00    -0.275 OA 
BRANCH  30  31
HETATM   31  C   UNL     1      -8.690  17.209  68.675  1.00  0.00    -0.266 C  
HETATM   32  O   UNL     1      -8.448  19.535  69.430  1.00  0.00    -0.141 OA 
HETATM   33  C   UNL     1      -6.277  17.495  67.029  1.00  0.00    -0.162 C  
HETATM   34  C   UNL     1      -7.699  18.381  69.014  1.00  0.00    -0.139 C  
HETATM   35  O   UNL     1      -8.038  16.174  67.955  1.00  0.00    -0.143 OA 
HETATM   36  O   UNL     1      -5.342  16.644  67.724  1.00  0.00    -0.110 OA 
HETATM   37  C   UNL     1      -6.653  18.741  67.909  1.00  0.00    -0.214 C  
HETATM   38  H   UNL     1      -4.561  17.150  67.916  1.00  0.00     0.000 HD 
HETATM   39  C   UNL     1      -5.603  17.895  65.716  1.00  0.00    -0.216 C  
HETATM   40  H   UNL     1      -7.849  20.243  69.636  1.00  0.00     0.000 HD 
HETATM   41  C   UNL     1      -7.530  16.684  66.722  1.00  0.00    -0.254 C  
BRANCH  37  42
HETATM   42  N   UNL     1      -5.389  19.323  68.445  1.00  0.00    -0.190 NA 
HETATM   43  H   UNL     1      -4.679  19.681  67.806  1.00  0.00     0.000 HD 
HETATM   44  C   UNL     1      -5.172  19.376  69.870  1.00  0.00    -0.201 C  
ENDBRANCH  37  42
ENDBRANCH  30  31
ENDBRANCH  10  30
ENDBRANCH   3   5
ENDBRANCH   2   3
TORSDOF 8
ENDMDL
MODEL      201
REMARK 921   NORMALIZED FREE ENERGY PREDICTED BY IDOCK:   -3.98 KCAL/MOL
REMARK 922        TOTAL FREE ENERGY PREDICTED BY IDOCK:   -6.58 KCAL/MOL
REMARK 923 INTER-LIGAND FREE ENERGY PREDICTED BY IDOCK:   -5.52 KCAL/MOL
REMARK 924 INTRA-LIGAND FREE ENERGY PREDICTED BY IDOCK:   -1.06 KCAL/MOL
REMARK 927      BINDING AFFINITY PREDICTED BY RF-SCORE:    0.00 PKD
ROOT
HETATM    1  C   UNL     1      -8.976  13.460  68.235  1.00  0.00    -0.176 C  
HETATM    2  C   UNL     1      -7.901  12.443  68.594  1.00  0.00    -0.049 C  
ENDROOT
BRANCH   2   3
HETATM    3  N   UNL     1      -8.517  11.190  69.040  1.00  0.00    -0.345 NA 
HETATM    4  H   UNL     1      -9.523  11.316  69.151  1.00  0.00     0.000 HD 
BRANCH   3   5
HETATM    5  C   UNL     1      -8.243  10.002  68.185  1.00  0.00    -0.109 C  
HETATM    6  C   UNL     1      -7.800  10.416  66.773  1.00  0.00    -0.117 C  
HETATM    7  C   UNL     1      -7.471   9.201  65.901  1.00  0.00    -0.094 C  
HETATM    8  C   UNL     1      -8.731   8.314  65.705  1.00  0.00    -0.166 C  
HETATM    9  N   UNL     1      -6.938   9.687  64.612  1.00  0.00    -0.106 NA 
HETATM   10  C   UNL     1      -9.407   8.971  68.195  1.00  0.00    -0.142 C  
HETATM   11  H2  UNL     1      -6.142  10.315  64.727  1.00  0.00     0.000 HD 
HETATM   12  H1  UNL     1      -6.718   8.879  64.031  1.00  0.00     0.000 HD 
HETATM   13  C   UNL     1      -9.373   7.925  67.063  1.00  0.00    -0.160 C  
HETATM   14  H   UNL     1     -11.149   7.286  67.718  1.00  0.00     0.000 HD 
HETATM   15  O   UNL     1     -10.756   7.524  66.887  1.00  0.00    -0.352 OA 
BRANCH   8  16
HETATM   16  O   UNL     1      -8.342   7.113  64.963  1.00  0.00    -0.125 OA 
BRANCH  16  17
HETATM   17  C   UNL     1      -8.303   5.907  65.760  1.00  0.00    -0.140 C  
HETATM   18  H1  UNL     1      -4.845   5.734  65.481  1.00  0.00     0.000 HD 
HETATM   19  O   UNL     1      -9.334   5.012  65.324  1.00  0.00    -0.152 OA 
HETATM   20  C   UNL     1      -8.962   4.030  64.431  1.00  0.00    -0.137 C  
HETATM   21  H2  UNL     1      -5.816   7.075  65.721  1.00  0.00     0.000 HD 
HETATM   22  N   UNL     1      -5.780   6.122  65.360  1.00  0.00    -0.024 NA 
HETATM   23  C   UNL     1      -7.764   3.438  64.523  1.00  0.00    -0.077 C  
HETATM   24  C   UNL     1      -6.867   5.312  65.945  1.00  0.00    -0.061 C  
HETATM   25  C   UNL     1      -6.793   3.824  65.584  1.00  0.00    -0.057 C  
BRANCH  20  26
HETATM   26  C   UNL     1     -10.048   3.677  63.442  1.00  0.00    -0.189 C  
HETATM   27  N   UNL     1     -11.273   3.142  64.033  1.00  0.00    -0.547 NA 
HETATM   28  H2  UNL     1     -11.634   3.786  64.738  1.00  0.00     0.000 HD 
HETATM   29  H1  UNL     1     -12.007   2.904  63.366  1.00  0.00     0.000 HD 
ENDBRANCH  20  26
ENDBRANCH  16  17
ENDBRANCH   8  16
BRANCH  10  30
HETATM   30  O   UNL     1      -9.660   8.376  69.516  1.00  0.00    -0.168 OA 
BRANCH  30  31
HETATM   31  C   UNL     1      -8.690   8.643  70.547  1.00  0.00    -0.162 C  
HETATM   32  O   UNL     1      -7.613   6.493  70.041  1.00  0.00    -0.095 OA 
HETATM   33  C   UNL     1      -9.483   7.624  73.181  1.00  0.00    -0.243 C  
HETATM   34  C   UNL     1      -7.925   7.394  71.116  1.00  0.00    -0.100 C  
HETATM   35  O   UNL     1      -9.304   9.391  71.587  1.00  0.00    -0.262 OA 
HETATM   36  O   UNL     1      -8.651   8.404  74.064  1.00  0.00    -0.260 OA 
HETATM   37  C   UNL     1      -8.609   6.651  72.309  1.00  0.00    -0.121 C  
HETATM   38  H   UNL     1      -8.170   7.809  74.629  1.00  0.00     0.000 HD 
HETATM   39  C   UNL     1     -10.471   6.871  74.074  1.00  0.00    -0.277 C  
HETATM   40  H   UNL     1      -7.150   5.739  70.385  1.00  0.00     0.000 HD 
HETATM   41  C   UNL     1     -10.252   8.577  72.276  1.00  0.00    -0.325 C  
BRANCH  37  42
HETATM   42  N   UNL     1      -7.649   5.959  73.217  1.00  0.00    -0.098 NA 
HETATM   43  H   UNL     1      -7.243   6.457  74.009  1.00  0.00     0.000 HD 
HETATM   44  C   UNL     1      -7.296   4.583  72.970  1.00  0.00    -0.080 C  
ENDBRANCH  37  42
ENDBRANCH  30  31
ENDBRANCH  10  30
ENDBRANCH   3   5
ENDBRANCH   2   3
TORSDOF 8
ENDMDL
MODEL      202
REMARK 921   NORMALIZED FREE ENERGY PREDICTED BY IDOCK:   -3.97 KCAL/MOL
REMARK 922        TOTAL FREE ENERGY PREDICTED BY IDOCK:   -6.57 KCAL/MOL
REMARK 923 INTER-LIGAND FREE ENERGY PREDICTED BY IDOCK:   -6.13 KCAL/MOL
REMARK 924 INTRA-LIGAND FREE ENERGY PREDICTED BY IDOCK:   -0.44 KCAL/MOL
REMARK 927      BINDING AFFINITY PREDICTED BY RF-SCORE:    0.00 PKD
ROOT
HETATM    1  C   UNL     1      -7.121  14.947  67.228  1.00  0.00    -0.103 C  
HETATM    2  C   UNL     1      -7.692  13.657  67.801  1.00  0.00    -0.164 C  
ENDROOT
BRANCH   2   3
HETATM    3  N   UNL     1      -7.854  12.659  66.740  1.00  0.00    -0.396 NA 
HETATM    4  H   UNL     1      -7.156  12.808  66.011  1.00  0.00     0.000 HD 
BRANCH   3   5
HETATM    5  C   UNL     1      -7.829  11.239  67.187  1.00  0.00    -0.151 C  
HETATM    6  C   UNL     1      -7.107  10.342  66.171  1.00  0.00    -0.121 C  
HETATM    7  C   UNL     1      -7.036   8.887  66.645  1.00  0.00    -0.080 C  
HETATM    8  C   UNL     1      -8.463   8.293  66.792  1.00  0.00    -0.122 C  
HETATM    9  N   UNL     1      -6.221   8.124  65.677  1.00  0.00    -0.045 NA 
HETATM   10  C   UNL     1      -9.235  10.711  67.594  1.00  0.00    -0.146 C  
HETATM   11  H2  UNL     1      -5.299   8.535  65.529  1.00  0.00     0.000 HD 
HETATM   12  H1  UNL     1      -6.174   7.156  65.993  1.00  0.00     0.000 HD 
HETATM   13  C   UNL     1      -9.361   9.178  67.697  1.00  0.00    -0.135 C  
HETATM   14  H   UNL     1     -11.316   9.447  68.012  1.00  0.00     0.000 HD 
HETATM   15  O   UNL     1     -10.766   8.905  67.459  1.00  0.00    -0.258 OA 
BRANCH   8  16
HETATM   16  O   UNL     1      -8.348   6.944  67.352  1.00  0.00    -0.120 OA 
BRANCH  16  17
HETATM   17  C   UNL     1      -8.889   5.901  66.509  1.00  0.00    -0.128 C  
HETATM   18  H1  UNL     1     -10.809   4.665  69.127  1.00  0.00     0.000 HD 
HETATM   19  O   UNL     1      -7.832   5.305  65.747  1.00  0.00    -0.096 OA 
HETATM   20  C   UNL     1      -7.285   4.146  66.252  1.00  0.00    -0.068 C  
HETATM   21  H2  UNL     1     -10.506   6.255  68.703  1.00  0.00     0.000 HD 
HETATM   22  N   UNL     1     -10.166   5.295  68.648  1.00  0.00    -0.173 NA 
HETATM   23  C   UNL     1      -8.051   3.241  66.875  1.00  0.00    -0.084 C  
HETATM   24  C   UNL     1      -9.876   4.934  67.246  1.00  0.00    -0.184 C  
HETATM   25  C   UNL     1      -9.514   3.459  67.049  1.00  0.00    -0.188 C  
BRANCH  20  26
HETATM   26  C   UNL     1      -5.809   4.004  65.961  1.00  0.00    -0.023 C  
HETATM   27  N   UNL     1      -5.215   2.736  66.378  1.00  0.00    -0.008 NA 
HETATM   28  H2  UNL     1      -5.731   1.955  65.972  1.00  0.00     0.000 HD 
HETATM   29  H1  UNL     1      -4.219   2.639  66.182  1.00  0.00     0.000 HD 
ENDBRANCH  20  26
ENDBRANCH  16  17
ENDBRANCH   8  16
BRANCH  10  30
HETATM   30  O   UNL     1      -9.820  11.412  68.748  1.00  0.00    -0.205 OA 
BRANCH  30  31
HETATM   31  C   UNL     1     -11.151  11.938  68.584  1.00  0.00    -0.246 C  
HETATM   32  O   UNL     1     -10.972  11.541  66.165  1.00  0.00    -0.287 OA 
HETATM   33  C   UNL     1     -11.206  14.831  68.103  1.00  0.00    -0.294 C  
HETATM   34  C   UNL     1     -11.524  12.440  67.142  1.00  0.00    -0.357 C  
HETATM   35  O   UNL     1     -11.380  12.946  69.557  1.00  0.00    -0.230 OA 
HETATM   36  O   UNL     1     -12.564  15.165  68.456  1.00  0.00    -0.363 OA 
HETATM   37  C   UNL     1     -11.172  13.928  66.818  1.00  0.00    -0.318 C  
HETATM   38  H   UNL     1     -12.960  15.628  67.726  1.00  0.00     0.000 HD 
HETATM   39  C   UNL     1     -10.476  16.160  67.897  1.00  0.00    -0.290 C  
HETATM   40  H   UNL     1     -11.197  11.844  65.294  1.00  0.00     0.000 HD 
HETATM   41  C   UNL     1     -10.573  14.089  69.273  1.00  0.00    -0.070 C  
BRANCH  37  42
HETATM   42  N   UNL     1     -12.065  14.548  65.797  1.00  0.00    -0.321 NA 
HETATM   43  H   UNL     1     -13.032  14.771  66.031  1.00  0.00     0.000 HD 
HETATM   44  C   UNL     1     -11.555  14.832  64.478  1.00  0.00    -0.361 C  
ENDBRANCH  37  42
ENDBRANCH  30  31
ENDBRANCH  10  30
ENDBRANCH   3   5
ENDBRANCH   2   3
TORSDOF 8
ENDMDL
MODEL      203
REMARK 921   NORMALIZED FREE ENERGY PREDICTED BY IDOCK:   -3.97 KCAL/MOL
REMARK 922        TOTAL FREE ENERGY PREDICTED BY IDOCK:   -6.56 KCAL/MOL
REMARK 923 INTER-LIGAND FREE ENERGY PREDICTED BY IDOCK:   -4.82 KCAL/MOL
REMARK 924 INTRA-LIGAND FREE ENERGY PREDICTED BY IDOCK:   -1.74 KCAL/MOL
REMARK 927      BINDING AFFINITY PREDICTED BY RF-SCORE:    0.00 PKD
ROOT
HETATM    1  C   UNL     1     -13.057   8.940  72.505  1.00  0.00    -0.426 C  
HETATM    2  C   UNL     1     -11.605   8.683  72.126  1.00  0.00    -0.370 C  
ENDROOT
BRANCH   2   3
HETATM    3  N   UNL     1     -11.535   7.909  70.884  1.00  0.00    -0.282 NA 
HETATM    4  H   UNL     1     -12.472   7.769  70.506  1.00  0.00     0.000 HD 
BRANCH   3   5
HETATM    5  C   UNL     1     -10.639   8.464  69.833  1.00  0.00    -0.228 C  
HETATM    6  C   UNL     1     -11.155   9.812  69.308  1.00  0.00    -0.184 C  
HETATM    7  C   UNL     1     -10.215  10.413  68.259  1.00  0.00    -0.160 C  
HETATM    8  C   UNL     1     -10.120   9.485  67.017  1.00  0.00    -0.234 C  
HETATM    9  N   UNL     1     -10.716  11.756  67.903  1.00  0.00    -0.197 NA 
HETATM   10  C   UNL     1     -10.322   7.438  68.707  1.00  0.00    -0.199 C  
HETATM   11  H2  UNL     1     -10.836  12.360  68.716  1.00  0.00     0.000 HD 
HETATM   12  H1  UNL     1     -10.090  12.156  67.205  1.00  0.00     0.000 HD 
HETATM   13  C   UNL     1      -9.733   8.036  67.414  1.00  0.00    -0.166 C  
HETATM   14  H   UNL     1      -9.862   6.210  66.614  1.00  0.00     0.000 HD 
HETATM   15  O   UNL     1     -10.099   7.097  66.371  1.00  0.00    -0.122 OA 
BRANCH   8  16
HETATM   16  O   UNL     1      -9.128  10.043  66.096  1.00  0.00    -0.149 OA 
BRANCH  16  17
HETATM   17  C   UNL     1      -7.766   9.643  66.373  1.00  0.00    -0.101 C  
HETATM   18  H1  UNL     1      -6.977  12.824  67.524  1.00  0.00     0.000 HD 
HETATM   19  O   UNL     1      -7.257   8.882  65.271  1.00  0.00    -0.085 OA 
HETATM   20  C   UNL     1      -6.508   9.569  64.341  1.00  0.00    -0.095 C  
HETATM   21  H2  UNL     1      -8.368  11.928  67.777  1.00  0.00     0.000 HD 
HETATM   22  N   UNL     1      -7.566  12.073  67.163  1.00  0.00    -0.154 NA 
HETATM   23  C   UNL     1      -5.683  10.554  64.717  1.00  0.00    -0.112 C  
HETATM   24  C   UNL     1      -6.863  10.796  66.927  1.00  0.00    -0.101 C  
HETATM   25  C   UNL     1      -5.552  10.946  66.148  1.00  0.00    -0.134 C  
BRANCH  20  26
HETATM   26  C   UNL     1      -6.673   9.044  62.933  1.00  0.00    -0.093 C  
HETATM   27  N   UNL     1      -5.545   8.263  62.428  1.00  0.00    -0.070 NA 
HETATM   28  H2  UNL     1      -5.333   7.497  63.067  1.00  0.00     0.000 HD 
HETATM   29  H1  UNL     1      -5.656   7.909  61.478  1.00  0.00     0.000 HD 
ENDBRANCH  20  26
ENDBRANCH  16  17
ENDBRANCH   8  16
BRANCH  10  30
HETATM   30  O   UNL     1      -9.588   6.252  69.175  1.00  0.00    -0.135 OA 
BRANCH  30  31
HETATM   31  C   UNL     1     -10.347   5.039  69.340  1.00  0.00    -0.144 C  
HETATM   32  O   UNL     1     -10.284   5.371  71.774  1.00  0.00    -0.193 OA 
HETATM   33  C   UNL     1      -8.671   2.648  69.623  1.00  0.00    -0.076 C  
HETATM   34  C   UNL     1     -10.266   4.358  70.754  1.00  0.00    -0.036 C  
HETATM   35  O   UNL     1     -10.005   4.127  68.307  1.00  0.00    -0.063 OA 
HETATM   36  O   UNL     1      -9.597   1.595  69.286  1.00  0.00    -0.096 OA 
HETATM   37  C   UNL     1      -9.091   3.349  70.966  1.00  0.00    -0.112 C  
HETATM   38  H   UNL     1      -9.601   0.960  69.994  1.00  0.00     0.000 HD 
HETATM   39  C   UNL     1      -7.291   1.994  69.718  1.00  0.00    -0.043 C  
HETATM   40  H   UNL     1     -10.234   4.959  72.628  1.00  0.00     0.000 HD 
HETATM   41  C   UNL     1      -8.666   3.666  68.490  1.00  0.00    -0.103 C  
BRANCH  37  42
HETATM   42  N   UNL     1      -9.387   2.283  71.966  1.00  0.00    -0.089 NA 
HETATM   43  H   UNL     1      -9.883   1.438  71.682  1.00  0.00     0.000 HD 
HETATM   44  C   UNL     1      -8.970   2.451  73.336  1.00  0.00    -0.073 C  
ENDBRANCH  37  42
ENDBRANCH  30  31
ENDBRANCH  10  30
ENDBRANCH   3   5
ENDBRANCH   2   3
TORSDOF 8
ENDMDL
MODEL      204
REMARK 921   NORMALIZED FREE ENERGY PREDICTED BY IDOCK:   -3.94 KCAL/MOL
REMARK 922        TOTAL FREE ENERGY PREDICTED BY IDOCK:   -6.53 KCAL/MOL
REMARK 923 INTER-LIGAND FREE ENERGY PREDICTED BY IDOCK:   -5.35 KCAL/MOL
REMARK 924 INTRA-LIGAND FREE ENERGY PREDICTED BY IDOCK:   -1.18 KCAL/MOL
REMARK 927      BINDING AFFINITY PREDICTED BY RF-SCORE:    0.00 PKD
ROOT
HETATM    1  C   UNL     1      -5.125  13.016  72.200  1.00  0.00    -0.039 C  
HETATM    2  C   UNL     1      -5.351  13.695  70.857  1.00  0.00    -0.160 C  
ENDROOT
BRANCH   2   3
HETATM    3  N   UNL     1      -6.692  13.385  70.352  1.00  0.00    -0.207 NA 
HETATM    4  H   UNL     1      -7.065  14.184  69.838  1.00  0.00     0.000 HD 
BRANCH   3   5
HETATM    5  C   UNL     1      -6.795  12.153  69.522  1.00  0.00     0.044 C  
HETATM    6  C   UNL     1      -5.988  10.996  70.132  1.00  0.00    -0.127 C  
HETATM    7  C   UNL     1      -6.126   9.711  69.310  1.00  0.00    -0.037 C  
HETATM    8  C   UNL     1      -5.555   9.916  67.880  1.00  0.00    -0.039 C  
HETATM    9  N   UNL     1      -5.428   8.625  70.028  1.00  0.00    -0.028 NA 
HETATM   10  C   UNL     1      -6.478  12.409  68.021  1.00  0.00    -0.081 C  
HETATM   11  H2  UNL     1      -5.755   8.515  70.989  1.00  0.00     0.000 HD 
HETATM   12  H1  UNL     1      -5.519   7.770  69.482  1.00  0.00     0.000 HD 
HETATM   13  C   UNL     1      -6.189  11.148  67.182  1.00  0.00    -0.083 C  
HETATM   14  H   UNL     1      -5.742  12.367  65.663  1.00  0.00     0.000 HD 
HETATM   15  O   UNL     1      -5.354  11.612  66.091  1.00  0.00    -0.304 OA 
BRANCH   8  16
HETATM   16  O   UNL     1      -5.810   8.702  67.101  1.00  0.00    -0.042 OA 
BRANCH  16  17
HETATM   17  C   UNL     1      -7.210   8.430  66.863  1.00  0.00    -0.079 C  
HETATM   18  H1  UNL     1      -6.924   5.271  68.280  1.00  0.00     0.000 HD 
HETATM   19  O   UNL     1      -7.559   8.845  65.537  1.00  0.00    -0.085 OA 
HETATM   20  C   UNL     1      -7.553   7.869  64.564  1.00  0.00    -0.111 C  
HETATM   21  H2  UNL     1      -6.244   6.716  68.781  1.00  0.00     0.000 HD 
HETATM   22  N   UNL     1      -6.626   6.202  67.987  1.00  0.00    -0.059 NA 
HETATM   23  C   UNL     1      -7.954   6.622  64.841  1.00  0.00    -0.121 C  
HETATM   24  C   UNL     1      -7.668   7.001  67.313  1.00  0.00    -0.109 C  
HETATM   25  C   UNL     1      -8.411   6.245  66.207  1.00  0.00    -0.122 C  
BRANCH  20  26
HETATM   26  C   UNL     1      -7.133   8.381  63.206  1.00  0.00    -0.091 C  
HETATM   27  N   UNL     1      -5.700   8.626  63.053  1.00  0.00    -0.073 NA 
HETATM   28  H2  UNL     1      -5.172   7.787  63.292  1.00  0.00     0.000 HD 
HETATM   29  H1  UNL     1      -5.416   8.972  62.136  1.00  0.00     0.000 HD 
ENDBRANCH  20  26
ENDBRANCH  16  17
ENDBRANCH   8  16
BRANCH  10  30
HETATM   30  O   UNL     1      -7.421  13.328  67.365  1.00  0.00    -0.162 OA 
BRANCH  30  31
HETATM   31  C   UNL     1      -8.815  13.172  67.690  1.00  0.00    -0.191 C  
HETATM   32  O   UNL     1      -9.184  12.183  65.470  1.00  0.00    -0.431 OA 
HETATM   33  C   UNL     1     -10.453  15.484  66.929  1.00  0.00    -0.301 C  
HETATM   34  C   UNL     1      -9.795  13.014  66.471  1.00  0.00    -0.263 C  
HETATM   35  O   UNL     1      -9.220  14.230  68.544  1.00  0.00    -0.199 OA 
HETATM   36  O   UNL     1     -11.621  15.305  67.756  1.00  0.00    -0.335 OA 
HETATM   37  C   UNL     1     -10.351  14.339  65.857  1.00  0.00    -0.314 C  
HETATM   38  H   UNL     1     -12.390  15.318  67.197  1.00  0.00     0.000 HD 
HETATM   39  C   UNL     1     -10.586  16.867  66.289  1.00  0.00    -0.191 C  
HETATM   40  H   UNL     1      -9.776  12.087  64.734  1.00  0.00     0.000 HD 
HETATM   41  C   UNL     1      -9.221  15.463  67.824  1.00  0.00    -0.183 C  
BRANCH  37  42
HETATM   42  N   UNL     1     -11.689  14.191  65.216  1.00  0.00    -0.340 NA 
HETATM   43  H   UNL     1     -12.101  14.971  64.703  1.00  0.00     0.000 HD 
HETATM   44  C   UNL     1     -12.400  12.941  65.323  1.00  0.00    -0.490 C  
ENDBRANCH  37  42
ENDBRANCH  30  31
ENDBRANCH  10  30
ENDBRANCH   3   5
ENDBRANCH   2   3
TORSDOF 8
ENDMDL
MODEL      205
REMARK 921   NORMALIZED FREE ENERGY PREDICTED BY IDOCK:   -3.94 KCAL/MOL
REMARK 922        TOTAL FREE ENERGY PREDICTED BY IDOCK:   -6.52 KCAL/MOL
REMARK 923 INTER-LIGAND FREE ENERGY PREDICTED BY IDOCK:   -4.89 KCAL/MOL
REMARK 924 INTRA-LIGAND FREE ENERGY PREDICTED BY IDOCK:   -1.63 KCAL/MOL
REMARK 927      BINDING AFFINITY PREDICTED BY RF-SCORE:    0.00 PKD
ROOT
HETATM    1  C   UNL     1      -6.559   6.318  71.484  1.00  0.00    -0.054 C  
HETATM    2  C   UNL     1      -7.438   5.309  72.210  1.00  0.00    -0.095 C  
ENDROOT
BRANCH   2   3
HETATM    3  N   UNL     1      -8.848   5.530  71.872  1.00  0.00    -0.135 NA 
HETATM    4  H   UNL     1      -9.392   5.677  72.723  1.00  0.00     0.000 HD 
BRANCH   3   5
HETATM    5  C   UNL     1      -9.109   6.631  70.904  1.00  0.00    -0.154 C  
HETATM    6  C   UNL     1      -9.937   7.756  71.542  1.00  0.00    -0.205 C  
HETATM    7  C   UNL     1     -10.170   8.914  70.567  1.00  0.00    -0.204 C  
HETATM    8  C   UNL     1     -10.989   8.433  69.337  1.00  0.00    -0.002 C  
HETATM    9  N   UNL     1     -10.860  10.000  71.293  1.00  0.00    -0.196 NA 
HETATM   10  C   UNL     1      -9.689   6.120  69.554  1.00  0.00    -0.146 C  
HETATM   11  H2  UNL     1     -10.360  10.289  72.135  1.00  0.00     0.000 HD 
HETATM   12  H1  UNL     1     -11.015  10.770  70.645  1.00  0.00     0.000 HD 
HETATM   13  C   UNL     1     -10.335   7.199  68.662  1.00  0.00    -0.187 C  
HETATM   14  H   UNL     1     -10.899   5.725  67.437  1.00  0.00     0.000 HD 
HETATM   15  O   UNL     1     -11.299   6.480  67.850  1.00  0.00    -0.245 OA 
BRANCH   8  16
HETATM   16  O   UNL     1     -11.090   9.541  68.385  1.00  0.00    -0.121 OA 
BRANCH  16  17
HETATM   17  C   UNL     1      -9.885  10.331  68.260  1.00  0.00    -0.146 C  
HETATM   18  H1  UNL     1     -11.614  13.246  69.020  1.00  0.00     0.000 HD 
HETATM   19  O   UNL     1      -9.172   9.932  67.083  1.00  0.00    -0.137 OA 
HETATM   20  C   UNL     1      -9.380  10.689  65.950  1.00  0.00    -0.190 C  
HETATM   21  H2  UNL     1     -11.763  11.725  69.702  1.00  0.00     0.000 HD 
HETATM   22  N   UNL     1     -11.473  12.246  68.875  1.00  0.00    -0.280 NA 
HETATM   23  C   UNL     1      -9.548  12.015  66.032  1.00  0.00    -0.247 C  
HETATM   24  C   UNL     1     -10.101  11.865  68.483  1.00  0.00    -0.206 C  
HETATM   25  C   UNL     1      -9.523  12.714  67.347  1.00  0.00    -0.189 C  
BRANCH  20  26
HETATM   26  C   UNL     1      -9.321   9.883  64.673  1.00  0.00    -0.277 C  
HETATM   27  N   UNL     1      -9.026   8.462  64.850  1.00  0.00    -0.409 NA 
HETATM   28  H2  UNL     1      -9.692   8.044  65.500  1.00  0.00     0.000 HD 
HETATM   29  H1  UNL     1      -8.986   7.918  63.988  1.00  0.00     0.000 HD 
ENDBRANCH  20  26
ENDBRANCH  16  17
ENDBRANCH   8  16
BRANCH  10  30
HETATM   30  O   UNL     1      -8.776   5.236  68.813  1.00  0.00    -0.091 OA 
BRANCH  30  31
HETATM   31  C   UNL     1      -8.405   5.651  67.484  1.00  0.00    -0.100 C  
HETATM   32  O   UNL     1     -10.109   4.131  66.573  1.00  0.00    -0.344 OA 
HETATM   33  C   UNL     1      -6.295   3.994  66.296  1.00  0.00    -0.033 C  
HETATM   34  C   UNL     1      -8.802   4.673  66.319  1.00  0.00    -0.113 C  
HETATM   35  O   UNL     1      -7.018   5.951  67.456  1.00  0.00    -0.065 OA 
HETATM   36  O   UNL     1      -5.789   4.858  65.258  1.00  0.00    -0.017 OA 
HETATM   37  C   UNL     1      -7.769   3.550  65.980  1.00  0.00    -0.082 C  
HETATM   38  H   UNL     1      -5.813   4.383  64.434  1.00  0.00     0.000 HD 
HETATM   39  C   UNL     1      -5.335   2.805  66.373  1.00  0.00    -0.016 C  
HETATM   40  H   UNL     1     -10.348   3.541  65.869  1.00  0.00     0.000 HD 
HETATM   41  C   UNL     1      -6.257   4.754  67.616  1.00  0.00    -0.035 C  
BRANCH  37  42
HETATM   42  N   UNL     1      -7.817   3.097  64.560  1.00  0.00    -0.077 NA 
HETATM   43  H   UNL     1      -7.222   3.541  63.860  1.00  0.00     0.000 HD 
HETATM   44  C   UNL     1      -8.708   2.029  64.179  1.00  0.00    -0.092 C  
ENDBRANCH  37  42
ENDBRANCH  30  31
ENDBRANCH  10  30
ENDBRANCH   3   5
ENDBRANCH   2   3
TORSDOF 8
ENDMDL
MODEL      206
REMARK 921   NORMALIZED FREE ENERGY PREDICTED BY IDOCK:   -3.89 KCAL/MOL
REMARK 922        TOTAL FREE ENERGY PREDICTED BY IDOCK:   -6.46 KCAL/MOL
REMARK 923 INTER-LIGAND FREE ENERGY PREDICTED BY IDOCK:   -6.17 KCAL/MOL
REMARK 924 INTRA-LIGAND FREE ENERGY PREDICTED BY IDOCK:   -0.29 KCAL/MOL
REMARK 927      BINDING AFFINITY PREDICTED BY RF-SCORE:    0.00 PKD
ROOT
HETATM    1  C   UNL     1     -12.732  13.615  64.574  1.00  0.00    -0.143 C  
HETATM    2  C   UNL     1     -11.325  14.181  64.712  1.00  0.00    -0.371 C  
ENDROOT
BRANCH   2   3
HETATM    3  N   UNL     1     -10.332  13.155  64.380  1.00  0.00    -0.530 NA 
HETATM    4  H   UNL     1      -9.624  13.543  63.756  1.00  0.00     0.000 HD 
BRANCH   3   5
HETATM    5  C   UNL     1      -9.679  12.496  65.544  1.00  0.00    -0.119 C  
HETATM    6  C   UNL     1      -9.350  11.025  65.246  1.00  0.00    -0.245 C  
HETATM    7  C   UNL     1      -8.636  10.352  66.421  1.00  0.00    -0.132 C  
HETATM    8  C   UNL     1      -9.552  10.333  67.676  1.00  0.00    -0.152 C  
HETATM    9  N   UNL     1      -8.246   8.988  66.007  1.00  0.00    -0.110 NA 
HETATM   10  C   UNL     1     -10.465  12.700  66.871  1.00  0.00    -0.233 C  
HETATM   11  H2  UNL     1      -7.689   8.981  65.152  1.00  0.00     0.000 HD 
HETATM   12  H1  UNL     1      -7.771   8.540  66.789  1.00  0.00     0.000 HD 
HETATM   13  C   UNL     1     -10.077  11.751  68.022  1.00  0.00    -0.192 C  
HETATM   14  H   UNL     1     -11.583  12.544  69.068  1.00  0.00     0.000 HD 
HETATM   15  O   UNL     1     -11.262  11.676  68.856  1.00  0.00    -0.208 OA 
BRANCH   8  16
HETATM   16  O   UNL     1      -8.789   9.783  68.799  1.00  0.00    -0.122 OA 
BRANCH  16  17
HETATM   17  C   UNL     1      -9.220   8.471  69.226  1.00  0.00    -0.153 C  
HETATM   18  H1  UNL     1      -8.596   9.256  72.552  1.00  0.00     0.000 HD 
HETATM   19  O   UNL     1      -8.650   7.477  68.365  1.00  0.00    -0.125 OA 
HETATM   20  C   UNL     1      -7.494   6.869  68.804  1.00  0.00    -0.099 C  
HETATM   21  H2  UNL     1      -9.279  10.206  71.355  1.00  0.00     0.000 HD 
HETATM   22  N   UNL     1      -8.670   9.410  71.546  1.00  0.00    -0.185 NA 
HETATM   23  C   UNL     1      -7.313   6.597  70.103  1.00  0.00    -0.085 C  
HETATM   24  C   UNL     1      -9.106   8.233  70.769  1.00  0.00    -0.150 C  
HETATM   25  C   UNL     1      -8.348   6.947  71.115  1.00  0.00    -0.119 C  
BRANCH  20  26
HETATM   26  C   UNL     1      -6.548   6.503  67.685  1.00  0.00    -0.061 C  
HETATM   27  N   UNL     1      -7.179   5.894  66.515  1.00  0.00    -0.072 NA 
HETATM   28  H2  UNL     1      -7.923   6.497  66.164  1.00  0.00     0.000 HD 
HETATM   29  H1  UNL     1      -6.540   5.647  65.759  1.00  0.00     0.000 HD 
ENDBRANCH  20  26
ENDBRANCH  16  17
ENDBRANCH   8  16
BRANCH  10  30
HETATM   30  O   UNL     1     -10.556  14.106  67.295  1.00  0.00    -0.273 OA 
BRANCH  30  31
HETATM   31  C   UNL     1      -9.689  14.520  68.368  1.00  0.00    -0.224 C  
HETATM   32  O   UNL     1     -11.297  16.289  68.937  1.00  0.00    -0.342 OA 
HETATM   33  C   UNL     1      -7.736  16.556  67.565  1.00  0.00    -0.149 C  
HETATM   34  C   UNL     1      -9.892  15.986  68.895  1.00  0.00    -0.232 C  
HETATM   35  O   UNL     1      -8.339  14.287  67.997  1.00  0.00    -0.138 OA 
HETATM   36  O   UNL     1      -6.739  16.435  68.600  1.00  0.00    -0.134 OA 
HETATM   37  C   UNL     1      -9.086  17.102  68.155  1.00  0.00    -0.247 C  
HETATM   38  H   UNL     1      -6.598  17.293  68.984  1.00  0.00     0.000 HD 
HETATM   39  C   UNL     1      -7.146  17.490  66.506  1.00  0.00    -0.289 C  
HETATM   40  H   UNL     1     -11.420  17.175  69.256  1.00  0.00     0.000 HD 
HETATM   41  C   UNL     1      -7.961  15.181  66.950  1.00  0.00    -0.120 C  
BRANCH  37  42
HETATM   42  N   UNL     1      -8.768  18.282  69.011  1.00  0.00    -0.099 NA 
HETATM   43  H   UNL     1      -8.292  18.154  69.904  1.00  0.00     0.000 HD 
HETATM   44  C   UNL     1      -9.136  19.605  68.571  1.00  0.00    -0.312 C  
ENDBRANCH  37  42
ENDBRANCH  30  31
ENDBRANCH  10  30
ENDBRANCH   3   5
ENDBRANCH   2   3
TORSDOF 8
ENDMDL
MODEL      207
REMARK 921   NORMALIZED FREE ENERGY PREDICTED BY IDOCK:   -3.89 KCAL/MOL
REMARK 922        TOTAL FREE ENERGY PREDICTED BY IDOCK:   -6.45 KCAL/MOL
REMARK 923 INTER-LIGAND FREE ENERGY PREDICTED BY IDOCK:   -6.91 KCAL/MOL
REMARK 924 INTRA-LIGAND FREE ENERGY PREDICTED BY IDOCK:    0.47 KCAL/MOL
REMARK 927      BINDING AFFINITY PREDICTED BY RF-SCORE:    0.00 PKD
ROOT
HETATM    1  C   UNL     1      -6.929  12.241  68.469  1.00  0.00    -0.092 C  
HETATM    2  C   UNL     1      -6.742  10.751  68.720  1.00  0.00    -0.060 C  
ENDROOT
BRANCH   2   3
HETATM    3  N   UNL     1      -7.025   9.992  67.498  1.00  0.00    -0.085 NA 
HETATM    4  H   UNL     1      -6.924   8.992  67.676  1.00  0.00     0.000 HD 
BRANCH   3   5
HETATM    5  C   UNL     1      -8.344  10.267  66.865  1.00  0.00    -0.123 C  
HETATM    6  C   UNL     1      -8.341  11.610  66.120  1.00  0.00     0.036 C  
HETATM    7  C   UNL     1      -9.680  11.879  65.426  1.00  0.00    -0.207 C  
HETATM    8  C   UNL     1     -10.824  11.980  66.472  1.00  0.00    -0.277 C  
HETATM    9  N   UNL     1      -9.550  13.120  64.635  1.00  0.00    -0.372 NA 
HETATM   10  C   UNL     1      -9.532  10.108  67.856  1.00  0.00    -0.141 C  
HETATM   11  H2  UNL     1      -8.768  13.089  63.981  1.00  0.00     0.000 HD 
HETATM   12  H1  UNL     1     -10.441  13.299  64.173  1.00  0.00     0.000 HD 
HETATM   13  C   UNL     1     -10.864  10.735  67.397  1.00  0.00    -0.290 C  
HETATM   14  H   UNL     1     -11.605  10.263  69.192  1.00  0.00     0.000 HD 
HETATM   15  O   UNL     1     -11.580  11.025  68.625  1.00  0.00    -0.279 OA 
BRANCH   8  16
HETATM   16  O   UNL     1     -12.094  12.125  65.758  1.00  0.00    -0.572 OA 
BRANCH  16  17
HETATM   17  C   UNL     1     -12.679  13.445  65.844  1.00  0.00    -0.251 C  
HETATM   18  H1  UNL     1     -12.307  13.927  62.425  1.00  0.00     0.000 HD 
HETATM   19  O   UNL     1     -12.121  14.143  66.965  1.00  0.00    -0.427 OA 
HETATM   20  C   UNL     1     -11.071  14.995  66.701  1.00  0.00    -0.326 C  
HETATM   21  H2  UNL     1     -12.785  12.551  63.248  1.00  0.00     0.000 HD 
HETATM   22  N   UNL     1     -12.271  13.429  63.314  1.00  0.00    -0.637 NA 
HETATM   23  C   UNL     1     -11.040  15.715  65.572  1.00  0.00    -0.229 C  
HETATM   24  C   UNL     1     -12.735  14.209  64.479  1.00  0.00    -0.056 C  
HETATM   25  C   UNL     1     -12.131  15.614  64.563  1.00  0.00    -0.051 C  
BRANCH  20  26
HETATM   26  C   UNL     1     -10.059  15.063  67.821  1.00  0.00    -0.234 C  
HETATM   27  N   UNL     1     -10.295  16.118  68.805  1.00  0.00    -0.235 NA 
HETATM   28  H2  UNL     1     -11.237  16.038  69.187  1.00  0.00     0.000 HD 
HETATM   29  H1  UNL     1      -9.612  16.164  69.561  1.00  0.00     0.000 HD 
ENDBRANCH  20  26
ENDBRANCH  16  17
ENDBRANCH   8  16
BRANCH  10  30
HETATM   30  O   UNL     1      -9.693   8.741  68.375  1.00  0.00    -0.155 OA 
BRANCH  30  31
HETATM   31  C   UNL     1      -8.870   7.719  67.781  1.00  0.00    -0.126 C  
HETATM   32  O   UNL     1     -10.698   7.203  66.221  1.00  0.00    -0.330 OA 
HETATM   33  C   UNL     1      -9.200   5.087  69.035  1.00  0.00    -0.114 C  
HETATM   34  C   UNL     1      -9.627   6.605  66.971  1.00  0.00    -0.150 C  
HETATM   35  O   UNL     1      -8.032   7.153  68.778  1.00  0.00    -0.119 OA 
HETATM   36  O   UNL     1      -7.991   4.412  68.629  1.00  0.00    -0.077 OA 
HETATM   37  C   UNL     1     -10.121   5.370  67.793  1.00  0.00    -0.171 C  
HETATM   38  H   UNL     1      -8.231   3.592  68.212  1.00  0.00     0.000 HD 
HETATM   39  C   UNL     1      -9.877   4.179  70.063  1.00  0.00    -0.245 C  
HETATM   40  H   UNL     1     -11.155   6.530  65.732  1.00  0.00     0.000 HD 
HETATM   41  C   UNL     1      -8.816   6.401  69.703  1.00  0.00    -0.137 C  
BRANCH  37  42
HETATM   42  N   UNL     1     -10.214   4.114  66.995  1.00  0.00    -0.192 NA 
HETATM   43  H   UNL     1     -10.619   3.274  67.408  1.00  0.00     0.000 HD 
HETATM   44  C   UNL     1      -9.728   4.091  65.637  1.00  0.00    -0.192 C  
ENDBRANCH  37  42
ENDBRANCH  30  31
ENDBRANCH  10  30
ENDBRANCH   3   5
ENDBRANCH   2   3
TORSDOF 8
ENDMDL
MODEL      208
REMARK 921   NORMALIZED FREE ENERGY PREDICTED BY IDOCK:   -3.88 KCAL/MOL
REMARK 922        TOTAL FREE ENERGY PREDICTED BY IDOCK:   -6.43 KCAL/MOL
REMARK 923 INTER-LIGAND FREE ENERGY PREDICTED BY IDOCK:   -6.71 KCAL/MOL
REMARK 924 INTRA-LIGAND FREE ENERGY PREDICTED BY IDOCK:    0.28 KCAL/MOL
REMARK 927      BINDING AFFINITY PREDICTED BY RF-SCORE:    0.00 PKD
ROOT
HETATM    1  C   UNL     1     -12.656   8.199  71.753  1.00  0.00    -0.360 C  
HETATM    2  C   UNL     1     -11.315   8.897  71.935  1.00  0.00    -0.376 C  
ENDROOT
BRANCH   2   3
HETATM    3  N   UNL     1     -10.829   9.406  70.649  1.00  0.00    -0.258 NA 
HETATM    4  H   UNL     1     -10.103  10.105  70.802  1.00  0.00     0.000 HD 
BRANCH   3   5
HETATM    5  C   UNL     1     -10.348   8.371  69.692  1.00  0.00    -0.218 C  
HETATM    6  C   UNL     1      -9.543   7.275  70.406  1.00  0.00    -0.165 C  
HETATM    7  C   UNL     1      -9.084   6.182  69.436  1.00  0.00    -0.134 C  
HETATM    8  C   UNL     1      -8.131   6.774  68.362  1.00  0.00    -0.119 C  
HETATM    9  N   UNL     1      -8.431   5.113  70.219  1.00  0.00    -0.100 NA 
HETATM   10  C   UNL     1      -9.615   8.982  68.464  1.00  0.00    -0.153 C  
HETATM   11  H2  UNL     1      -9.027   4.752  70.964  1.00  0.00     0.000 HD 
HETATM   12  H1  UNL     1      -8.126   4.386  69.574  1.00  0.00     0.000 HD 
HETATM   13  C   UNL     1      -8.767   7.992  67.641  1.00  0.00    -0.126 C  
HETATM   14  H   UNL     1      -8.138   9.556  66.568  1.00  0.00     0.000 HD 
HETATM   15  O   UNL     1      -7.749   8.810  67.010  1.00  0.00    -0.093 OA 
BRANCH   8  16
HETATM   16  O   UNL     1      -7.810   5.721  67.397  1.00  0.00    -0.100 OA 
BRANCH  16  17
HETATM   17  C   UNL     1      -6.417   5.673  67.008  1.00  0.00    -0.044 C  
HETATM   18  H1  UNL     1      -7.199   6.682  63.777  1.00  0.00     0.000 HD 
HETATM   19  O   UNL     1      -5.822   4.469  67.505  1.00  0.00    -0.021 OA 
HETATM   20  C   UNL     1      -5.752   3.407  66.630  1.00  0.00    -0.022 C  
HETATM   21  H2  UNL     1      -7.826   7.224  65.230  1.00  0.00     0.000 HD 
HETATM   22  N   UNL     1      -7.365   6.449  64.756  1.00  0.00    -0.071 NA 
HETATM   23  C   UNL     1      -5.510   3.607  65.328  1.00  0.00    -0.010 C  
HETATM   24  C   UNL     1      -6.163   6.032  65.505  1.00  0.00    -0.037 C  
HETATM   25  C   UNL     1      -5.316   4.979  64.782  1.00  0.00    -0.013 C  
BRANCH  20  26
HETATM   26  C   UNL     1      -5.900   2.064  67.304  1.00  0.00    -0.019 C  
HETATM   27  N   UNL     1      -6.784   2.049  68.468  1.00  0.00    -0.029 NA 
HETATM   28  H2  UNL     1      -7.701   2.420  68.219  1.00  0.00     0.000 HD 
HETATM   29  H1  UNL     1      -6.884   1.142  68.924  1.00  0.00     0.000 HD 
ENDBRANCH  20  26
ENDBRANCH  16  17
ENDBRANCH   8  16
BRANCH  10  30
HETATM   30  O   UNL     1     -10.471   9.836  67.626  1.00  0.00    -0.217 OA 
BRANCH  30  31
HETATM   31  C   UNL     1     -10.052  11.201  67.445  1.00  0.00    -0.185 C  
HETATM   32  O   UNL     1     -12.205  11.947  68.366  1.00  0.00    -0.425 OA 
HETATM   33  C   UNL     1     -10.789  12.308  64.830  1.00  0.00    -0.304 C  
HETATM   34  C   UNL     1     -11.197  12.276  67.395  1.00  0.00    -0.301 C  
HETATM   35  O   UNL     1      -9.212  11.288  66.304  1.00  0.00    -0.187 OA 
HETATM   36  O   UNL     1      -9.882  13.423  64.713  1.00  0.00    -0.595 OA 
HETATM   37  C   UNL     1     -11.823  12.551  65.989  1.00  0.00    -0.418 C  
HETATM   38  H   UNL     1     -10.390  14.206  64.533  1.00  0.00     0.000 HD 
HETATM   39  C   UNL     1     -11.470  12.161  63.468  1.00  0.00    -0.544 C  
HETATM   40  H   UNL     1     -12.897  12.597  68.336  1.00  0.00     0.000 HD 
HETATM   41  C   UNL     1      -9.975  11.053  65.120  1.00  0.00    -0.278 C  
BRANCH  37  42
HETATM   42  N   UNL     1     -12.370  13.930  65.833  1.00  0.00    -0.466 NA 
HETATM   43  H   UNL     1     -12.643  14.468  66.655  1.00  0.00     0.000 HD 
HETATM   44  C   UNL     1     -12.512  14.499  64.515  1.00  0.00    -0.324 C  
ENDBRANCH  37  42
ENDBRANCH  30  31
ENDBRANCH  10  30
ENDBRANCH   3   5
ENDBRANCH   2   3
TORSDOF 8
ENDMDL
MODEL      209
REMARK 921   NORMALIZED FREE ENERGY PREDICTED BY IDOCK:   -3.75 KCAL/MOL
REMARK 922        TOTAL FREE ENERGY PREDICTED BY IDOCK:   -6.24 KCAL/MOL
REMARK 923 INTER-LIGAND FREE ENERGY PREDICTED BY IDOCK:   -5.67 KCAL/MOL
REMARK 924 INTRA-LIGAND FREE ENERGY PREDICTED BY IDOCK:   -0.57 KCAL/MOL
REMARK 927      BINDING AFFINITY PREDICTED BY RF-SCORE:    0.00 PKD
ROOT
HETATM    1  C   UNL     1      -7.514   6.084  65.414  1.00  0.00    -0.082 C  
HETATM    2  C   UNL     1      -7.920   7.492  65.001  1.00  0.00    -0.132 C  
ENDROOT
BRANCH   2   3
HETATM    3  N   UNL     1      -7.567   8.450  66.053  1.00  0.00    -0.084 NA 
HETATM    4  H   UNL     1      -6.711   8.945  65.801  1.00  0.00     0.000 HD 
BRANCH   3   5
HETATM    5  C   UNL     1      -8.632   9.424  66.416  1.00  0.00    -0.134 C  
HETATM    6  C   UNL     1      -8.156  10.873  66.232  1.00  0.00    -0.165 C  
HETATM    7  C   UNL     1      -9.261  11.882  66.558  1.00  0.00    -0.214 C  
HETATM    8  C   UNL     1      -9.684  11.763  68.048  1.00  0.00    -0.185 C  
HETATM    9  N   UNL     1      -8.763  13.235  66.236  1.00  0.00    -0.366 NA 
HETATM   10  C   UNL     1      -9.252   9.146  67.815  1.00  0.00    -0.133 C  
HETATM   11  H2  UNL     1      -8.430  13.313  65.275  1.00  0.00     0.000 HD 
HETATM   12  H1  UNL     1      -9.498  13.906  66.453  1.00  0.00     0.000 HD 
HETATM   13  C   UNL     1     -10.069  10.306  68.419  1.00  0.00    -0.159 C  
HETATM   14  H   UNL     1     -10.236   9.209  70.080  1.00  0.00     0.000 HD 
HETATM   15  O   UNL     1     -10.000  10.101  69.853  1.00  0.00    -0.242 OA 
BRANCH   8  16
HETATM   16  O   UNL     1     -10.814  12.664  68.282  1.00  0.00    -0.221 OA 
BRANCH  16  17
HETATM   17  C   UNL     1     -10.549  13.716  69.238  1.00  0.00     0.041 C  
HETATM   18  H1  UNL     1     -13.650  13.255  70.733  1.00  0.00     0.000 HD 
HETATM   19  O   UNL     1      -9.982  14.846  68.562  1.00  0.00    -0.211 OA 
HETATM   20  C   UNL     1     -10.853  15.852  68.207  1.00  0.00    -0.315 C  
HETATM   21  H2  UNL     1     -12.573  12.106  70.166  1.00  0.00     0.000 HD 
HETATM   22  N   UNL     1     -12.881  13.076  70.088  1.00  0.00     0.195 NA 
HETATM   23  C   UNL     1     -11.880  16.183  69.000  1.00  0.00    -0.181 C  
HETATM   24  C   UNL     1     -11.731  13.991  70.228  1.00  0.00    -0.238 C  
HETATM   25  C   UNL     1     -12.120  15.471  70.286  1.00  0.00    -0.415 C  
BRANCH  20  26
HETATM   26  C   UNL     1     -10.474  16.544  66.918  1.00  0.00    -0.282 C  
HETATM   27  N   UNL     1      -9.136  16.233  66.419  1.00  0.00    -0.274 NA 
HETATM   28  H2  UNL     1      -9.022  15.224  66.324  1.00  0.00     0.000 HD 
HETATM   29  H1  UNL     1      -8.880  16.700  65.549  1.00  0.00     0.000 HD 
ENDBRANCH  20  26
ENDBRANCH  16  17
ENDBRANCH   8  16
BRANCH  10  30
HETATM   30  O   UNL     1      -9.942   7.851  67.911  1.00  0.00    -0.162 OA 
BRANCH  30  31
HETATM   31  C   UNL     1      -9.176   6.741  68.416  1.00  0.00    -0.123 C  
HETATM   32  O   UNL     1     -11.225   5.830  69.422  1.00  0.00    -0.321 OA 
HETATM   33  C   UNL     1      -8.073   7.212  71.094  1.00  0.00    -0.104 C  
HETATM   34  C   UNL     1      -9.807   5.957  69.623  1.00  0.00    -0.167 C  
HETATM   35  O   UNL     1      -7.859   7.177  68.716  1.00  0.00    -0.116 OA 
HETATM   36  O   UNL     1      -7.012   6.237  71.153  1.00  0.00    -0.065 OA 
HETATM   37  C   UNL     1      -9.475   6.503  71.049  1.00  0.00    -0.164 C  
HETATM   38  H   UNL     1      -7.131   5.710  71.935  1.00  0.00     0.000 HD 
HETATM   39  C   UNL     1      -7.912   8.101  72.328  1.00  0.00    -0.178 C  
HETATM   40  H   UNL     1     -11.606   5.356  70.151  1.00  0.00     0.000 HD 
HETATM   41  C   UNL     1      -7.882   8.057  69.841  1.00  0.00    -0.102 C  
BRANCH  37  42
HETATM   42  N   UNL     1      -9.495   5.459  72.114  1.00  0.00    -0.143 NA 
HETATM   43  H   UNL     1      -8.846   4.673  72.073  1.00  0.00     0.000 HD 
HETATM   44  C   UNL     1     -10.437   5.563  73.201  1.00  0.00    -0.222 C  
ENDBRANCH  37  42
ENDBRANCH  30  31
ENDBRANCH  10  30
ENDBRANCH   3   5
ENDBRANCH   2   3
TORSDOF 8
ENDMDL
MODEL      210
REMARK 921   NORMALIZED FREE ENERGY PREDICTED BY IDOCK:   -3.74 KCAL/MOL
REMARK 922        TOTAL FREE ENERGY PREDICTED BY IDOCK:   -6.23 KCAL/MOL
REMARK 923 INTER-LIGAND FREE ENERGY PREDICTED BY IDOCK:   -6.74 KCAL/MOL
REMARK 924 INTRA-LIGAND FREE ENERGY PREDICTED BY IDOCK:    0.50 KCAL/MOL
REMARK 927      BINDING AFFINITY PREDICTED BY RF-SCORE:    0.00 PKD
ROOT
HETATM    1  C   UNL     1      -5.930  12.627  68.752  1.00  0.00    -0.067 C  
HETATM    2  C   UNL     1      -6.389  13.226  67.430  1.00  0.00    -0.014 C  
ENDROOT
BRANCH   2   3
HETATM    3  N   UNL     1      -7.368  12.344  66.787  1.00  0.00    -0.381 NA 
HETATM    4  H   UNL     1      -7.192  11.375  67.051  1.00  0.00     0.000 HD 
BRANCH   3   5
HETATM    5  C   UNL     1      -8.796  12.688  67.031  1.00  0.00    -0.212 C  
HETATM    6  C   UNL     1      -9.033  14.203  66.948  1.00  0.00    -0.247 C  
HETATM    7  C   UNL     1     -10.508  14.562  67.151  1.00  0.00    -0.267 C  
HETATM    8  C   UNL     1     -10.979  14.139  68.570  1.00  0.00    -0.254 C  
HETATM    9  N   UNL     1     -10.666  16.014  66.931  1.00  0.00    -0.298 NA 
HETATM   10  C   UNL     1      -9.357  12.041  68.331  1.00  0.00    -0.175 C  
HETATM   11  H2  UNL     1     -10.310  16.315  66.024  1.00  0.00     0.000 HD 
HETATM   12  H1  UNL     1     -11.648  16.253  67.067  1.00  0.00     0.000 HD 
HETATM   13  C   UNL     1     -10.678  12.643  68.851  1.00  0.00    -0.164 C  
HETATM   14  H   UNL     1     -10.487  11.459  70.448  1.00  0.00     0.000 HD 
HETATM   15  O   UNL     1     -10.672  12.374  70.276  1.00  0.00     1.069 OA 
BRANCH   8  16
HETATM   16  O   UNL     1     -12.416  14.399  68.677  1.00  0.00    -0.115 OA 
BRANCH  16  17
HETATM   17  C   UNL     1     -12.787  15.247  69.788  1.00  0.00     0.087 C  
HETATM   18  H1  UNL     1      -9.552  16.486  70.032  1.00  0.00     0.000 HD 
HETATM   19  O   UNL     1     -13.588  14.500  70.714  1.00  0.00    -0.253 OA 
HETATM   20  C   UNL     1     -12.931  13.949  71.792  1.00  0.00    -0.358 C  
HETATM   21  H2  UNL     1     -10.454  16.160  68.661  1.00  0.00     0.000 HD 
HETATM   22  N   UNL     1     -10.324  15.942  69.649  1.00  0.00    -0.281 NA 
HETATM   23  C   UNL     1     -11.921  14.598  72.385  1.00  0.00    -0.214 C  
HETATM   24  C   UNL     1     -11.601  16.082  70.377  1.00  0.00    -0.348 C  
HETATM   25  C   UNL     1     -11.468  15.930  71.896  1.00  0.00    -0.442 C  
BRANCH  20  26
HETATM   26  C   UNL     1     -13.517  12.630  72.239  1.00  0.00    -0.438 C  
HETATM   27  N   UNL     1     -12.998  11.455  71.542  1.00  0.00    -0.440 NA 
HETATM   28  H2  UNL     1     -11.981  11.428  71.606  1.00  0.00     0.000 HD 
HETATM   29  H1  UNL     1     -13.393  10.564  71.843  1.00  0.00     0.000 HD 
ENDBRANCH  20  26
ENDBRANCH  16  17
ENDBRANCH   8  16
BRANCH  10  30
HETATM   30  O   UNL     1      -9.371  10.571  68.303  1.00  0.00    -0.147 OA 
BRANCH  30  31
HETATM   31  C   UNL     1     -10.655   9.934  68.168  1.00  0.00    -0.227 C  
HETATM   32  O   UNL     1     -10.674   9.539  70.594  1.00  0.00    -0.260 OA 
HETATM   33  C   UNL     1     -10.476   7.043  67.701  1.00  0.00    -0.237 C  
HETATM   34  C   UNL     1     -11.075   8.970  69.336  1.00  0.00     0.018 C  
HETATM   35  O   UNL     1     -10.726   9.281  66.909  1.00  0.00    -0.206 OA 
HETATM   36  O   UNL     1     -11.772   6.753  67.137  1.00  0.00    -0.589 OA 
HETATM   37  C   UNL     1     -10.610   7.483  69.203  1.00  0.00    -0.197 C  
HETATM   38  H   UNL     1     -12.170   6.054  67.643  1.00  0.00     0.000 HD 
HETATM   39  C   UNL     1      -9.642   5.770  67.541  1.00  0.00    -0.118 C  
HETATM   40  H   UNL     1     -10.928   8.956  71.299  1.00  0.00     0.000 HD 
HETATM   41  C   UNL     1      -9.838   8.164  66.890  1.00  0.00    -0.247 C  
BRANCH  37  42
HETATM   42  N   UNL     1     -11.508   6.509  69.888  1.00  0.00    -0.511 NA 
HETATM   43  H   UNL     1     -11.402   5.508  69.719  1.00  0.00     0.000 HD 
HETATM   44  C   UNL     1     -12.527   6.985  70.791  1.00  0.00    -0.203 C  
ENDBRANCH  37  42
ENDBRANCH  30  31
ENDBRANCH  10  30
ENDBRANCH   3   5
ENDBRANCH   2   3
TORSDOF 8
ENDMDL
MODEL      211
REMARK 921   NORMALIZED FREE ENERGY PREDICTED BY IDOCK:   -3.69 KCAL/MOL
REMARK 922        TOTAL FREE ENERGY PREDICTED BY IDOCK:   -6.15 KCAL/MOL
REMARK 923 INTER-LIGAND FREE ENERGY PREDICTED BY IDOCK:   -5.65 KCAL/MOL
REMARK 924 INTRA-LIGAND FREE ENERGY PREDICTED BY IDOCK:   -0.50 KCAL/MOL
REMARK 927      BINDING AFFINITY PREDICTED BY RF-SCORE:    0.00 PKD
ROOT
HETATM    1  C   UNL     1     -13.452  10.187  72.195  1.00  0.00    -0.371 C  
HETATM    2  C   UNL     1     -12.404   9.492  71.336  1.00  0.00    -0.364 C  
ENDROOT
BRANCH   2   3
HETATM    3  N   UNL     1     -12.366  10.093  69.999  1.00  0.00    -0.515 NA 
HETATM    4  H   UNL     1     -13.309  10.339  69.700  1.00  0.00     0.000 HD 
BRANCH   3   5
HETATM    5  C   UNL     1     -11.460  11.265  69.851  1.00  0.00    -0.293 C  
HETATM    6  C   UNL     1     -12.214  12.588  70.058  1.00  0.00    -0.262 C  
HETATM    7  C   UNL     1     -11.281  13.797  69.954  1.00  0.00     0.007 C  
HETATM    8  C   UNL     1     -10.661  13.885  68.532  1.00  0.00    -0.257 C  
HETATM    9  N   UNL     1     -12.056  15.010  70.289  1.00  0.00    -0.306 NA 
HETATM   10  C   UNL     1     -10.631  11.222  68.535  1.00  0.00    -0.199 C  
HETATM   11  H2  UNL     1     -12.514  14.945  71.198  1.00  0.00     0.000 HD 
HETATM   12  H1  UNL     1     -11.435  15.815  70.219  1.00  0.00     0.000 HD 
HETATM   13  C   UNL     1      -9.972  12.555  68.126  1.00  0.00    -0.224 C  
HETATM   14  H   UNL     1      -9.401  11.653  66.437  1.00  0.00     0.000 HD 
HETATM   15  O   UNL     1      -9.822  12.467  66.686  1.00  0.00    -0.229 OA 
BRANCH   8  16
HETATM   16  O   UNL     1      -9.695  14.985  68.514  1.00  0.00    -0.204 OA 
BRANCH  16  17
HETATM   17  C   UNL     1      -9.818  15.867  67.374  1.00  0.00    -0.234 C  
HETATM   18  H1  UNL     1      -6.737  14.842  66.142  1.00  0.00     0.000 HD 
HETATM   19  O   UNL     1     -10.284  17.150  67.810  1.00  0.00    -0.297 OA 
HETATM   20  C   UNL     1      -9.325  18.115  68.025  1.00  0.00    -0.283 C  
HETATM   21  H2  UNL     1      -7.946  13.926  66.849  1.00  0.00     0.000 HD 
HETATM   22  N   UNL     1      -7.541  14.859  66.769  1.00  0.00     0.111 NA 
HETATM   23  C   UNL     1      -8.244  18.194  67.238  1.00  0.00    -0.234 C  
HETATM   24  C   UNL     1      -8.584  15.841  66.412  1.00  0.00    -0.311 C  
HETATM   25  C   UNL     1      -8.039  17.241  66.112  1.00  0.00    -0.272 C  
BRANCH  20  26
HETATM   26  C   UNL     1      -9.669  19.062  69.150  1.00  0.00    -0.255 C  
HETATM   27  N   UNL     1     -10.736  18.606  70.039  1.00  0.00     0.866 NA 
HETATM   28  H2  UNL     1     -10.512  17.683  70.412  1.00  0.00     0.000 HD 
HETATM   29  H1  UNL     1     -10.969  19.245  70.799  1.00  0.00     0.000 HD 
ENDBRANCH  20  26
ENDBRANCH  16  17
ENDBRANCH   8  16
BRANCH  10  30
HETATM   30  O   UNL     1      -9.708  10.080  68.454  1.00  0.00    -0.142 OA 
BRANCH  30  31
HETATM   31  C   UNL     1      -9.730   9.146  69.551  1.00  0.00    -0.173 C  
HETATM   32  O   UNL     1      -7.515   9.957  70.239  1.00  0.00    -0.156 OA 
HETATM   33  C   UNL     1      -8.565   6.538  68.880  1.00  0.00    -0.125 C  
HETATM   34  C   UNL     1      -8.335   8.779  70.174  1.00  0.00    -0.131 C  
HETATM   35  O   UNL     1     -10.444   7.982  69.162  1.00  0.00    -0.219 OA 
HETATM   36  O   UNL     1      -9.126   5.691  69.903  1.00  0.00    -0.132 OA 
HETATM   37  C   UNL     1      -7.575   7.585  69.509  1.00  0.00    -0.095 C  
HETATM   38  H   UNL     1      -8.415   5.238  70.343  1.00  0.00     0.000 HD 
HETATM   39  C   UNL     1      -7.869   5.608  67.884  1.00  0.00    -0.097 C  
HETATM   40  H   UNL     1      -6.672   9.735  70.616  1.00  0.00     0.000 HD 
HETATM   41  C   UNL     1      -9.704   7.263  68.176  1.00  0.00    -0.145 C  
BRANCH  37  42
HETATM   42  N   UNL     1      -6.666   6.856  70.440  1.00  0.00    -0.052 NA 
HETATM   43  H   UNL     1      -6.019   6.155  70.079  1.00  0.00     0.000 HD 
HETATM   44  C   UNL     1      -6.706   7.146  71.852  1.00  0.00    -0.056 C  
ENDBRANCH  37  42
ENDBRANCH  30  31
ENDBRANCH  10  30
ENDBRANCH   3   5
ENDBRANCH   2   3
TORSDOF 8
ENDMDL
MODEL      212
REMARK 921   NORMALIZED FREE ENERGY PREDICTED BY IDOCK:   -3.67 KCAL/MOL
REMARK 922        TOTAL FREE ENERGY PREDICTED BY IDOCK:   -6.12 KCAL/MOL
REMARK 923 INTER-LIGAND FREE ENERGY PREDICTED BY IDOCK:   -6.15 KCAL/MOL
REMARK 924 INTRA-LIGAND FREE ENERGY PREDICTED BY IDOCK:    0.03 KCAL/MOL
REMARK 927      BINDING AFFINITY PREDICTED BY RF-SCORE:    0.00 PKD
ROOT
HETATM    1  C   UNL     1     -11.842  12.481  67.762  1.00  0.00    -0.375 C  
HETATM    2  C   UNL     1     -12.113  11.429  68.828  1.00  0.00    -0.189 C  
ENDROOT
BRANCH   2   3
HETATM    3  N   UNL     1     -10.945  11.278  69.700  1.00  0.00    -0.423 NA 
HETATM    4  H   UNL     1     -10.977  11.969  70.450  1.00  0.00     0.000 HD 
BRANCH   3   5
HETATM    5  C   UNL     1     -10.742   9.917  70.268  1.00  0.00    -0.310 C  
HETATM    6  C   UNL     1     -11.727   9.633  71.412  1.00  0.00    -0.478 C  
HETATM    7  C   UNL     1     -11.556   8.217  71.972  1.00  0.00    -0.340 C  
HETATM    8  C   UNL     1     -10.139   8.041  72.582  1.00  0.00    -0.301 C  
HETATM    9  N   UNL     1     -12.617   7.985  72.974  1.00  0.00    -0.450 NA 
HETATM   10  C   UNL     1      -9.258   9.635  70.640  1.00  0.00    -0.084 C  
HETATM   11  H2  UNL     1     -13.552   8.150  72.601  1.00  0.00     0.000 HD 
HETATM   12  H1  UNL     1     -12.504   7.043  73.346  1.00  0.00     0.000 HD 
HETATM   13  C   UNL     1      -9.028   8.426  71.570  1.00  0.00    -0.194 C  
HETATM   14  H   UNL     1      -7.102   8.952  71.633  1.00  0.00     0.000 HD 
HETATM   15  O   UNL     1      -7.782   8.716  72.253  1.00  0.00    -0.287 OA 
BRANCH   8  16
HETATM   16  O   UNL     1      -9.985   6.646  73.001  1.00  0.00    -0.163 OA 
BRANCH  16  17
HETATM   17  C   UNL     1     -10.110   5.685  71.927  1.00  0.00    -0.189 C  
HETATM   18  H1  UNL     1     -10.971   3.171  74.165  1.00  0.00     0.000 HD 
HETATM   19  O   UNL     1      -8.997   5.817  71.035  1.00  0.00    -0.139 OA 
HETATM   20  C   UNL     1      -7.942   4.953  71.231  1.00  0.00    -0.101 C  
HETATM   21  H2  UNL     1     -11.447   4.775  74.149  1.00  0.00     0.000 HD 
HETATM   22  N   UNL     1     -10.731   4.112  73.854  1.00  0.00    -0.229 NA 
HETATM   23  C   UNL     1      -8.155   3.687  71.612  1.00  0.00    -0.066 C  
HETATM   24  C   UNL     1     -10.480   4.240  72.405  1.00  0.00    -0.126 C  
HETATM   25  C   UNL     1      -9.534   3.173  71.844  1.00  0.00    -0.210 C  
BRANCH  20  26
HETATM   26  C   UNL     1      -6.599   5.563  70.905  1.00  0.00    -0.043 C  
HETATM   27  N   UNL     1      -5.812   4.833  69.914  1.00  0.00    -0.016 NA 
HETATM   28  H2  UNL     1      -6.355   4.702  69.061  1.00  0.00     0.000 HD 
HETATM   29  H1  UNL     1      -4.905   5.245  69.694  1.00  0.00     0.000 HD 
ENDBRANCH  20  26
ENDBRANCH  16  17
ENDBRANCH   8  16
BRANCH  10  30
HETATM   30  O   UNL     1      -8.345   9.651  69.487  1.00  0.00    -0.124 OA 
BRANCH  30  31
HETATM   31  C   UNL     1      -8.743  10.443  68.352  1.00  0.00    -0.129 C  
HETATM   32  O   UNL     1      -8.032   8.615  66.872  1.00  0.00    -0.094 OA 
HETATM   33  C   UNL     1      -6.588  12.132  67.298  1.00  0.00    -0.146 C  
HETATM   34  C   UNL     1      -8.102  10.047  66.973  1.00  0.00    -0.117 C  
HETATM   35  O   UNL     1      -8.536  11.817  68.642  1.00  0.00    -0.142 OA 
HETATM   36  O   UNL     1      -7.326  13.122  66.551  1.00  0.00     0.057 OA 
HETATM   37  C   UNL     1      -6.731  10.715  66.634  1.00  0.00    -0.106 C  
HETATM   38  H   UNL     1      -6.983  13.146  65.665  1.00  0.00     0.000 HD 
HETATM   39  C   UNL     1      -5.136  12.613  67.334  1.00  0.00    -0.034 C  
HETATM   40  H   UNL     1      -7.645   8.375  66.039  1.00  0.00     0.000 HD 
HETATM   41  C   UNL     1      -7.138  12.093  68.719  1.00  0.00    -0.110 C  
BRANCH  37  42
HETATM   42  N   UNL     1      -6.481  10.868  65.171  1.00  0.00    -0.366 NA 
HETATM   43  H   UNL     1      -7.146  11.378  64.589  1.00  0.00     0.000 HD 
HETATM   44  C   UNL     1      -5.297  10.291  64.582  1.00  0.00    -0.123 C  
ENDBRANCH  37  42
ENDBRANCH  30  31
ENDBRANCH  10  30
ENDBRANCH   3   5
ENDBRANCH   2   3
TORSDOF 8
ENDMDL
MODEL      213
REMARK 921   NORMALIZED FREE ENERGY PREDICTED BY IDOCK:   -3.63 KCAL/MOL
REMARK 922        TOTAL FREE ENERGY PREDICTED BY IDOCK:   -6.07 KCAL/MOL
REMARK 923 INTER-LIGAND FREE ENERGY PREDICTED BY IDOCK:   -5.64 KCAL/MOL
REMARK 924 INTRA-LIGAND FREE ENERGY PREDICTED BY IDOCK:   -0.44 KCAL/MOL
REMARK 927      BINDING AFFINITY PREDICTED BY RF-SCORE:    0.00 PKD
ROOT
HETATM    1  C   UNL     1      -7.289  14.134  67.420  1.00  0.00    -0.143 C  
HETATM    2  C   UNL     1      -7.591  13.059  68.455  1.00  0.00    -0.133 C  
ENDROOT
BRANCH   2   3
HETATM    3  N   UNL     1      -7.894  11.788  67.791  1.00  0.00    -0.127 NA 
HETATM    4  H   UNL     1      -7.218  11.612  67.047  1.00  0.00     0.000 HD 
BRANCH   3   5
HETATM    5  C   UNL     1      -7.982  10.603  68.689  1.00  0.00    -0.128 C  
HETATM    6  C   UNL     1      -7.114   9.443  68.177  1.00  0.00    -0.076 C  
HETATM    7  C   UNL     1      -7.163   8.237  69.119  1.00  0.00    -0.072 C  
HETATM    8  C   UNL     1      -8.608   7.674  69.208  1.00  0.00    -0.136 C  
HETATM    9  N   UNL     1      -6.210   7.223  68.622  1.00  0.00    -0.030 NA 
HETATM   10  C   UNL     1      -9.450  10.191  68.999  1.00  0.00    -0.190 C  
HETATM   11  H2  UNL     1      -5.266   7.594  68.506  1.00  0.00     0.000 HD 
HETATM   12  H1  UNL     1      -6.242   6.420  69.249  1.00  0.00     0.000 HD 
HETATM   13  C   UNL     1      -9.629   8.778  69.590  1.00  0.00    -0.171 C  
HETATM   14  H   UNL     1     -11.602   9.065  69.451  1.00  0.00     0.000 HD 
HETATM   15  O   UNL     1     -10.976   8.389  69.218  1.00  0.00    -0.112 OA 
BRANCH   8  16
HETATM   16  O   UNL     1      -8.626   6.598  70.201  1.00  0.00    -0.137 OA 
BRANCH  16  17
HETATM   17  C   UNL     1      -8.952   5.296  69.662  1.00  0.00    -0.107 C  
HETATM   18  H1  UNL     1     -11.233   4.717  72.217  1.00  0.00     0.000 HD 
HETATM   19  O   UNL     1      -7.746   4.613  69.297  1.00  0.00    -0.062 OA 
HETATM   20  C   UNL     1      -7.234   3.728  70.220  1.00  0.00    -0.041 C  
HETATM   21  H2  UNL     1     -10.947   6.125  71.360  1.00  0.00     0.000 HD 
HETATM   22  N   UNL     1     -10.551   5.236  71.664  1.00  0.00    -0.217 NA 
HETATM   23  C   UNL     1      -8.047   2.978  70.976  1.00  0.00    -0.062 C  
HETATM   24  C   UNL     1      -9.999   4.498  70.511  1.00  0.00    -0.208 C  
HETATM   25  C   UNL     1      -9.527   3.081  70.850  1.00  0.00    -0.229 C  
BRANCH  20  26
HETATM   26  C   UNL     1      -5.724   3.663  70.214  1.00  0.00    -0.017 C  
HETATM   27  N   UNL     1      -5.148   2.583  71.012  1.00  0.00    -0.003 NA 
HETATM   28  H2  UNL     1      -5.540   1.686  70.724  1.00  0.00     0.000 HD 
HETATM   29  H1  UNL     1      -4.129   2.539  71.008  1.00  0.00     0.000 HD 
ENDBRANCH  20  26
ENDBRANCH  16  17
ENDBRANCH   8  16
BRANCH  10  30
HETATM   30  O   UNL     1     -10.211  11.216  69.729  1.00  0.00     0.067 OA 
BRANCH  30  31
HETATM   31  C   UNL     1     -11.481  11.605  69.170  1.00  0.00    -0.300 C  
HETATM   32  O   UNL     1     -10.971  10.269  67.172  1.00  0.00    -0.251 OA 
HETATM   33  C   UNL     1     -11.342  14.057  67.564  1.00  0.00    -0.321 C  
HETATM   34  C   UNL     1     -11.619  11.475  67.610  1.00  0.00    -0.247 C  
HETATM   35  O   UNL     1     -11.805  12.916  69.609  1.00  0.00    -0.311 OA 
HETATM   36  O   UNL     1     -12.721  14.477  67.545  1.00  0.00    -0.306 OA 
HETATM   37  C   UNL     1     -11.160  12.712  66.772  1.00  0.00    -0.277 C  
HETATM   38  H   UNL     1     -12.986  14.598  66.641  1.00  0.00     0.000 HD 
HETATM   39  C   UNL     1     -10.533  15.203  66.954  1.00  0.00    -0.282 C  
HETATM   40  H   UNL     1     -11.054  10.190  66.229  1.00  0.00     0.000 HD 
HETATM   41  C   UNL     1     -10.917  13.862  69.014  1.00  0.00    -0.250 C  
BRANCH  37  42
HETATM   42  N   UNL     1     -11.868  12.850  65.466  1.00  0.00    -0.386 NA 
HETATM   43  H   UNL     1     -12.872  13.032  65.445  1.00  0.00     0.000 HD 
HETATM   44  C   UNL     1     -11.130  12.723  64.234  1.00  0.00    -0.370 C  
ENDBRANCH  37  42
ENDBRANCH  30  31
ENDBRANCH  10  30
ENDBRANCH   3   5
ENDBRANCH   2   3
TORSDOF 8
ENDMDL
MODEL      214
REMARK 921   NORMALIZED FREE ENERGY PREDICTED BY IDOCK:   -3.56 KCAL/MOL
REMARK 922        TOTAL FREE ENERGY PREDICTED BY IDOCK:   -5.96 KCAL/MOL
REMARK 923 INTER-LIGAND FREE ENERGY PREDICTED BY IDOCK:   -6.18 KCAL/MOL
REMARK 924 INTRA-LIGAND FREE ENERGY PREDICTED BY IDOCK:    0.22 KCAL/MOL
REMARK 927      BINDING AFFINITY PREDICTED BY RF-SCORE:    0.00 PKD
ROOT
HETATM    1  C   UNL     1      -6.834   9.803  68.632  1.00  0.00    -0.051 C  
HETATM    2  C   UNL     1      -6.389  11.202  68.226  1.00  0.00    -0.049 C  
ENDROOT
BRANCH   2   3
HETATM    3  N   UNL     1      -6.712  12.163  69.284  1.00  0.00    -0.184 NA 
HETATM    4  H   UNL     1      -6.134  11.985  70.106  1.00  0.00     0.000 HD 
BRANCH   3   5
HETATM    5  C   UNL     1      -6.619  13.598  68.896  1.00  0.00    -0.105 C  
HETATM    6  C   UNL     1      -6.129  14.466  70.065  1.00  0.00    -0.151 C  
HETATM    7  C   UNL     1      -5.985  15.936  69.661  1.00  0.00    -0.154 C  
HETATM    8  C   UNL     1      -7.363  16.524  69.248  1.00  0.00    -0.201 C  
HETATM    9  N   UNL     1      -5.394  16.673  70.797  1.00  0.00    -0.180 NA 
HETATM   10  C   UNL     1      -7.922  14.128  68.231  1.00  0.00    -0.140 C  
HETATM   11  H2  UNL     1      -4.515  16.265  71.115  1.00  0.00     0.000 HD 
HETATM   12  H1  UNL     1      -5.298  17.651  70.529  1.00  0.00     0.000 HD 
HETATM   13  C   UNL     1      -8.047  15.662  68.154  1.00  0.00    -0.136 C  
HETATM   14  H   UNL     1      -9.894  15.389  67.442  1.00  0.00     0.000 HD 
HETATM   15  O   UNL     1      -9.475  15.916  68.112  1.00  0.00    -0.201 OA 
BRANCH   8  16
HETATM   16  O   UNL     1      -7.157  17.891  68.766  1.00  0.00    -0.251 OA 
BRANCH  16  17
HETATM   17  C   UNL     1      -6.995  17.999  67.333  1.00  0.00    -0.191 C  
HETATM   18  H1  UNL     1      -4.471  20.355  67.711  1.00  0.00     0.000 HD 
HETATM   19  O   UNL     1      -8.283  18.083  66.710  1.00  0.00    -0.234 OA 
HETATM   20  C   UNL     1      -8.743  19.347  66.413  1.00  0.00    -0.355 C  
HETATM   21  H2  UNL     1      -4.754  18.964  68.597  1.00  0.00     0.000 HD 
HETATM   22  N   UNL     1      -5.175  19.676  68.000  1.00  0.00    -0.171 NA 
HETATM   23  C   UNL     1      -7.902  20.303  65.998  1.00  0.00    -0.179 C  
HETATM   24  C   UNL     1      -5.914  19.042  66.890  1.00  0.00    -0.162 C  
HETATM   25  C   UNL     1      -6.444  20.037  65.852  1.00  0.00    -0.239 C  
BRANCH  20  26
HETATM   26  C   UNL     1     -10.243  19.482  66.536  1.00  0.00    -0.467 C  
HETATM   27  N   UNL     1     -10.737  19.681  67.897  1.00  0.00    -0.356 NA 
HETATM   28  H2  UNL     1     -10.275  20.484  68.325  1.00  0.00     0.000 HD 
HETATM   29  H1  UNL     1     -11.750  19.773  67.980  1.00  0.00     0.000 HD 
ENDBRANCH  20  26
ENDBRANCH  16  17
ENDBRANCH   8  16
BRANCH  10  30
HETATM   30  O   UNL     1      -8.251  13.462  66.961  1.00  0.00    -0.142 OA 
BRANCH  30  31
HETATM   31  C   UNL     1      -9.625  13.074  66.767  1.00  0.00    -0.248 C  
HETATM   32  O   UNL     1      -9.861  12.826  69.201  1.00  0.00    -0.378 OA 
HETATM   33  C   UNL     1      -9.980  10.181  66.440  1.00  0.00    -0.234 C  
HETATM   34  C   UNL     1     -10.290  12.274  67.945  1.00  0.00    -0.208 C  
HETATM   35  O   UNL     1      -9.747  12.378  65.536  1.00  0.00    -0.225 OA 
HETATM   36  O   UNL     1     -11.272  10.111  65.802  1.00  0.00     0.556 OA 
HETATM   37  C   UNL     1     -10.115  10.721  67.909  1.00  0.00    -0.172 C  
HETATM   38  H   UNL     1     -11.827   9.529  66.310  1.00  0.00     0.000 HD 
HETATM   39  C   UNL     1      -9.400   8.766  66.393  1.00  0.00    -0.264 C  
HETATM   40  H   UNL     1     -10.264  12.342  69.912  1.00  0.00     0.000 HD 
HETATM   41  C   UNL     1      -9.091  11.113  65.626  1.00  0.00    -0.205 C  
BRANCH  37  42
HETATM   42  N   UNL     1     -11.222   9.975  68.573  1.00  0.00    -0.474 NA 
HETATM   43  H   UNL     1     -12.188  10.279  68.453  1.00  0.00     0.000 HD 
HETATM   44  C   UNL     1     -10.922   8.822  69.386  1.00  0.00    -0.030 C  
ENDBRANCH  37  42
ENDBRANCH  30  31
ENDBRANCH  10  30
ENDBRANCH   3   5
ENDBRANCH   2   3
TORSDOF 8
ENDMDL
MODEL      215
REMARK 921   NORMALIZED FREE ENERGY PREDICTED BY IDOCK:   -3.51 KCAL/MOL
REMARK 922        TOTAL FREE ENERGY PREDICTED BY IDOCK:   -5.89 KCAL/MOL
REMARK 923 INTER-LIGAND FREE ENERGY PREDICTED BY IDOCK:   -5.02 KCAL/MOL
REMARK 924 INTRA-LIGAND FREE ENERGY PREDICTED BY IDOCK:   -0.86 KCAL/MOL
REMARK 927      BINDING AFFINITY PREDICTED BY RF-SCORE:    0.00 PKD
ROOT
HETATM    1  C   UNL     1     -10.132   4.501  66.009  1.00  0.00    -0.282 C  
HETATM    2  C   UNL     1      -8.881   4.699  65.164  1.00  0.00    -0.147 C  
ENDROOT
BRANCH   2   3
HETATM    3  N   UNL     1      -7.949   5.603  65.843  1.00  0.00    -0.104 NA 
HETATM    4  H   UNL     1      -7.031   5.555  65.401  1.00  0.00     0.000 HD 
BRANCH   3   5
HETATM    5  C   UNL     1      -8.392   7.021  65.945  1.00  0.00    -0.141 C  
HETATM    6  C   UNL     1      -8.733   7.604  64.565  1.00  0.00     0.376 C  
HETATM    7  C   UNL     1      -9.235   9.047  64.666  1.00  0.00     0.146 C  
HETATM    8  C   UNL     1      -8.129   9.968  65.250  1.00  0.00    -0.145 C  
HETATM    9  N   UNL     1      -9.657   9.485  63.319  1.00  0.00    -0.426 NA 
HETATM   10  C   UNL     1      -7.407   7.902  66.767  1.00  0.00    -0.089 C  
HETATM   11  H2  UNL     1     -10.344   8.859  62.899  1.00  0.00     0.000 HD 
HETATM   12  H1  UNL     1      -9.991  10.446  63.386  1.00  0.00     0.000 HD 
HETATM   13  C   UNL     1      -7.585   9.424  66.598  1.00  0.00    -0.094 C  
HETATM   14  H   UNL     1      -5.948   9.652  67.720  1.00  0.00     0.000 HD 
HETATM   15  O   UNL     1      -6.281   9.985  66.895  1.00  0.00    -0.061 OA 
BRANCH   8  16
HETATM   16  O   UNL     1      -8.689  11.309  65.431  1.00  0.00    -0.120 OA 
BRANCH  16  17
HETATM   17  C   UNL     1     -10.103  11.327  65.736  1.00  0.00    -0.247 C  
HETATM   18  H1  UNL     1     -10.846  12.650  62.611  1.00  0.00     0.000 HD 
HETATM   19  O   UNL     1     -10.301  11.848  67.056  1.00  0.00    -0.208 OA 
HETATM   20  C   UNL     1     -10.609  13.188  67.151  1.00  0.00    -0.257 C  
HETATM   21  H2  UNL     1      -9.737  11.464  63.016  1.00  0.00     0.000 HD 
HETATM   22  N   UNL     1     -10.265  12.267  63.357  1.00  0.00    -0.396 NA 
HETATM   23  C   UNL     1     -11.389  13.779  66.236  1.00  0.00    -0.329 C  
HETATM   24  C   UNL     1     -10.995  11.915  64.591  1.00  0.00    -0.316 C  
HETATM   25  C   UNL     1     -11.942  13.013  65.085  1.00  0.00    -0.440 C  
BRANCH  20  26
HETATM   26  C   UNL     1     -10.047  13.845  68.390  1.00  0.00    -0.237 C  
HETATM   27  N   UNL     1      -8.623  14.168  68.328  1.00  0.00    -0.169 NA 
HETATM   28  H2  UNL     1      -8.428  14.741  67.506  1.00  0.00     0.000 HD 
HETATM   29  H1  UNL     1      -8.243  14.611  69.164  1.00  0.00     0.000 HD 
ENDBRANCH  20  26
ENDBRANCH  16  17
ENDBRANCH   8  16
BRANCH  10  30
HETATM   30  O   UNL     1      -7.280   7.493  68.174  1.00  0.00    -0.085 OA 
BRANCH  30  31
HETATM   31  C   UNL     1      -8.194   8.093  69.111  1.00  0.00    -0.123 C  
HETATM   32  O   UNL     1      -6.278   9.077  70.295  1.00  0.00    -0.039 OA 
HETATM   33  C   UNL     1      -8.755   6.394  71.437  1.00  0.00    -0.131 C  
HETATM   34  C   UNL     1      -7.585   8.514  70.498  1.00  0.00    -0.074 C  
HETATM   35  O   UNL     1      -9.319   7.245  69.278  1.00  0.00    -0.154 OA 
HETATM   36  O   UNL     1      -9.989   6.960  71.926  1.00  0.00    -0.173 OA 
HETATM   37  C   UNL     1      -7.571   7.414  71.607  1.00  0.00    -0.085 C  
HETATM   38  H   UNL     1      -9.878   7.173  72.845  1.00  0.00     0.000 HD 
HETATM   39  C   UNL     1      -8.529   5.105  72.228  1.00  0.00    -0.125 C  
HETATM   40  H   UNL     1      -5.910   9.332  71.133  1.00  0.00     0.000 HD 
HETATM   41  C   UNL     1      -8.933   6.053  69.963  1.00  0.00    -0.146 C  
BRANCH  37  42
HETATM   42  N   UNL     1      -7.631   7.957  72.995  1.00  0.00    -0.111 NA 
HETATM   43  H   UNL     1      -8.506   7.929  73.519  1.00  0.00     0.000 HD 
HETATM   44  C   UNL     1      -6.447   8.524  73.593  1.00  0.00    -0.090 C  
ENDBRANCH  37  42
ENDBRANCH  30  31
ENDBRANCH  10  30
ENDBRANCH   3   5
ENDBRANCH   2   3
TORSDOF 8
ENDMDL
MODEL      216
REMARK 921   NORMALIZED FREE ENERGY PREDICTED BY IDOCK:   -3.36 KCAL/MOL
REMARK 922        TOTAL FREE ENERGY PREDICTED BY IDOCK:   -5.67 KCAL/MOL
REMARK 923 INTER-LIGAND FREE ENERGY PREDICTED BY IDOCK:   -7.32 KCAL/MOL
REMARK 924 INTRA-LIGAND FREE ENERGY PREDICTED BY IDOCK:    1.65 KCAL/MOL
REMARK 927      BINDING AFFINITY PREDICTED BY RF-SCORE:    0.00 PKD
ROOT
HETATM    1  C   UNL     1     -12.685  14.810  70.426  1.00  0.00    -0.368 C  
HETATM    2  C   UNL     1     -12.431  13.497  69.698  1.00  0.00    -0.054 C  
ENDROOT
BRANCH   2   3
HETATM    3  N   UNL     1     -11.071  13.022  69.971  1.00  0.00    -0.318 NA 
HETATM    4  H   UNL     1     -11.079  12.375  70.760  1.00  0.00     0.000 HD 
BRANCH   3   5
HETATM    5  C   UNL     1     -10.364  12.408  68.814  1.00  0.00    -0.121 C  
HETATM    6  C   UNL     1     -10.582  10.888  68.764  1.00  0.00    -0.231 C  
HETATM    7  C   UNL     1      -9.896  10.254  67.550  1.00  0.00    -0.173 C  
HETATM    8  C   UNL     1      -8.358  10.457  67.627  1.00  0.00    -0.114 C  
HETATM    9  N   UNL     1     -10.258   8.822  67.509  1.00  0.00    -0.228 NA 
HETATM   10  C   UNL     1      -8.867  12.825  68.733  1.00  0.00     0.184 C  
HETATM   11  H2  UNL     1     -11.268   8.672  67.513  1.00  0.00     0.000 HD 
HETATM   12  H1  UNL     1      -9.802   8.400  66.701  1.00  0.00     0.000 HD 
HETATM   13  C   UNL     1      -7.987  11.952  67.816  1.00  0.00    -0.144 C  
HETATM   14  H   UNL     1      -6.418  13.004  68.466  1.00  0.00     0.000 HD 
HETATM   15  O   UNL     1      -6.645  12.089  68.350  1.00  0.00    -0.052 OA 
BRANCH   8  16
HETATM   16  O   UNL     1      -7.760   9.935  66.396  1.00  0.00    -0.101 OA 
BRANCH  16  17
HETATM   17  C   UNL     1      -8.585   8.979  65.692  1.00  0.00    -0.166 C  
HETATM   18  H1  UNL     1      -5.842   6.936  65.081  1.00  0.00     0.000 HD 
HETATM   19  O   UNL     1      -9.466   9.672  64.799  1.00  0.00    -0.267 OA 
HETATM   20  C   UNL     1      -9.059   9.777  63.487  1.00  0.00    -0.228 C  
HETATM   21  H2  UNL     1      -6.235   7.785  66.469  1.00  0.00     0.000 HD 
HETATM   22  N   UNL     1      -6.358   7.732  65.458  1.00  0.00    -0.041 NA 
HETATM   23  C   UNL     1      -8.399   8.775  62.892  1.00  0.00    -0.182 C  
HETATM   24  C   UNL     1      -7.793   7.758  65.114  1.00  0.00    -0.123 C  
HETATM   25  C   UNL     1      -8.078   7.520  63.627  1.00  0.00    -0.021 C  
BRANCH  20  26
HETATM   26  C   UNL     1      -9.495  11.063  62.826  1.00  0.00    -0.334 C  
HETATM   27  N   UNL     1     -10.935  11.313  62.847  1.00  0.00    -0.786 NA 
HETATM   28  H2  UNL     1     -11.285  11.273  63.804  1.00  0.00     0.000 HD 
HETATM   29  H1  UNL     1     -11.230  12.181  62.400  1.00  0.00     0.000 HD 
ENDBRANCH  20  26
ENDBRANCH  16  17
ENDBRANCH   8  16
BRANCH  10  30
HETATM   30  O   UNL     1      -8.664  14.265  68.518  1.00  0.00    -0.176 OA 
BRANCH  30  31
HETATM   31  C   UNL     1      -9.847  15.078  68.396  1.00  0.00    -0.222 C  
HETATM   32  O   UNL     1     -10.340  13.978  66.255  1.00  0.00    -0.280 OA 
HETATM   33  C   UNL     1      -9.379  17.608  66.986  1.00  0.00    -0.257 C  
HETATM   34  C   UNL     1     -10.433  15.235  66.946  1.00  0.00    -0.289 C  
HETATM   35  O   UNL     1      -9.612  16.343  68.997  1.00  0.00    -0.249 OA 
HETATM   36  O   UNL     1     -10.507  18.399  67.413  1.00  0.00    -0.382 OA 
HETATM   37  C   UNL     1      -9.851  16.406  66.090  1.00  0.00    -0.338 C  
HETATM   38  H   UNL     1     -10.953  18.728  66.641  1.00  0.00     0.000 HD 
HETATM   39  C   UNL     1      -8.446  18.560  66.235  1.00  0.00    -0.227 C  
HETATM   40  H   UNL     1     -10.695  14.073  65.379  1.00  0.00     0.000 HD 
HETATM   41  C   UNL     1      -8.665  17.080  68.224  1.00  0.00    -0.241 C  
BRANCH  37  42
HETATM   42  N   UNL     1     -10.802  16.938  65.073  1.00  0.00    -0.654 NA 
HETATM   43  H   UNL     1     -10.885  17.945  64.926  1.00  0.00     0.000 HD 
HETATM   44  C   UNL     1     -11.606  16.026  64.298  1.00  0.00    -0.138 C  
ENDBRANCH  37  42
ENDBRANCH  30  31
ENDBRANCH  10  30
ENDBRANCH   3   5
ENDBRANCH   2   3
TORSDOF 8
ENDMDL
MODEL      217
REMARK 921   NORMALIZED FREE ENERGY PREDICTED BY IDOCK:   -3.34 KCAL/MOL
REMARK 922        TOTAL FREE ENERGY PREDICTED BY IDOCK:   -5.65 KCAL/MOL
REMARK 923 INTER-LIGAND FREE ENERGY PREDICTED BY IDOCK:   -4.17 KCAL/MOL
REMARK 924 INTRA-LIGAND FREE ENERGY PREDICTED BY IDOCK:   -1.48 KCAL/MOL
REMARK 927      BINDING AFFINITY PREDICTED BY RF-SCORE:    0.00 PKD
ROOT
HETATM    1  C   UNL     1     -12.973  11.913  63.182  1.00  0.00    -0.023 C  
HETATM    2  C   UNL     1     -11.849  12.907  63.441  1.00  0.00    -0.507 C  
ENDROOT
BRANCH   2   3
HETATM    3  N   UNL     1     -11.331  12.742  64.803  1.00  0.00    -0.298 NA 
HETATM    4  H   UNL     1     -12.034  12.298  65.393  1.00  0.00     0.000 HD 
BRANCH   3   5
HETATM    5  C   UNL     1     -10.038  12.012  64.911  1.00  0.00    -0.260 C  
HETATM    6  C   UNL     1     -10.153  10.581  64.364  1.00  0.00    -0.395 C  
HETATM    7  C   UNL     1      -8.815   9.838  64.428  1.00  0.00    -0.227 C  
HETATM    8  C   UNL     1      -8.347   9.689  65.902  1.00  0.00    -0.120 C  
HETATM    9  N   UNL     1      -8.983   8.525  63.771  1.00  0.00    -0.206 NA 
HETATM   10  C   UNL     1      -9.424  12.084  66.339  1.00  0.00    -0.231 C  
HETATM   11  H2  UNL     1      -9.343   8.605  62.820  1.00  0.00     0.000 HD 
HETATM   12  H1  UNL     1      -8.093   8.031  63.814  1.00  0.00     0.000 HD 
HETATM   13  C   UNL     1      -8.311  11.058  66.632  1.00  0.00    -0.155 C  
HETATM   14  H   UNL     1      -8.321  11.716  68.518  1.00  0.00     0.000 HD 
HETATM   15  O   UNL     1      -8.343  10.878  68.071  1.00  0.00    -0.116 OA 
BRANCH   8  16
HETATM   16  O   UNL     1      -7.017   9.075  65.905  1.00  0.00    -0.085 OA 
BRANCH  16  17
HETATM   17  C   UNL     1      -6.946   7.811  66.605  1.00  0.00    -0.071 C  
HETATM   18  H1  UNL     1      -6.287   6.114  63.647  1.00  0.00     0.000 HD 
HETATM   19  O   UNL     1      -8.037   7.714  67.529  1.00  0.00    -0.117 OA 
HETATM   20  C   UNL     1      -9.151   7.028  67.099  1.00  0.00    -0.128 C  
HETATM   21  H2  UNL     1      -5.701   7.593  64.165  1.00  0.00     0.000 HD 
HETATM   22  N   UNL     1      -6.459   6.916  64.253  1.00  0.00    -0.035 NA 
HETATM   23  C   UNL     1      -9.031   5.944  66.321  1.00  0.00    -0.153 C  
HETATM   24  C   UNL     1      -6.683   6.581  65.673  1.00  0.00    -0.048 C  
HETATM   25  C   UNL     1      -7.694   5.450  65.890  1.00  0.00    -0.091 C  
BRANCH  20  26
HETATM   26  C   UNL     1     -10.445   7.581  67.650  1.00  0.00    -0.250 C  
HETATM   27  N   UNL     1     -10.291   8.640  68.645  1.00  0.00    -0.198 NA 
HETATM   28  H2  UNL     1      -9.718   9.395  68.269  1.00  0.00     0.000 HD 
HETATM   29  H1  UNL     1     -11.165   9.014  69.017  1.00  0.00     0.000 HD 
ENDBRANCH  20  26
ENDBRANCH  16  17
ENDBRANCH   8  16
BRANCH  10  30
HETATM   30  O   UNL     1      -9.070  13.448  66.763  1.00  0.00    -0.242 OA 
BRANCH  30  31
HETATM   31  C   UNL     1      -9.737  13.959  67.933  1.00  0.00    -0.231 C  
HETATM   32  O   UNL     1     -11.029  15.473  66.492  1.00  0.00    -0.312 OA 
HETATM   33  C   UNL     1      -8.376  16.264  69.132  1.00  0.00    -0.211 C  
HETATM   34  C   UNL     1     -10.408  15.372  67.785  1.00  0.00    -0.253 C  
HETATM   35  O   UNL     1      -8.843  13.925  69.035  1.00  0.00     0.036 OA 
HETATM   36  O   UNL     1      -8.916  16.265  70.470  1.00  0.00     1.652 OA 
HETATM   37  C   UNL     1      -9.494  16.604  68.082  1.00  0.00    -0.228 C  
HETATM   38  H   UNL     1      -9.275  17.127  70.649  1.00  0.00     0.000 HD 
HETATM   39  C   UNL     1      -7.242  17.292  69.125  1.00  0.00    -0.182 C  
HETATM   40  H   UNL     1     -11.435  16.327  66.402  1.00  0.00     0.000 HD 
HETATM   41  C   UNL     1      -7.801  14.883  68.846  1.00  0.00    -0.161 C  
BRANCH  37  42
HETATM   42  N   UNL     1     -10.237  17.800  68.573  1.00  0.00    -0.369 NA 
HETATM   43  H   UNL     1     -10.114  18.120  69.534  1.00  0.00     0.000 HD 
HETATM   44  C   UNL     1     -11.129  18.503  67.685  1.00  0.00     0.050 C  
ENDBRANCH  37  42
ENDBRANCH  30  31
ENDBRANCH  10  30
ENDBRANCH   3   5
ENDBRANCH   2   3
TORSDOF 8
ENDMDL
MODEL      218
REMARK 921   NORMALIZED FREE ENERGY PREDICTED BY IDOCK:   -3.17 KCAL/MOL
REMARK 922        TOTAL FREE ENERGY PREDICTED BY IDOCK:   -5.40 KCAL/MOL
REMARK 923 INTER-LIGAND FREE ENERGY PREDICTED BY IDOCK:   -4.26 KCAL/MOL
REMARK 924 INTRA-LIGAND FREE ENERGY PREDICTED BY IDOCK:   -1.14 KCAL/MOL
REMARK 927      BINDING AFFINITY PREDICTED BY RF-SCORE:    0.00 PKD
ROOT
HETATM    1  C   UNL     1      -7.300  14.329  67.438  1.00  0.00    -0.152 C  
HETATM    2  C   UNL     1      -7.591  13.335  68.554  1.00  0.00    -0.128 C  
ENDROOT
BRANCH   2   3
HETATM    3  N   UNL     1      -8.061  12.065  67.992  1.00  0.00    -0.143 NA 
HETATM    4  H   UNL     1      -7.468  11.789  67.209  1.00  0.00     0.000 HD 
BRANCH   3   5
HETATM    5  C   UNL     1      -8.181  10.941  68.962  1.00  0.00    -0.124 C  
HETATM    6  C   UNL     1      -7.416   9.699  68.480  1.00  0.00    -0.079 C  
HETATM    7  C   UNL     1      -7.495   8.553  69.493  1.00  0.00    -0.080 C  
HETATM    8  C   UNL     1      -8.968   8.095  69.682  1.00  0.00    -0.154 C  
HETATM    9  N   UNL     1      -6.636   7.451  69.014  1.00  0.00    -0.043 NA 
HETATM   10  C   UNL     1      -9.655  10.648  69.364  1.00  0.00    -0.096 C  
HETATM   11  H2  UNL     1      -5.678   7.750  68.833  1.00  0.00     0.000 HD 
HETATM   12  H1  UNL     1      -6.689   6.689  69.688  1.00  0.00     0.000 HD 
HETATM   13  C   UNL     1      -9.895   9.285  70.045  1.00  0.00    -0.205 C  
HETATM   14  H   UNL     1     -11.849   9.697  69.982  1.00  0.00     0.000 HD 
HETATM   15  O   UNL     1     -11.281   8.968  69.760  1.00  0.00    -0.163 OA 
BRANCH   8  16
HETATM   16  O   UNL     1      -9.005   7.080  70.738  1.00  0.00    -0.149 OA 
BRANCH  16  17
HETATM   17  C   UNL     1      -9.462   5.781  70.298  1.00  0.00    -0.161 C  
HETATM   18  H1  UNL     1     -11.615   5.526  73.012  1.00  0.00     0.000 HD 
HETATM   19  O   UNL     1      -8.337   4.986  69.904  1.00  0.00    -0.079 OA 
HETATM   20  C   UNL     1      -7.836   4.115  70.847  1.00  0.00    -0.059 C  
HETATM   21  H2  UNL     1     -11.278   6.858  72.057  1.00  0.00     0.000 HD 
HETATM   22  N   UNL     1     -10.931   5.958  72.391  1.00  0.00    -0.249 NA 
HETATM   23  C   UNL     1      -8.654   3.475  71.692  1.00  0.00    -0.111 C  
HETATM   24  C   UNL     1     -10.511   5.117  71.253  1.00  0.00    -0.175 C  
HETATM   25  C   UNL     1     -10.128   3.687  71.648  1.00  0.00    -0.132 C  
BRANCH  20  26
HETATM   26  C   UNL     1      -6.339   3.930  70.757  1.00  0.00    -0.022 C  
HETATM   27  N   UNL     1      -5.609   5.064  70.191  1.00  0.00    -0.015 NA 
HETATM   28  H2  UNL     1      -5.828   5.916  70.707  1.00  0.00     0.000 HD 
HETATM   29  H1  UNL     1      -4.598   4.939  70.130  1.00  0.00     0.000 HD 
ENDBRANCH  20  26
ENDBRANCH  16  17
ENDBRANCH   8  16
BRANCH  10  30
HETATM   30  O   UNL     1     -10.310  11.762  70.066  1.00  0.00     0.794 OA 
BRANCH  30  31
HETATM   31  C   UNL     1     -11.584  12.195  69.553  1.00  0.00    -0.315 C  
HETATM   32  O   UNL     1     -10.418  13.303  67.694  1.00  0.00    -0.225 OA 
HETATM   33  C   UNL     1     -12.423  14.811  70.583  1.00  0.00    -0.345 C  
HETATM   34  C   UNL     1     -11.553  13.421  68.569  1.00  0.00    -0.333 C  
HETATM   35  O   UNL     1     -12.473  12.424  70.635  1.00  0.00    -0.315 OA 
HETATM   36  O   UNL     1     -13.844  14.784  70.336  1.00  0.00    -0.384 OA 
HETATM   37  C   UNL     1     -11.626  14.836  69.229  1.00  0.00    -0.303 C  
HETATM   38  H   UNL     1     -14.078  15.560  69.839  1.00  0.00     0.000 HD 
HETATM   39  C   UNL     1     -12.157  16.052  71.436  1.00  0.00    -0.479 C  
HETATM   40  H   UNL     1     -10.399  14.044  67.100  1.00  0.00     0.000 HD 
HETATM   41  C   UNL     1     -12.049  13.567  71.379  1.00  0.00     0.145 C  
BRANCH  37  42
HETATM   42  N   UNL     1     -12.239  15.877  68.355  1.00  0.00    -0.270 NA 
HETATM   43  H   UNL     1     -13.232  15.833  68.127  1.00  0.00     0.000 HD 
HETATM   44  C   UNL     1     -11.422  16.944  67.832  1.00  0.00     0.287 C  
ENDBRANCH  37  42
ENDBRANCH  30  31
ENDBRANCH  10  30
ENDBRANCH   3   5
ENDBRANCH   2   3
TORSDOF 8
ENDMDL
MODEL      219
REMARK 921   NORMALIZED FREE ENERGY PREDICTED BY IDOCK:   -3.14 KCAL/MOL
REMARK 922        TOTAL FREE ENERGY PREDICTED BY IDOCK:   -5.35 KCAL/MOL
REMARK 923 INTER-LIGAND FREE ENERGY PREDICTED BY IDOCK:   -4.97 KCAL/MOL
REMARK 924 INTRA-LIGAND FREE ENERGY PREDICTED BY IDOCK:   -0.38 KCAL/MOL
REMARK 927      BINDING AFFINITY PREDICTED BY RF-SCORE:    0.00 PKD
ROOT
HETATM    1  C   UNL     1      -5.134  12.351  70.262  1.00  0.00    -0.095 C  
HETATM    2  C   UNL     1      -6.432  13.146  70.251  1.00  0.00     0.217 C  
ENDROOT
BRANCH   2   3
HETATM    3  N   UNL     1      -6.933  13.281  68.880  1.00  0.00    -0.103 NA 
HETATM    4  H   UNL     1      -7.530  12.488  68.646  1.00  0.00     0.000 HD 
BRANCH   3   5
HETATM    5  C   UNL     1      -7.638  14.557  68.579  1.00  0.00    -0.123 C  
HETATM    6  C   UNL     1      -6.897  15.763  69.174  1.00  0.00    -0.168 C  
HETATM    7  C   UNL     1      -7.591  17.085  68.829  1.00  0.00    -0.243 C  
HETATM    8  C   UNL     1      -9.019  17.124  69.439  1.00  0.00     0.302 C  
HETATM    9  N   UNL     1      -6.751  18.193  69.329  1.00  0.00    -0.243 NA 
HETATM   10  C   UNL     1      -9.149  14.511  68.947  1.00  0.00    -0.111 C  
HETATM   11  H2  UNL     1      -5.794  18.149  68.979  1.00  0.00     0.000 HD 
HETATM   12  H1  UNL     1      -7.213  19.072  69.099  1.00  0.00     0.000 HD 
HETATM   13  C   UNL     1      -9.852  15.881  69.027  1.00  0.00    -0.234 C  
HETATM   14  H   UNL     1     -11.471  14.915  69.687  1.00  0.00     0.000 HD 
HETATM   15  O   UNL     1     -10.962  15.676  69.939  1.00  0.00    -0.262 OA 
BRANCH   8  16
HETATM   16  O   UNL     1      -9.681  18.352  68.991  1.00  0.00    -0.313 OA 
BRANCH  16  17
HETATM   17  C   UNL     1      -9.115  18.929  67.792  1.00  0.00    -0.290 C  
HETATM   18  H1  UNL     1     -10.347  22.069  68.622  1.00  0.00     0.000 HD 
HETATM   19  O   UNL     1      -9.383  18.072  66.676  1.00  0.00    -0.275 OA 
HETATM   20  C   UNL     1     -10.479  18.388  65.904  1.00  0.00    -0.321 C  
HETATM   21  H2  UNL     1      -9.653  20.914  69.614  1.00  0.00     0.000 HD 
HETATM   22  N   UNL     1     -10.149  21.075  68.738  1.00  0.00     0.709 NA 
HETATM   23  C   UNL     1     -10.807  19.665  65.669  1.00  0.00    -0.358 C  
HETATM   24  C   UNL     1      -9.419  20.455  67.614  1.00  0.00    -0.349 C  
HETATM   25  C   UNL     1     -10.005  20.784  66.238  1.00  0.00     0.213 C  
BRANCH  20  26
HETATM   26  C   UNL     1     -11.177  17.177  65.329  1.00  0.00     0.364 C  
HETATM   27  N   UNL     1     -10.291  16.088  64.923  1.00  0.00    -0.570 NA 
HETATM   28  H2  UNL     1      -9.692  15.813  65.701  1.00  0.00     0.000 HD 
HETATM   29  H1  UNL     1     -10.761  15.270  64.535  1.00  0.00     0.000 HD 
ENDBRANCH  20  26
ENDBRANCH  16  17
ENDBRANCH   8  16
BRANCH  10  30
HETATM   30  O   UNL     1      -9.917  13.519  68.179  1.00  0.00    -0.227 OA 
BRANCH  30  31
HETATM   31  C   UNL     1      -9.611  13.404  66.776  1.00  0.00    -0.262 C  
HETATM   32  O   UNL     1     -11.986  13.773  66.264  1.00  0.00    -0.381 OA 
HETATM   33  C   UNL     1      -9.821  10.659  65.762  1.00  0.00    -0.241 C  
HETATM   34  C   UNL     1     -10.818  13.056  65.831  1.00  0.00    -0.272 C  
HETATM   35  O   UNL     1      -8.539  12.490  66.602  1.00  0.00    -0.160 OA 
HETATM   36  O   UNL     1      -9.033  10.728  64.555  1.00  0.00    -0.192 OA 
HETATM   37  C   UNL     1     -11.118  11.536  65.628  1.00  0.00    -0.199 C  
HETATM   38  H   UNL     1      -9.563  10.411  63.832  1.00  0.00     0.000 HD 
HETATM   39  C   UNL     1     -10.141   9.180  65.984  1.00  0.00    -0.204 C  
HETATM   40  H   UNL     1     -12.715  13.563  65.693  1.00  0.00     0.000 HD 
HETATM   41  C   UNL     1      -8.972  11.167  66.920  1.00  0.00    -0.161 C  
BRANCH  37  42
HETATM   42  N   UNL     1     -11.754  11.218  64.317  1.00  0.00    -0.089 NA 
HETATM   43  H   UNL     1     -12.298  10.362  64.206  1.00  0.00     0.000 HD 
HETATM   44  C   UNL     1     -11.595  12.123  63.206  1.00  0.00    -0.332 C  
ENDBRANCH  37  42
ENDBRANCH  30  31
ENDBRANCH  10  30
ENDBRANCH   3   5
ENDBRANCH   2   3
TORSDOF 8
ENDMDL
MODEL      220
REMARK 921   NORMALIZED FREE ENERGY PREDICTED BY IDOCK:   -3.10 KCAL/MOL
REMARK 922        TOTAL FREE ENERGY PREDICTED BY IDOCK:   -5.29 KCAL/MOL
REMARK 923 INTER-LIGAND FREE ENERGY PREDICTED BY IDOCK:   -4.43 KCAL/MOL
REMARK 924 INTRA-LIGAND FREE ENERGY PREDICTED BY IDOCK:   -0.87 KCAL/MOL
REMARK 927      BINDING AFFINITY PREDICTED BY RF-SCORE:    0.00 PKD
ROOT
HETATM    1  C   UNL     1      -7.005   9.473  70.740  1.00  0.00    -0.108 C  
HETATM    2  C   UNL     1      -6.373  10.301  69.629  1.00  0.00    -0.062 C  
ENDROOT
BRANCH   2   3
HETATM    3  N   UNL     1      -7.392  10.708  68.658  1.00  0.00    -0.088 NA 
HETATM    4  H   UNL     1      -8.317  10.423  68.982  1.00  0.00     0.000 HD 
BRANCH   3   5
HETATM    5  C   UNL     1      -7.399  12.155  68.305  1.00  0.00    -0.100 C  
HETATM    6  C   UNL     1      -6.310  12.924  69.069  1.00  0.00    -0.100 C  
HETATM    7  C   UNL     1      -6.279  14.405  68.677  1.00  0.00    -0.087 C  
HETATM    8  C   UNL     1      -7.621  15.094  69.048  1.00  0.00    -0.162 C  
HETATM    9  N   UNL     1      -5.131  15.039  69.358  1.00  0.00    -0.088 NA 
HETATM   10  C   UNL     1      -8.811  12.797  68.421  1.00  0.00    -0.117 C  
HETATM   11  H2  UNL     1      -4.249  14.563  69.167  1.00  0.00     0.000 HD 
HETATM   12  H1  UNL     1      -5.110  16.025  69.097  1.00  0.00     0.000 HD 
HETATM   13  C   UNL     1      -8.836  14.338  68.449  1.00  0.00    -0.187 C  
HETATM   14  H   UNL     1     -10.801  14.213  68.790  1.00  0.00     0.000 HD 
HETATM   15  O   UNL     1     -10.057  14.676  69.157  1.00  0.00    -0.225 OA 
BRANCH   8  16
HETATM   16  O   UNL     1      -7.585  16.473  68.555  1.00  0.00    -0.179 OA 
BRANCH  16  17
HETATM   17  C   UNL     1      -8.261  17.427  69.407  1.00  0.00     0.375 C  
HETATM   18  H1  UNL     1     -10.733  17.933  67.020  1.00  0.00     0.000 HD 
HETATM   19  O   UNL     1      -7.299  18.323  69.979  1.00  0.00     0.610 OA 
HETATM   20  C   UNL     1      -7.123  19.530  69.339  1.00  0.00    -0.294 C  
HETATM   21  H2  UNL     1      -9.995  16.505  67.485  1.00  0.00     0.000 HD 
HETATM   22  N   UNL     1      -9.900  17.519  67.439  1.00  0.00    -0.288 NA 
HETATM   23  C   UNL     1      -8.161  20.168  68.780  1.00  0.00     0.121 C  
HETATM   24  C   UNL     1      -9.540  18.062  68.764  1.00  0.00    -0.301 C  
HETATM   25  C   UNL     1      -9.534  19.593  68.826  1.00  0.00    -0.402 C  
BRANCH  20  26
HETATM   26  C   UNL     1      -5.705  20.045  69.411  1.00  0.00    -0.266 C  
HETATM   27  N   UNL     1      -5.501  21.169  70.323  1.00  0.00    -0.511 NA 
HETATM   28  H2  UNL     1      -5.837  20.932  71.256  1.00  0.00     0.000 HD 
HETATM   29  H1  UNL     1      -4.543  21.517  70.372  1.00  0.00     0.000 HD 
ENDBRANCH  20  26
ENDBRANCH  16  17
ENDBRANCH   8  16
BRANCH  10  30
HETATM   30  O   UNL     1      -9.799  12.226  67.492  1.00  0.00    -0.189 OA 
BRANCH  30  31
HETATM   31  C   UNL     1      -9.896  12.834  66.190  1.00  0.00    -0.267 C  
HETATM   32  O   UNL     1     -12.310  12.375  66.195  1.00  0.00    -0.606 OA 
HETATM   33  C   UNL     1      -9.540  10.928  63.988  1.00  0.00    -0.278 C  
HETATM   34  C   UNL     1     -11.158  12.446  65.338  1.00  0.00    -0.306 C  
HETATM   35  O   UNL     1      -8.695  12.597  65.471  1.00  0.00     0.649 OA 
HETATM   36  O   UNL     1      -9.200  11.801  62.892  1.00  0.00    -0.604 OA 
HETATM   37  C   UNL     1     -11.024  11.167  64.449  1.00  0.00    -0.200 C  
HETATM   38  H   UNL     1      -9.794  11.625  62.171  1.00  0.00     0.000 HD 
HETATM   39  C   UNL     1      -9.312   9.500  63.488  1.00  0.00     0.110 C  
HETATM   40  H   UNL     1     -13.073  12.141  65.680  1.00  0.00     0.000 HD 
HETATM   41  C   UNL     1      -8.589  11.211  65.143  1.00  0.00     0.069 C  
BRANCH  37  42
HETATM   42  N   UNL     1     -11.884  11.188  63.231  1.00  0.00    -0.486 NA 
HETATM   43  H   UNL     1     -11.698  10.545  62.461  1.00  0.00     0.000 HD 
HETATM   44  C   UNL     1     -12.981  12.121  63.145  1.00  0.00     0.140 C  
ENDBRANCH  37  42
ENDBRANCH  30  31
ENDBRANCH  10  30
ENDBRANCH   3   5
ENDBRANCH   2   3
TORSDOF 8
ENDMDL
MODEL      221
REMARK 921   NORMALIZED FREE ENERGY PREDICTED BY IDOCK:   -3.00 KCAL/MOL
REMARK 922        TOTAL FREE ENERGY PREDICTED BY IDOCK:   -5.15 KCAL/MOL
REMARK 923 INTER-LIGAND FREE ENERGY PREDICTED BY IDOCK:   -5.32 KCAL/MOL
REMARK 924 INTRA-LIGAND FREE ENERGY PREDICTED BY IDOCK:    0.17 KCAL/MOL
REMARK 927      BINDING AFFINITY PREDICTED BY RF-SCORE:    0.00 PKD
ROOT
HETATM    1  C   UNL     1      -6.272   9.716  71.546  1.00  0.00     0.087 C  
HETATM    2  C   UNL     1      -5.839  10.840  70.615  1.00  0.00    -0.111 C  
ENDROOT
BRANCH   2   3
HETATM    3  N   UNL     1      -6.882  11.102  69.618  1.00  0.00    -0.206 NA 
HETATM    4  H   UNL     1      -7.787  10.785  69.968  1.00  0.00     0.000 HD 
BRANCH   3   5
HETATM    5  C   UNL     1      -6.982  12.513  69.152  1.00  0.00    -0.025 C  
HETATM    6  C   UNL     1      -6.252  13.473  70.104  1.00  0.00    -0.077 C  
HETATM    7  C   UNL     1      -6.309  14.920  69.607  1.00  0.00    -0.142 C  
HETATM    8  C   UNL     1      -7.780  15.418  69.553  1.00  0.00    -0.210 C  
HETATM    9  N   UNL     1      -5.482  15.751  70.506  1.00  0.00    -0.156 NA 
HETATM   10  C   UNL     1      -8.444  12.941  68.838  1.00  0.00     0.299 C  
HETATM   11  H2  UNL     1      -4.527  15.404  70.594  1.00  0.00     0.000 HD 
HETATM   12  H1  UNL     1      -5.521  16.715  70.175  1.00  0.00     0.000 HD 
HETATM   13  C   UNL     1      -8.678  14.461  68.725  1.00  0.00    -0.129 C  
HETATM   14  H   UNL     1     -10.627  14.061  68.551  1.00  0.00     0.000 HD 
HETATM   15  O   UNL     1     -10.078  14.647  69.057  1.00  0.00    -0.229 OA 
BRANCH   8  16
HETATM   16  O   UNL     1      -7.793  16.761  68.969  1.00  0.00    -0.240 OA 
BRANCH  16  17
HETATM   17  C   UNL     1      -8.040  16.789  67.544  1.00  0.00    -0.172 C  
HETATM   18  H1  UNL     1      -4.760  17.740  66.909  1.00  0.00     0.000 HD 
HETATM   19  O   UNL     1      -9.284  17.451  67.287  1.00  0.00    -0.230 OA 
HETATM   20  C   UNL     1      -9.216  18.788  66.958  1.00  0.00    -0.294 C  
HETATM   21  H2  UNL     1      -5.338  16.626  68.016  1.00  0.00     0.000 HD 
HETATM   22  N   UNL     1      -5.566  17.453  67.465  1.00  0.00    -0.129 NA 
HETATM   23  C   UNL     1      -8.211  19.259  66.208  1.00  0.00    -0.327 C  
HETATM   24  C   UNL     1      -6.803  17.229  66.691  1.00  0.00    -0.237 C  
HETATM   25  C   UNL     1      -7.133  18.359  65.711  1.00  0.00    -0.258 C  
BRANCH  20  26
HETATM   26  C   UNL     1     -10.393  19.589  67.462  1.00  0.00    -0.444 C  
HETATM   27  N   UNL     1     -10.503  19.680  68.916  1.00  0.00    -0.529 NA 
HETATM   28  H2  UNL     1      -9.636  20.042  69.313  1.00  0.00     0.000 HD 
HETATM   29  H1  UNL     1     -11.298  20.221  69.257  1.00  0.00     0.000 HD 
ENDBRANCH  20  26
ENDBRANCH  16  17
ENDBRANCH   8  16
BRANCH  10  30
HETATM   30  O   UNL     1      -9.060  12.185  67.737  1.00  0.00    -0.175 OA 
BRANCH  30  31
HETATM   31  C   UNL     1      -8.261  11.151  67.132  1.00  0.00    -0.137 C  
HETATM   32  O   UNL     1      -9.067  11.870  64.924  1.00  0.00    -0.410 OA 
HETATM   33  C   UNL     1      -9.691   8.608  66.823  1.00  0.00    -0.233 C  
HETATM   34  C   UNL     1      -8.682  10.711  65.682  1.00  0.00    -0.188 C  
HETATM   35  O   UNL     1      -8.191  10.037  68.009  1.00  0.00    -0.114 OA 
HETATM   36  O   UNL     1      -8.603   7.672  66.677  1.00  0.00    -0.123 OA 
HETATM   37  C   UNL     1      -9.756   9.580  65.590  1.00  0.00    -0.290 C  
HETATM   38  H   UNL     1      -8.741   7.172  65.880  1.00  0.00     0.000 HD 
HETATM   39  C   UNL     1     -10.964   7.771  66.968  1.00  0.00     0.016 C  
HETATM   40  H   UNL     1      -9.321  11.605  64.048  1.00  0.00     0.000 HD 
HETATM   41  C   UNL     1      -9.470   9.408  68.100  1.00  0.00    -0.133 C  
BRANCH  37  42
HETATM   42  N   UNL     1      -9.657   8.756  64.350  1.00  0.00     0.360 NA 
HETATM   43  H   UNL     1     -10.339   8.019  64.170  1.00  0.00     0.000 HD 
HETATM   44  C   UNL     1      -8.594   9.005  63.408  1.00  0.00    -0.135 C  
ENDBRANCH  37  42
ENDBRANCH  30  31
ENDBRANCH  10  30
ENDBRANCH   3   5
ENDBRANCH   2   3
TORSDOF 8
ENDMDL
MODEL      222
REMARK 921   NORMALIZED FREE ENERGY PREDICTED BY IDOCK:   -2.95 KCAL/MOL
REMARK 922        TOTAL FREE ENERGY PREDICTED BY IDOCK:   -5.07 KCAL/MOL
REMARK 923 INTER-LIGAND FREE ENERGY PREDICTED BY IDOCK:   -5.59 KCAL/MOL
REMARK 924 INTRA-LIGAND FREE ENERGY PREDICTED BY IDOCK:    0.52 KCAL/MOL
REMARK 927      BINDING AFFINITY PREDICTED BY RF-SCORE:    0.00 PKD
ROOT
HETATM    1  C   UNL     1     -11.179  16.688  65.962  1.00  0.00     0.429 C  
HETATM    2  C   UNL     1     -10.903  15.222  66.267  1.00  0.00    -0.312 C  
ENDROOT
BRANCH   2   3
HETATM    3  N   UNL     1      -9.998  14.657  65.262  1.00  0.00    -0.479 NA 
HETATM    4  H   UNL     1      -9.381  15.384  64.899  1.00  0.00     0.000 HD 
BRANCH   3   5
HETATM    5  C   UNL     1      -9.197  13.484  65.709  1.00  0.00     0.318 C  
HETATM    6  C   UNL     1     -10.037  12.199  65.713  1.00  0.00    -0.272 C  
HETATM    7  C   UNL     1      -9.209  10.979  66.127  1.00  0.00    -0.190 C  
HETATM    8  C   UNL     1      -8.684  11.144  67.580  1.00  0.00    -0.129 C  
HETATM    9  N   UNL     1     -10.054   9.775  65.984  1.00  0.00    -0.273 NA 
HETATM   10  C   UNL     1      -8.447  13.742  67.047  1.00  0.00    -0.133 C  
HETATM   11  H2  UNL     1     -10.450   9.682  65.048  1.00  0.00     0.000 HD 
HETATM   12  H1  UNL     1      -9.502   8.963  66.259  1.00  0.00     0.000 HD 
HETATM   13  C   UNL     1      -7.919  12.482  67.762  1.00  0.00    -0.163 C  
HETATM   14  H   UNL     1      -7.382  13.672  69.275  1.00  0.00     0.000 HD 
HETATM   15  O   UNL     1      -7.850  12.853  69.163  1.00  0.00     0.171 OA 
BRANCH   8  16
HETATM   16  O   UNL     1      -7.809  10.011  67.889  1.00  0.00    -0.090 OA 
BRANCH  16  17
HETATM   17  C   UNL     1      -8.199   9.261  69.062  1.00  0.00    -0.111 C  
HETATM   18  H1  UNL     1      -8.527   6.350  67.197  1.00  0.00     0.000 HD 
HETATM   19  O   UNL     1      -9.156  10.015  69.816  1.00  0.00    -0.215 OA 
HETATM   20  C   UNL     1     -10.484   9.718  69.601  1.00  0.00    -0.242 C  
HETATM   21  H2  UNL     1      -7.352   7.537  67.097  1.00  0.00     0.000 HD 
HETATM   22  N   UNL     1      -8.309   7.329  67.382  1.00  0.00    -0.119 NA 
HETATM   23  C   UNL     1     -10.876   8.457  69.377  1.00  0.00    -0.094 C  
HETATM   24  C   UNL     1      -8.533   7.758  68.777  1.00  0.00    -0.129 C  
HETATM   25  C   UNL     1      -9.893   7.338  69.344  1.00  0.00    -0.163 C  
BRANCH  20  26
HETATM   26  C   UNL     1     -11.394  10.918  69.722  1.00  0.00    -0.301 C  
HETATM   27  N   UNL     1     -12.776  10.690  69.306  1.00  0.00    -0.618 NA 
HETATM   28  H2  UNL     1     -13.170   9.898  69.813  1.00  0.00     0.000 HD 
HETATM   29  H1  UNL     1     -13.391  11.500  69.387  1.00  0.00     0.000 HD 
ENDBRANCH  20  26
ENDBRANCH  16  17
ENDBRANCH   8  16
BRANCH  10  30
HETATM   30  O   UNL     1      -7.445  14.816  66.967  1.00  0.00    -0.111 OA 
BRANCH  30  31
HETATM   31  C   UNL     1      -7.250  15.615  68.150  1.00  0.00    -0.115 C  
HETATM   32  O   UNL     1      -9.677  15.574  68.533  1.00  0.00    -0.196 OA 
HETATM   33  C   UNL     1      -7.381  18.500  67.638  1.00  0.00    -0.216 C  
HETATM   34  C   UNL     1      -8.509  16.400  68.668  1.00  0.00    -0.229 C  
HETATM   35  O   UNL     1      -6.144  16.483  67.954  1.00  0.00    -0.114 OA 
HETATM   36  O   UNL     1      -6.702  19.037  68.792  1.00  0.00    -0.264 OA 
HETATM   37  C   UNL     1      -8.735  17.821  68.057  1.00  0.00    -0.251 C  
HETATM   38  H   UNL     1      -7.270  19.678  69.205  1.00  0.00     0.000 HD 
HETATM   39  C   UNL     1      -7.594  19.673  66.679  1.00  0.00    -0.278 C  
HETATM   40  H   UNL     1     -10.438  16.049  68.847  1.00  0.00     0.000 HD 
HETATM   41  C   UNL     1      -6.471  17.473  66.978  1.00  0.00    -0.167 C  
BRANCH  37  42
HETATM   42  N   UNL     1      -9.457  18.758  68.965  1.00  0.00    -0.268 NA 
HETATM   43  H   UNL     1      -9.199  18.818  69.950  1.00  0.00     0.000 HD 
HETATM   44  C   UNL     1     -10.521  19.581  68.445  1.00  0.00    -0.265 C  
ENDBRANCH  37  42
ENDBRANCH  30  31
ENDBRANCH  10  30
ENDBRANCH   3   5
ENDBRANCH   2   3
TORSDOF 8
ENDMDL
MODEL      223
REMARK 921   NORMALIZED FREE ENERGY PREDICTED BY IDOCK:   -2.91 KCAL/MOL
REMARK 922        TOTAL FREE ENERGY PREDICTED BY IDOCK:   -5.00 KCAL/MOL
REMARK 923 INTER-LIGAND FREE ENERGY PREDICTED BY IDOCK:   -4.25 KCAL/MOL
REMARK 924 INTRA-LIGAND FREE ENERGY PREDICTED BY IDOCK:   -0.76 KCAL/MOL
REMARK 927      BINDING AFFINITY PREDICTED BY RF-SCORE:    0.00 PKD
ROOT
HETATM    1  C   UNL     1     -12.815   9.383  71.025  1.00  0.00    -0.247 C  
HETATM    2  C   UNL     1     -11.765   9.870  70.036  1.00  0.00    -0.124 C  
ENDROOT
BRANCH   2   3
HETATM    3  N   UNL     1     -10.439   9.865  70.661  1.00  0.00    -0.349 NA 
HETATM    4  H   UNL     1     -10.418  10.524  71.440  1.00  0.00     0.000 HD 
BRANCH   3   5
HETATM    5  C   UNL     1      -9.947   8.533  71.108  1.00  0.00    -0.207 C  
HETATM    6  C   UNL     1      -9.622   8.528  72.609  1.00  0.00    -0.294 C  
HETATM    7  C   UNL     1      -9.159   7.148  73.087  1.00  0.00    -0.141 C  
HETATM    8  C   UNL     1      -7.845   6.736  72.369  1.00  0.00    -0.094 C  
HETATM    9  N   UNL     1      -8.989   7.198  74.553  1.00  0.00    -0.339 NA 
HETATM   10  C   UNL     1      -8.793   7.988  70.219  1.00  0.00    -0.145 C  
HETATM   11  H2  UNL     1      -9.829   7.520  75.035  1.00  0.00     0.000 HD 
HETATM   12  H1  UNL     1      -8.682   6.280  74.871  1.00  0.00     0.000 HD 
HETATM   13  C   UNL     1      -7.984   6.824  70.826  1.00  0.00    -0.110 C  
HETATM   14  H   UNL     1      -6.767   6.962  69.247  1.00  0.00     0.000 HD 
HETATM   15  O   UNL     1      -6.682   6.908  70.192  1.00  0.00    -0.052 OA 
BRANCH   8  16
HETATM   16  O   UNL     1      -7.504   5.370  72.772  1.00  0.00    -0.093 OA 
BRANCH  16  17
HETATM   17  C   UNL     1      -8.500   4.381  72.425  1.00  0.00    -0.109 C  
HETATM   18  H1  UNL     1      -7.636   2.426  75.162  1.00  0.00     0.000 HD 
HETATM   19  O   UNL     1      -8.442   4.118  71.017  1.00  0.00    -0.080 OA 
HETATM   20  C   UNL     1      -7.706   3.021  70.624  1.00  0.00    -0.043 C  
HETATM   21  H2  UNL     1      -7.782   4.090  75.061  1.00  0.00     0.000 HD 
HETATM   22  N   UNL     1      -7.614   3.231  74.537  1.00  0.00    -0.056 NA 
HETATM   23  C   UNL     1      -7.692   1.904  71.363  1.00  0.00    -0.040 C  
HETATM   24  C   UNL     1      -8.534   3.145  73.385  1.00  0.00    -0.074 C  
HETATM   25  C   UNL     1      -8.462   1.811  72.634  1.00  0.00    -0.058 C  
BRANCH  20  26
HETATM   26  C   UNL     1      -7.019   3.208  69.291  1.00  0.00    -0.041 C  
HETATM   27  N   UNL     1      -7.603   4.236  68.433  1.00  0.00    -0.064 NA 
HETATM   28  H2  UNL     1      -7.651   5.125  68.931  1.00  0.00     0.000 HD 
HETATM   29  H1  UNL     1      -7.140   4.363  67.533  1.00  0.00     0.000 HD 
ENDBRANCH  20  26
ENDBRANCH  16  17
ENDBRANCH   8  16
BRANCH  10  30
HETATM   30  O   UNL     1      -9.184   7.745  68.822  1.00  0.00    -0.140 OA 
BRANCH  30  31
HETATM   31  C   UNL     1      -9.063   8.853  67.910  1.00  0.00    -0.139 C  
HETATM   32  O   UNL     1     -10.461   7.634  66.298  1.00  0.00    -0.418 OA 
HETATM   33  C   UNL     1      -6.770   8.619  66.095  1.00  0.00    -0.069 C  
HETATM   34  C   UNL     1      -9.348   8.538  66.397  1.00  0.00    -0.213 C  
HETATM   35  O   UNL     1      -7.793   9.464  68.079  1.00  0.00    -0.091 OA 
HETATM   36  O   UNL     1      -6.590   9.984  65.666  1.00  0.00    -0.090 OA 
HETATM   37  C   UNL     1      -8.129   8.042  65.554  1.00  0.00    -0.128 C  
HETATM   38  H   UNL     1      -6.593  10.004  64.716  1.00  0.00     0.000 HD 
HETATM   39  C   UNL     1      -5.561   7.840  65.572  1.00  0.00    -0.037 C  
HETATM   40  H   UNL     1     -10.634   7.443  65.384  1.00  0.00     0.000 HD 
HETATM   41  C   UNL     1      -6.766   8.587  67.618  1.00  0.00    -0.066 C  
BRANCH  37  42
HETATM   42  N   UNL     1      -8.224   8.376  64.104  1.00  0.00    -0.267 NA 
HETATM   43  H   UNL     1      -8.188   9.349  63.799  1.00  0.00     0.000 HD 
HETATM   44  C   UNL     1      -8.367   7.318  63.133  1.00  0.00     0.166 C  
ENDBRANCH  37  42
ENDBRANCH  30  31
ENDBRANCH  10  30
ENDBRANCH   3   5
ENDBRANCH   2   3
TORSDOF 8
ENDMDL
MODEL      224
REMARK 921   NORMALIZED FREE ENERGY PREDICTED BY IDOCK:   -2.78 KCAL/MOL
REMARK 922        TOTAL FREE ENERGY PREDICTED BY IDOCK:   -4.82 KCAL/MOL
REMARK 923 INTER-LIGAND FREE ENERGY PREDICTED BY IDOCK:   -3.65 KCAL/MOL
REMARK 924 INTRA-LIGAND FREE ENERGY PREDICTED BY IDOCK:   -1.17 KCAL/MOL
REMARK 927      BINDING AFFINITY PREDICTED BY RF-SCORE:    0.00 PKD
ROOT
HETATM    1  C   UNL     1      -7.328   6.001  65.299  1.00  0.00    -0.076 C  
HETATM    2  C   UNL     1      -7.964   7.351  64.995  1.00  0.00    -0.129 C  
ENDROOT
BRANCH   2   3
HETATM    3  N   UNL     1      -7.638   8.313  66.052  1.00  0.00    -0.077 NA 
HETATM    4  H   UNL     1      -6.969   9.000  65.705  1.00  0.00     0.000 HD 
BRANCH   3   5
HETATM    5  C   UNL     1      -8.804   9.005  66.669  1.00  0.00    -0.132 C  
HETATM    6  C   UNL     1      -8.848  10.490  66.279  1.00  0.00    -0.172 C  
HETATM    7  C   UNL     1     -10.070  11.198  66.871  1.00  0.00    -0.214 C  
HETATM    8  C   UNL     1     -10.015  11.171  68.424  1.00  0.00    -0.187 C  
HETATM    9  N   UNL     1     -10.103  12.579  66.348  1.00  0.00    -0.238 NA 
HETATM   10  C   UNL     1      -8.907   8.761  68.202  1.00  0.00    -0.141 C  
HETATM   11  H2  UNL     1     -10.084  12.614  65.329  1.00  0.00     0.000 HD 
HETATM   12  H1  UNL     1     -10.917  13.051  66.742  1.00  0.00     0.000 HD 
HETATM   13  C   UNL     1      -9.834   9.728  68.964  1.00  0.00    -0.181 C  
HETATM   14  H   UNL     1      -9.208   8.860  70.652  1.00  0.00     0.000 HD 
HETATM   15  O   UNL     1      -9.319   9.744  70.320  1.00  0.00    -0.247 OA 
BRANCH   8  16
HETATM   16  O   UNL     1     -11.253  11.758  68.941  1.00  0.00    -0.216 OA 
BRANCH  16  17
HETATM   17  C   UNL     1     -11.100  12.460  70.196  1.00  0.00     0.659 C  
HETATM   18  H1  UNL     1     -13.865  10.840  71.537  1.00  0.00     0.000 HD 
HETATM   19  O   UNL     1     -10.847  13.847  69.940  1.00  0.00     0.045 OA 
HETATM   20  C   UNL     1     -11.934  14.692  69.989  1.00  0.00    -0.320 C  
HETATM   21  H2  UNL     1     -12.649  10.222  70.568  1.00  0.00     0.000 HD 
HETATM   22  N   UNL     1     -13.150  11.066  70.845  1.00  0.00    -0.210 NA 
HETATM   23  C   UNL     1     -12.914  14.498  70.882  1.00  0.00    -0.424 C  
HETATM   24  C   UNL     1     -12.197  12.114  71.259  1.00  0.00     0.111 C  
HETATM   25  C   UNL     1     -12.865  13.363  71.844  1.00  0.00    -0.354 C  
BRANCH  20  26
HETATM   26  C   UNL     1     -11.844  15.841  69.012  1.00  0.00    -0.355 C  
HETATM   27  N   UNL     1     -12.491  15.609  67.722  1.00  0.00     0.367 NA 
HETATM   28  H2  UNL     1     -13.465  15.340  67.860  1.00  0.00     0.000 HD 
HETATM   29  H1  UNL     1     -12.430  16.385  67.063  1.00  0.00     0.000 HD 
ENDBRANCH  20  26
ENDBRANCH  16  17
ENDBRANCH   8  16
BRANCH  10  30
HETATM   30  O   UNL     1      -9.128   7.352  68.564  1.00  0.00    -0.137 OA 
BRANCH  30  31
HETATM   31  C   UNL     1      -7.966   6.585  68.932  1.00  0.00    -0.111 C  
HETATM   32  O   UNL     1      -8.911   4.651  67.746  1.00  0.00    -0.103 OA 
HETATM   33  C   UNL     1      -8.270   5.167  71.483  1.00  0.00    -0.116 C  
HETATM   34  C   UNL     1      -8.128   5.022  68.893  1.00  0.00    -0.084 C  
HETATM   35  O   UNL     1      -7.495   7.023  70.198  1.00  0.00    -0.082 OA 
HETATM   36  O   UNL     1      -6.898   4.909  71.844  1.00  0.00    -0.048 OA 
HETATM   37  C   UNL     1      -8.668   4.352  70.199  1.00  0.00    -0.074 C  
HETATM   38  H   UNL     1      -6.800   3.978  72.010  1.00  0.00     0.000 HD 
HETATM   39  C   UNL     1      -9.115   4.782  72.698  1.00  0.00    -0.139 C  
HETATM   40  H   UNL     1      -9.009   3.707  67.723  1.00  0.00     0.000 HD 
HETATM   41  C   UNL     1      -8.426   6.658  71.217  1.00  0.00    -0.125 C  
BRANCH  37  42
HETATM   42  N   UNL     1      -8.210   2.946  70.387  1.00  0.00    -0.045 NA 
HETATM   43  H   UNL     1      -7.231   2.750  70.597  1.00  0.00     0.000 HD 
HETATM   44  C   UNL     1      -9.155   1.863  70.272  1.00  0.00    -0.093 C  
ENDBRANCH  37  42
ENDBRANCH  30  31
ENDBRANCH  10  30
ENDBRANCH   3   5
ENDBRANCH   2   3
TORSDOF 8
ENDMDL
MODEL      225
REMARK 921   NORMALIZED FREE ENERGY PREDICTED BY IDOCK:   -2.73 KCAL/MOL
REMARK 922        TOTAL FREE ENERGY PREDICTED BY IDOCK:   -4.75 KCAL/MOL
REMARK 923 INTER-LIGAND FREE ENERGY PREDICTED BY IDOCK:   -5.21 KCAL/MOL
REMARK 924 INTRA-LIGAND FREE ENERGY PREDICTED BY IDOCK:    0.46 KCAL/MOL
REMARK 927      BINDING AFFINITY PREDICTED BY RF-SCORE:    0.00 PKD
ROOT
HETATM    1  C   UNL     1     -13.361   9.969  71.789  1.00  0.00    -0.492 C  
HETATM    2  C   UNL     1     -13.740   8.499  71.672  1.00  0.00    -0.372 C  
ENDROOT
BRANCH   2   3
HETATM    3  N   UNL     1     -12.979   7.864  70.592  1.00  0.00    -0.269 NA 
HETATM    4  H   UNL     1     -12.557   8.577  69.996  1.00  0.00     0.000 HD 
BRANCH   3   5
HETATM    5  C   UNL     1     -11.945   6.886  71.027  1.00  0.00    -0.374 C  
HETATM    6  C   UNL     1     -12.310   6.242  72.373  1.00  0.00    -0.072 C  
HETATM    7  C   UNL     1     -11.275   5.199  72.805  1.00  0.00    -0.255 C  
HETATM    8  C   UNL     1      -9.888   5.866  73.019  1.00  0.00    -0.167 C  
HETATM    9  N   UNL     1     -11.764   4.544  74.036  1.00  0.00     0.016 NA 
HETATM   10  C   UNL     1     -10.505   7.474  70.989  1.00  0.00    -0.215 C  
HETATM   11  H2  UNL     1     -12.698   4.149  73.926  1.00  0.00     0.000 HD 
HETATM   12  H1  UNL     1     -11.075   3.850  74.324  1.00  0.00     0.000 HD 
HETATM   13  C   UNL     1      -9.444   6.675  71.772  1.00  0.00    -0.151 C  
HETATM   14  H   UNL     1      -8.157   8.147  71.359  1.00  0.00     0.000 HD 
HETATM   15  O   UNL     1      -8.429   7.651  72.122  1.00  0.00    -0.106 OA 
BRANCH   8  16
HETATM   16  O   UNL     1      -8.912   4.818  73.321  1.00  0.00    -0.113 OA 
BRANCH  16  17
HETATM   17  C   UNL     1      -9.310   3.493  72.897  1.00  0.00    -0.100 C  
HETATM   18  H1  UNL     1      -6.150   2.229  73.595  1.00  0.00     0.000 HD 
HETATM   19  O   UNL     1     -10.043   3.584  71.670  1.00  0.00    -0.153 OA 
HETATM   20  C   UNL     1      -9.332   3.373  70.509  1.00  0.00    -0.161 C  
HETATM   21  H2  UNL     1      -7.060   3.330  74.467  1.00  0.00     0.000 HD 
HETATM   22  N   UNL     1      -6.897   2.923  73.547  1.00  0.00    -0.030 NA 
HETATM   23  C   UNL     1      -8.350   2.463  70.462  1.00  0.00    -0.079 C  
HETATM   24  C   UNL     1      -8.164   2.429  72.972  1.00  0.00    -0.058 C  
HETATM   25  C   UNL     1      -7.990   1.656  71.660  1.00  0.00    -0.041 C  
BRANCH  20  26
HETATM   26  C   UNL     1      -9.827   4.200  69.345  1.00  0.00    -0.093 C  
HETATM   27  N   UNL     1      -9.822   3.515  68.054  1.00  0.00    -0.043 NA 
HETATM   28  H2  UNL     1     -10.349   2.644  68.116  1.00  0.00     0.000 HD 
HETATM   29  H1  UNL     1     -10.157   4.073  67.268  1.00  0.00     0.000 HD 
ENDBRANCH  20  26
ENDBRANCH  16  17
ENDBRANCH   8  16
BRANCH  10  30
HETATM   30  O   UNL     1     -10.055   7.854  69.641  1.00  0.00    -0.188 OA 
BRANCH  30  31
HETATM   31  C   UNL     1      -9.854   9.258  69.393  1.00  0.00    -0.174 C  
HETATM   32  O   UNL     1     -11.371   9.098  67.466  1.00  0.00    -0.291 OA 
HETATM   33  C   UNL     1      -7.614   9.810  67.581  1.00  0.00    -0.091 C  
HETATM   34  C   UNL     1     -10.186   9.758  67.940  1.00  0.00    -0.194 C  
HETATM   35  O   UNL     1      -8.536   9.619  69.775  1.00  0.00    -0.153 OA 
HETATM   36  O   UNL     1      -7.327  11.192  67.877  1.00  0.00    -0.087 OA 
HETATM   37  C   UNL     1      -9.023   9.670  66.899  1.00  0.00    -0.134 C  
HETATM   38  H   UNL     1      -7.341  11.684  67.064  1.00  0.00     0.000 HD 
HETATM   39  C   UNL     1      -6.481   9.318  66.678  1.00  0.00    -0.067 C  
HETATM   40  H   UNL     1     -11.571   9.401  66.588  1.00  0.00     0.000 HD 
HETATM   41  C   UNL     1      -7.591   9.023  68.885  1.00  0.00    -0.083 C  
BRANCH  37  42
HETATM   42  N   UNL     1      -9.110  10.688  65.812  1.00  0.00    -0.179 NA 
HETATM   43  H   UNL     1      -8.713  10.491  64.893  1.00  0.00     0.000 HD 
HETATM   44  C   UNL     1      -9.756  11.952  66.066  1.00  0.00    -0.237 C  
ENDBRANCH  37  42
ENDBRANCH  30  31
ENDBRANCH  10  30
ENDBRANCH   3   5
ENDBRANCH   2   3
TORSDOF 8
ENDMDL
MODEL      226
REMARK 921   NORMALIZED FREE ENERGY PREDICTED BY IDOCK:   -2.57 KCAL/MOL
REMARK 922        TOTAL FREE ENERGY PREDICTED BY IDOCK:   -4.51 KCAL/MOL
REMARK 923 INTER-LIGAND FREE ENERGY PREDICTED BY IDOCK:   -5.49 KCAL/MOL
REMARK 924 INTRA-LIGAND FREE ENERGY PREDICTED BY IDOCK:    0.97 KCAL/MOL
REMARK 927      BINDING AFFINITY PREDICTED BY RF-SCORE:    0.00 PKD
ROOT
HETATM    1  C   UNL     1      -6.226  16.266  68.581  1.00  0.00    -0.122 C  
HETATM    2  C   UNL     1      -6.958  15.784  67.335  1.00  0.00    -0.202 C  
ENDROOT
BRANCH   2   3
HETATM    3  N   UNL     1      -7.554  14.467  67.576  1.00  0.00    -0.183 NA 
HETATM    4  H   UNL     1      -7.100  14.018  68.372  1.00  0.00     0.000 HD 
BRANCH   3   5
HETATM    5  C   UNL     1      -9.031  14.456  67.759  1.00  0.00    -0.192 C  
HETATM    6  C   UNL     1      -9.555  15.836  68.185  1.00  0.00    -0.199 C  
HETATM    7  C   UNL     1     -11.079  15.847  68.331  1.00  0.00    -0.345 C  
HETATM    8  C   UNL     1     -11.526  14.863  69.447  1.00  0.00    -0.299 C  
HETATM    9  N   UNL     1     -11.507  17.231  68.617  1.00  0.00     0.122 NA 
HETATM   10  C   UNL     1      -9.516  13.297  68.676  1.00  0.00    -0.016 C  
HETATM   11  H2  UNL     1     -11.174  17.898  67.920  1.00  0.00     0.000 HD 
HETATM   12  H1  UNL     1     -12.522  17.239  68.713  1.00  0.00     0.000 HD 
HETATM   13  C   UNL     1     -10.952  13.440  69.219  1.00  0.00    -0.109 C  
HETATM   14  H   UNL     1     -10.610  11.802  70.311  1.00  0.00     0.000 HD 
HETATM   15  O   UNL     1     -10.961  12.673  70.450  1.00  0.00     0.849 OA 
BRANCH   8  16
HETATM   16  O   UNL     1     -12.990  14.825  69.472  1.00  0.00     0.152 OA 
BRANCH  16  17
HETATM   17  C   UNL     1     -13.570  15.075  70.773  1.00  0.00    -0.216 C  
HETATM   18  H1  UNL     1     -10.766  16.865  71.773  1.00  0.00     0.000 HD 
HETATM   19  O   UNL     1     -14.151  13.866  71.278  1.00  0.00    -0.134 OA 
HETATM   20  C   UNL     1     -13.376  13.122  72.141  1.00  0.00    -0.524 C  
HETATM   21  H2  UNL     1     -11.551  16.876  70.295  1.00  0.00     0.000 HD 
HETATM   22  N   UNL     1     -11.371  16.338  71.143  1.00  0.00    -0.340 NA 
HETATM   23  C   UNL     1     -12.570  13.721  73.027  1.00  0.00     0.197 C  
HETATM   24  C   UNL     1     -12.642  15.883  71.741  1.00  0.00    -0.434 C  
HETATM   25  C   UNL     1     -12.477  15.205  73.105  1.00  0.00    -0.561 C  
BRANCH  20  26
HETATM   26  C   UNL     1     -13.601  11.633  72.016  1.00  0.00    -0.041 C  
HETATM   27  N   UNL     1     -13.282  11.068  70.706  1.00  0.00    -0.038 NA 
HETATM   28  H2  UNL     1     -12.324  11.302  70.446  1.00  0.00     0.000 HD 
HETATM   29  H1  UNL     1     -13.434  10.062  70.621  1.00  0.00     0.000 HD 
ENDBRANCH  20  26
ENDBRANCH  16  17
ENDBRANCH   8  16
BRANCH  10  30
HETATM   30  O   UNL     1      -9.241  11.958  68.133  1.00  0.00    -0.176 OA 
BRANCH  30  31
HETATM   31  C   UNL     1     -10.134  11.472  67.113  1.00  0.00    -0.197 C  
HETATM   32  O   UNL     1     -10.893   9.721  68.661  1.00  0.00    -0.261 OA 
HETATM   33  C   UNL     1      -8.929   9.425  65.391  1.00  0.00    -0.206 C  
HETATM   34  C   UNL     1     -10.627   9.988  67.274  1.00  0.00    -0.257 C  
HETATM   35  O   UNL     1      -9.550  11.687  65.837  1.00  0.00    -0.220 OA 
HETATM   36  O   UNL     1      -9.785   9.472  64.231  1.00  0.00    -0.363 OA 
HETATM   37  C   UNL     1      -9.716   8.887  66.640  1.00  0.00    -0.237 C  
HETATM   38  H   UNL     1     -10.104   8.594  64.057  1.00  0.00     0.000 HD 
HETATM   39  C   UNL     1      -7.748   8.527  65.019  1.00  0.00    -0.102 C  
HETATM   40  H   UNL     1     -11.191   8.824  68.758  1.00  0.00     0.000 HD 
HETATM   41  C   UNL     1      -8.418  10.833  65.670  1.00  0.00    -0.163 C  
BRANCH  37  42
HETATM   42  N   UNL     1     -10.456   7.661  66.223  1.00  0.00    -0.285 NA 
HETATM   43  H   UNL     1     -10.686   7.512  65.241  1.00  0.00     0.000 HD 
HETATM   44  C   UNL     1     -10.846   6.688  67.214  1.00  0.00    -0.385 C  
ENDBRANCH  37  42
ENDBRANCH  30  31
ENDBRANCH  10  30
ENDBRANCH   3   5
ENDBRANCH   2   3
TORSDOF 8
ENDMDL
MODEL      227
REMARK 921   NORMALIZED FREE ENERGY PREDICTED BY IDOCK:   -2.49 KCAL/MOL
REMARK 922        TOTAL FREE ENERGY PREDICTED BY IDOCK:   -4.40 KCAL/MOL
REMARK 923 INTER-LIGAND FREE ENERGY PREDICTED BY IDOCK:   -5.34 KCAL/MOL
REMARK 924 INTRA-LIGAND FREE ENERGY PREDICTED BY IDOCK:    0.94 KCAL/MOL
REMARK 927      BINDING AFFINITY PREDICTED BY RF-SCORE:    0.00 PKD
ROOT
HETATM    1  C   UNL     1      -6.179  14.787  68.778  1.00  0.00    -0.083 C  
HETATM    2  C   UNL     1      -6.787  14.976  67.394  1.00  0.00    -0.111 C  
ENDROOT
BRANCH   2   3
HETATM    3  N   UNL     1      -7.667  13.850  67.070  1.00  0.00    -0.344 NA 
HETATM    4  H   UNL     1      -7.323  12.998  67.512  1.00  0.00     0.000 HD 
BRANCH   3   5
HETATM    5  C   UNL     1      -9.107  14.048  67.397  1.00  0.00    -0.209 C  
HETATM    6  C   UNL     1      -9.405  15.511  67.756  1.00  0.00    -0.195 C  
HETATM    7  C   UNL     1     -10.892  15.733  68.048  1.00  0.00    -0.309 C  
HETATM    8  C   UNL     1     -11.335  14.898  69.280  1.00  0.00    -0.296 C  
HETATM    9  N   UNL     1     -11.112  17.179  68.258  1.00  0.00    -0.231 NA 
HETATM   10  C   UNL     1      -9.631  13.029  68.449  1.00  0.00    -0.178 C  
HETATM   11  H2  UNL     1     -10.776  17.745  67.479  1.00  0.00     0.000 HD 
HETATM   12  H1  UNL     1     -12.102  17.327  68.453  1.00  0.00     0.000 HD 
HETATM   13  C   UNL     1     -10.971  13.398  69.116  1.00  0.00    -0.168 C  
HETATM   14  H   UNL     1     -10.719  11.810  70.301  1.00  0.00     0.000 HD 
HETATM   15  O   UNL     1     -10.943  12.728  70.402  1.00  0.00     0.839 OA 
BRANCH   8  16
HETATM   16  O   UNL     1     -12.781  15.055  69.451  1.00  0.00     0.005 OA 
BRANCH  16  17
HETATM   17  C   UNL     1     -13.173  15.612  70.727  1.00  0.00    -0.212 C  
HETATM   18  H1  UNL     1      -9.927  16.679  71.353  1.00  0.00     0.000 HD 
HETATM   19  O   UNL     1     -14.013  14.680  71.419  1.00  0.00    -0.398 OA 
HETATM   20  C   UNL     1     -13.399  13.866  72.345  1.00  0.00    -0.529 C  
HETATM   21  H2  UNL     1     -10.792  16.721  69.921  1.00  0.00     0.000 HD 
HETATM   22  N   UNL     1     -10.696  16.263  70.827  1.00  0.00     0.081 NA 
HETATM   23  C   UNL     1     -12.397  14.326  73.106  1.00  0.00    -0.090 C  
HETATM   24  C   UNL     1     -11.992  16.250  71.534  1.00  0.00    -0.322 C  
HETATM   25  C   UNL     1     -11.909  15.727  72.971  1.00  0.00    -0.551 C  
BRANCH  20  26
HETATM   26  C   UNL     1     -14.019  12.491  72.438  1.00  0.00     0.067 C  
HETATM   27  N   UNL     1     -13.218  11.411  71.866  1.00  0.00    -0.458 NA 
HETATM   28  H2  UNL     1     -12.287  11.406  72.281  1.00  0.00     0.000 HD 
HETATM   29  H1  UNL     1     -13.636  10.483  71.929  1.00  0.00     0.000 HD 
ENDBRANCH  20  26
ENDBRANCH  16  17
ENDBRANCH   8  16
BRANCH  10  30
HETATM   30  O   UNL     1      -9.584  11.631  67.995  1.00  0.00    -0.172 OA 
BRANCH  30  31
HETATM   31  C   UNL     1      -8.326  10.943  68.133  1.00  0.00    -0.123 C  
HETATM   32  O   UNL     1      -7.972  11.179  65.713  1.00  0.00    -0.342 OA 
HETATM   33  C   UNL     1      -8.549   8.035  67.816  1.00  0.00    -0.128 C  
HETATM   34  C   UNL     1      -7.744  10.297  66.824  1.00  0.00    -0.111 C  
HETATM   35  O   UNL     1      -8.424   9.990  69.181  1.00  0.00    -0.132 OA 
HETATM   36  O   UNL     1      -7.341   7.574  68.455  1.00  0.00    -0.093 OA 
HETATM   37  C   UNL     1      -8.213   8.840  66.508  1.00  0.00    -0.111 C  
HETATM   38  H   UNL     1      -6.873   7.015  67.845  1.00  0.00     0.000 HD 
HETATM   39  C   UNL     1      -9.389   6.789  67.530  1.00  0.00    -0.129 C  
HETATM   40  H   UNL     1      -7.620  10.788  64.922  1.00  0.00     0.000 HD 
HETATM   41  C   UNL     1      -9.299   8.931  68.794  1.00  0.00    -0.137 C  
BRANCH  37  42
HETATM   42  N   UNL     1      -7.224   8.046  65.723  1.00  0.00    -0.070 NA 
HETATM   43  H   UNL     1      -6.334   7.777  66.144  1.00  0.00     0.000 HD 
HETATM   44  C   UNL     1      -7.529   7.661  64.367  1.00  0.00    -0.099 C  
ENDBRANCH  37  42
ENDBRANCH  30  31
ENDBRANCH  10  30
ENDBRANCH   3   5
ENDBRANCH   2   3
TORSDOF 8
ENDMDL
MODEL      228
REMARK 921   NORMALIZED FREE ENERGY PREDICTED BY IDOCK:   -2.40 KCAL/MOL
REMARK 922        TOTAL FREE ENERGY PREDICTED BY IDOCK:   -4.26 KCAL/MOL
REMARK 923 INTER-LIGAND FREE ENERGY PREDICTED BY IDOCK:   -3.26 KCAL/MOL
REMARK 924 INTRA-LIGAND FREE ENERGY PREDICTED BY IDOCK:   -1.00 KCAL/MOL
REMARK 927      BINDING AFFINITY PREDICTED BY RF-SCORE:    0.00 PKD
ROOT
HETATM    1  C   UNL     1     -11.242  14.175  64.026  1.00  0.00     0.112 C  
HETATM    2  C   UNL     1     -11.240  13.430  65.354  1.00  0.00    -0.288 C  
ENDROOT
BRANCH   2   3
HETATM    3  N   UNL     1     -11.139  11.986  65.125  1.00  0.00    -0.311 NA 
HETATM    4  H   UNL     1     -10.974  11.800  64.135  1.00  0.00     0.000 HD 
BRANCH   3   5
HETATM    5  C   UNL     1     -10.127  11.275  65.953  1.00  0.00    -0.245 C  
HETATM    6  C   UNL     1      -9.037  10.632  65.082  1.00  0.00    -0.227 C  
HETATM    7  C   UNL     1      -7.966   9.939  65.929  1.00  0.00    -0.115 C  
HETATM    8  C   UNL     1      -8.590   8.777  66.749  1.00  0.00    -0.115 C  
HETATM    9  N   UNL     1      -6.899   9.461  65.025  1.00  0.00    -0.086 NA 
HETATM   10  C   UNL     1     -10.768  10.291  66.974  1.00  0.00    -0.216 C  
HETATM   11  H2  UNL     1      -6.517  10.205  64.440  1.00  0.00     0.000 HD 
HETATM   12  H1  UNL     1      -6.186   9.000  65.589  1.00  0.00     0.000 HD 
HETATM   13  C   UNL     1      -9.804   9.256  67.588  1.00  0.00    -0.176 C  
HETATM   14  H   UNL     1     -11.394   8.431  68.474  1.00  0.00     0.000 HD 
HETATM   15  O   UNL     1     -10.650   8.138  67.960  1.00  0.00    -0.200 OA 
BRANCH   8  16
HETATM   16  O   UNL     1      -7.555   8.219  67.623  1.00  0.00    -0.095 OA 
BRANCH  16  17
HETATM   17  C   UNL     1      -8.063   7.600  68.827  1.00  0.00    -0.127 C  
HETATM   18  H1  UNL     1      -6.615  10.062  70.804  1.00  0.00     0.000 HD 
HETATM   19  O   UNL     1      -7.845   6.185  68.766  1.00  0.00    -0.098 OA 
HETATM   20  C   UNL     1      -6.719   5.706  69.400  1.00  0.00    -0.059 C  
HETATM   21  H2  UNL     1      -7.403  10.218  69.336  1.00  0.00     0.000 HD 
HETATM   22  N   UNL     1      -6.887   9.584  69.945  1.00  0.00    -0.058 NA 
HETATM   23  C   UNL     1      -6.296   6.248  70.550  1.00  0.00    -0.039 C  
HETATM   24  C   UNL     1      -7.647   8.334  70.146  1.00  0.00    -0.075 C  
HETATM   25  C   UNL     1      -7.022   7.388  71.177  1.00  0.00    -0.058 C  
BRANCH  20  26
HETATM   26  C   UNL     1      -6.105   4.511  68.709  1.00  0.00    -0.030 C  
HETATM   27  N   UNL     1      -5.155   4.833  67.645  1.00  0.00    -0.007 NA 
HETATM   28  H2  UNL     1      -4.424   5.448  68.000  1.00  0.00     0.000 HD 
HETATM   29  H1  UNL     1      -4.741   4.026  67.178  1.00  0.00     0.000 HD 
ENDBRANCH  20  26
ENDBRANCH  16  17
ENDBRANCH   8  16
BRANCH  10  30
HETATM   30  O   UNL     1     -11.615  10.950  67.980  1.00  0.00    -0.464 OA 
BRANCH  30  31
HETATM   31  C   UNL     1     -11.029  11.180  69.275  1.00  0.00    -0.247 C  
HETATM   32  O   UNL     1     -12.073   9.105  70.077  1.00  0.00    -0.375 OA 
HETATM   33  C   UNL     1     -12.751  12.737  71.070  1.00  0.00    -0.243 C  
HETATM   34  C   UNL     1     -11.704  10.434  70.482  1.00  0.00    -0.344 C  
HETATM   35  O   UNL     1     -10.948  12.578  69.512  1.00  0.00    -0.077 OA 
HETATM   36  O   UNL     1     -11.802  13.226  72.040  1.00  0.00     0.618 OA 
HETATM   37  C   UNL     1     -12.894  11.175  71.173  1.00  0.00    -0.374 C  
HETATM   38  H   UNL     1     -12.109  12.988  72.907  1.00  0.00     0.000 HD 
HETATM   39  C   UNL     1     -14.069  13.460  71.353  1.00  0.00     0.532 C  
HETATM   40  H   UNL     1     -12.480   8.654  70.807  1.00  0.00     0.000 HD 
HETATM   41  C   UNL     1     -12.259  13.119  69.680  1.00  0.00    -0.181 C  
BRANCH  37  42
HETATM   42  N   UNL     1     -13.068  10.825  72.612  1.00  0.00    -0.104 NA 
HETATM   43  H   UNL     1     -12.779  11.481  73.337  1.00  0.00     0.000 HD 
HETATM   44  C   UNL     1     -13.646   9.554  72.975  1.00  0.00     0.511 C  
ENDBRANCH  37  42
ENDBRANCH  30  31
ENDBRANCH  10  30
ENDBRANCH   3   5
ENDBRANCH   2   3
TORSDOF 8
ENDMDL
MODEL      229
REMARK 921   NORMALIZED FREE ENERGY PREDICTED BY IDOCK:   -2.34 KCAL/MOL
REMARK 922        TOTAL FREE ENERGY PREDICTED BY IDOCK:   -4.17 KCAL/MOL
REMARK 923 INTER-LIGAND FREE ENERGY PREDICTED BY IDOCK:   -8.10 KCAL/MOL
REMARK 924 INTRA-LIGAND FREE ENERGY PREDICTED BY IDOCK:    3.93 KCAL/MOL
REMARK 927      BINDING AFFINITY PREDICTED BY RF-SCORE:    0.00 PKD
ROOT
HETATM    1  C   UNL     1      -8.948   9.088  65.782  1.00  0.00    -0.242 C  
HETATM    2  C   UNL     1      -8.194  10.305  66.299  1.00  0.00    -0.131 C  
ENDROOT
BRANCH   2   3
HETATM    3  N   UNL     1      -9.137  11.348  66.712  1.00  0.00    -0.171 NA 
HETATM    4  H   UNL     1      -9.572  11.095  67.599  1.00  0.00     0.000 HD 
BRANCH   3   5
HETATM    5  C   UNL     1      -8.574  12.724  66.793  1.00  0.00    -0.078 C  
HETATM    6  C   UNL     1      -7.160  12.718  67.394  1.00  0.00    -0.134 C  
HETATM    7  C   UNL     1      -6.555  14.125  67.438  1.00  0.00     0.083 C  
HETATM    8  C   UNL     1      -7.399  15.051  68.356  1.00  0.00    -0.112 C  
HETATM    9  N   UNL     1      -5.159  14.013  67.908  1.00  0.00    -0.234 NA 
HETATM   10  C   UNL     1      -9.540  13.730  67.484  1.00  0.00    -0.219 C  
HETATM   11  H2  UNL     1      -4.606  13.365  67.347  1.00  0.00     0.000 HD 
HETATM   12  H1  UNL     1      -4.756  14.949  67.938  1.00  0.00     0.000 HD 
HETATM   13  C   UNL     1      -8.896  15.052  67.947  1.00  0.00    -0.171 C  
HETATM   14  H   UNL     1     -10.648  15.509  68.790  1.00  0.00     0.000 HD 
HETATM   15  O   UNL     1      -9.732  15.509  69.040  1.00  0.00    -0.207 OA 
BRANCH   8  16
HETATM   16  O   UNL     1      -6.849  16.406  68.279  1.00  0.00    -0.127 OA 
BRANCH  16  17
HETATM   17  C   UNL     1      -7.844  17.456  68.308  1.00  0.00    -0.247 C  
HETATM   18  H1  UNL     1      -7.541  17.954  64.884  1.00  0.00     0.000 HD 
HETATM   19  O   UNL     1      -7.588  18.326  69.418  1.00  0.00    -0.026 OA 
HETATM   20  C   UNL     1      -6.875  19.474  69.150  1.00  0.00    -0.346 C  
HETATM   21  H2  UNL     1      -7.559  16.517  65.741  1.00  0.00     0.000 HD 
HETATM   22  N   UNL     1      -7.370  17.518  65.790  1.00  0.00    -0.445 NA 
HETATM   23  C   UNL     1      -7.049  20.137  67.999  1.00  0.00    -0.319 C  
HETATM   24  C   UNL     1      -8.106  18.125  66.917  1.00  0.00    -0.237 C  
HETATM   25  C   UNL     1      -8.010  19.653  66.969  1.00  0.00    -0.311 C  
BRANCH  20  26
HETATM   26  C   UNL     1      -5.982  19.903  70.291  1.00  0.00    -0.327 C  
HETATM   27  N   UNL     1      -5.687  18.861  71.272  1.00  0.00    -0.066 NA 
HETATM   28  H2  UNL     1      -5.296  18.041  70.807  1.00  0.00     0.000 HD 
HETATM   29  H1  UNL     1      -5.084  19.150  72.042  1.00  0.00     0.000 HD 
ENDBRANCH  20  26
ENDBRANCH  16  17
ENDBRANCH   8  16
BRANCH  10  30
HETATM   30  O   UNL     1     -10.803  13.932  66.758  1.00  0.00    -0.283 OA 
BRANCH  30  31
HETATM   31  C   UNL     1     -11.990  13.371  67.350  1.00  0.00    -0.346 C  
HETATM   32  O   UNL     1     -11.811  15.007  69.175  1.00  0.00    -0.302 OA 
HETATM   33  C   UNL     1     -11.432  11.201  69.244  1.00  0.00    -0.294 C  
HETATM   34  C   UNL     1     -12.200  13.655  68.882  1.00  0.00    -0.186 C  
HETATM   35  O   UNL     1     -12.042  11.980  67.071  1.00  0.00    -0.603 OA 
HETATM   36  O   UNL     1     -12.704  10.524  69.303  1.00  0.00    -0.703 OA 
HETATM   37  C   UNL     1     -11.539  12.639  69.868  1.00  0.00    -0.177 C  
HETATM   38  H   UNL     1     -12.970  10.461  70.213  1.00  0.00     0.000 HD 
HETATM   39  C   UNL     1     -10.437  10.315  69.996  1.00  0.00    -0.293 C  
HETATM   40  H   UNL     1     -11.938  15.179  70.101  1.00  0.00     0.000 HD 
HETATM   41  C   UNL     1     -11.007  11.302  67.784  1.00  0.00    -0.252 C  
BRANCH  37  42
HETATM   42  N   UNL     1     -12.247  12.520  71.175  1.00  0.00    -0.328 NA 
HETATM   43  H   UNL     1     -11.941  11.832  71.863  1.00  0.00     0.000 HD 
HETATM   44  C   UNL     1     -13.368  13.381  71.462  1.00  0.00    -0.265 C  
ENDBRANCH  37  42
ENDBRANCH  30  31
ENDBRANCH  10  30
ENDBRANCH   3   5
ENDBRANCH   2   3
TORSDOF 8
ENDMDL
MODEL      230
REMARK 921   NORMALIZED FREE ENERGY PREDICTED BY IDOCK:   -2.27 KCAL/MOL
REMARK 922        TOTAL FREE ENERGY PREDICTED BY IDOCK:   -4.07 KCAL/MOL
REMARK 923 INTER-LIGAND FREE ENERGY PREDICTED BY IDOCK:   -4.99 KCAL/MOL
REMARK 924 INTRA-LIGAND FREE ENERGY PREDICTED BY IDOCK:    0.92 KCAL/MOL
REMARK 927      BINDING AFFINITY PREDICTED BY RF-SCORE:    0.00 PKD
ROOT
HETATM    1  C   UNL     1     -12.111  14.241  65.371  1.00  0.00    -0.396 C  
HETATM    2  C   UNL     1     -10.626  14.310  65.698  1.00  0.00    -0.319 C  
ENDROOT
BRANCH   2   3
HETATM    3  N   UNL     1      -9.947  13.099  65.230  1.00  0.00    -0.480 NA 
HETATM    4  H   UNL     1      -9.082  13.347  64.749  1.00  0.00     0.000 HD 
BRANCH   3   5
HETATM    5  C   UNL     1      -9.673  12.073  66.274  1.00  0.00    -0.235 C  
HETATM    6  C   UNL     1      -9.942  10.654  65.753  1.00  0.00    -0.315 C  
HETATM    7  C   UNL     1      -9.619   9.590  66.806  1.00  0.00    -0.176 C  
HETATM    8  C   UNL     1     -10.532   9.761  68.051  1.00  0.00    -0.226 C  
HETATM    9  N   UNL     1      -9.783   8.259  66.185  1.00  0.00    -0.438 NA 
HETATM   10  C   UNL     1     -10.382  12.385  67.624  1.00  0.00    -0.216 C  
HETATM   11  H2  UNL     1      -9.230   8.151  65.335  1.00  0.00     0.000 HD 
HETATM   12  H1  UNL     1      -9.568   7.551  66.886  1.00  0.00     0.000 HD 
HETATM   13  C   UNL     1     -10.466  11.206  68.614  1.00  0.00    -0.197 C  
HETATM   14  H   UNL     1     -11.585  12.379  69.781  1.00  0.00     0.000 HD 
HETATM   15  O   UNL     1     -11.625  11.495  69.437  1.00  0.00    -0.265 OA 
BRANCH   8  16
HETATM   16  O   UNL     1     -10.112   8.798  69.070  1.00  0.00    -0.187 OA 
BRANCH  16  17
HETATM   17  C   UNL     1     -11.101   7.789  69.380  1.00  0.00     0.055 C  
HETATM   18  H1  UNL     1     -10.207   7.824  72.737  1.00  0.00     0.000 HD 
HETATM   19  O   UNL     1     -11.047   6.748  68.397  1.00  0.00    -0.210 OA 
HETATM   20  C   UNL     1     -10.304   5.634  68.718  1.00  0.00    -0.218 C  
HETATM   21  H2  UNL     1     -10.368   9.108  71.677  1.00  0.00     0.000 HD 
HETATM   22  N   UNL     1     -10.195   8.106  71.757  1.00  0.00    -0.197 NA 
HETATM   23  C   UNL     1     -10.276   5.166  69.972  1.00  0.00    -0.354 C  
HETATM   24  C   UNL     1     -11.119   7.355  70.884  1.00  0.00    -0.263 C  
HETATM   25  C   UNL     1     -11.040   5.835  71.061  1.00  0.00    -0.264 C  
BRANCH  20  26
HETATM   26  C   UNL     1      -9.625   5.003  67.524  1.00  0.00    -0.145 C  
HETATM   27  N   UNL     1     -10.504   4.717  66.392  1.00  0.00    -0.296 NA 
HETATM   28  H2  UNL     1     -10.998   5.563  66.109  1.00  0.00     0.000 HD 
HETATM   29  H1  UNL     1     -10.046   4.291  65.586  1.00  0.00     0.000 HD 
ENDBRANCH  20  26
ENDBRANCH  16  17
ENDBRANCH   8  16
BRANCH  10  30
HETATM   30  O   UNL     1      -9.927  13.632  68.257  1.00  0.00    -0.227 OA 
BRANCH  30  31
HETATM   31  C   UNL     1      -8.964  13.509  69.321  1.00  0.00     0.755 C  
HETATM   32  O   UNL     1      -8.982  15.953  69.573  1.00  0.00    -0.249 OA 
HETATM   33  C   UNL     1      -6.184  13.627  68.391  1.00  0.00    -0.095 C  
HETATM   34  C   UNL     1      -8.129  14.799  69.651  1.00  0.00     0.097 C  
HETATM   35  O   UNL     1      -8.118  12.399  69.062  1.00  0.00     0.107 OA 
HETATM   36  O   UNL     1      -5.477  13.017  69.490  1.00  0.00    -0.077 OA 
HETATM   37  C   UNL     1      -6.815  14.998  68.829  1.00  0.00    -0.105 C  
HETATM   38  H   UNL     1      -4.792  13.610  69.774  1.00  0.00     0.000 HD 
HETATM   39  C   UNL     1      -5.165  13.792  67.262  1.00  0.00     0.513 C  
HETATM   40  H   UNL     1      -8.477  16.733  69.773  1.00  0.00     0.000 HD 
HETATM   41  C   UNL     1      -7.283  12.675  67.937  1.00  0.00    -0.116 C  
BRANCH  37  42
HETATM   42  N   UNL     1      -5.766  15.775  69.551  1.00  0.00    -0.120 NA 
HETATM   43  H   UNL     1      -5.502  15.519  70.502  1.00  0.00     0.000 HD 
HETATM   44  C   UNL     1      -5.127  16.892  68.899  1.00  0.00    -0.131 C  
ENDBRANCH  37  42
ENDBRANCH  30  31
ENDBRANCH  10  30
ENDBRANCH   3   5
ENDBRANCH   2   3
TORSDOF 8
ENDMDL
MODEL      231
REMARK 921   NORMALIZED FREE ENERGY PREDICTED BY IDOCK:   -2.26 KCAL/MOL
REMARK 922        TOTAL FREE ENERGY PREDICTED BY IDOCK:   -4.06 KCAL/MOL
REMARK 923 INTER-LIGAND FREE ENERGY PREDICTED BY IDOCK:   -4.92 KCAL/MOL
REMARK 924 INTRA-LIGAND FREE ENERGY PREDICTED BY IDOCK:    0.86 KCAL/MOL
REMARK 927      BINDING AFFINITY PREDICTED BY RF-SCORE:    0.00 PKD
ROOT
HETATM    1  C   UNL     1      -5.130   6.379  69.863  1.00  0.00    -0.013 C  
HETATM    2  C   UNL     1      -5.908   5.502  70.834  1.00  0.00    -0.024 C  
ENDROOT
BRANCH   2   3
HETATM    3  N   UNL     1      -7.204   5.133  70.258  1.00  0.00    -0.057 NA 
HETATM    4  H   UNL     1      -7.622   4.373  70.795  1.00  0.00     0.000 HD 
BRANCH   3   5
HETATM    5  C   UNL     1      -8.179   6.249  70.110  1.00  0.00    -0.121 C  
HETATM    6  C   UNL     1      -8.746   6.684  71.470  1.00  0.00    -0.131 C  
HETATM    7  C   UNL     1      -9.714   7.863  71.332  1.00  0.00    -0.164 C  
HETATM    8  C   UNL     1     -10.944   7.459  70.472  1.00  0.00    -0.253 C  
HETATM    9  N   UNL     1     -10.112   8.296  72.687  1.00  0.00    -0.301 NA 
HETATM   10  C   UNL     1      -9.274   5.955  69.045  1.00  0.00    -0.124 C  
HETATM   11  H2  UNL     1      -9.312   8.512  73.282  1.00  0.00     0.000 HD 
HETATM   12  H1  UNL     1     -10.757   9.080  72.596  1.00  0.00     0.000 HD 
HETATM   13  C   UNL     1     -10.515   6.868  69.103  1.00  0.00    -0.207 C  
HETATM   14  H   UNL     1     -11.321   5.717  67.684  1.00  0.00     0.000 HD 
HETATM   15  O   UNL     1     -11.584   6.078  68.522  1.00  0.00     0.107 OA 
BRANCH   8  16
HETATM   16  O   UNL     1     -11.781   8.644  70.276  1.00  0.00    -0.103 OA 
BRANCH  16  17
HETATM   17  C   UNL     1     -11.063   9.898  70.335  1.00  0.00    -0.319 C  
HETATM   18  H1  UNL     1     -13.829  11.517  71.674  1.00  0.00     0.000 HD 
HETATM   19  O   UNL     1     -10.350  10.099  69.108  1.00  0.00    -0.193 OA 
HETATM   20  C   UNL     1     -10.965  10.886  68.159  1.00  0.00    -0.249 C  
HETATM   21  H2  UNL     1     -13.233   9.991  72.017  1.00  0.00     0.000 HD 
HETATM   22  N   UNL     1     -13.274  10.737  71.322  1.00  0.00    -0.304 NA 
HETATM   23  C   UNL     1     -11.692  11.951  68.518  1.00  0.00    -0.388 C  
HETATM   24  C   UNL     1     -11.914  11.096  70.876  1.00  0.00    -0.257 C  
HETATM   25  C   UNL     1     -11.867  12.317  69.951  1.00  0.00    -0.383 C  
BRANCH  20  26
HETATM   26  C   UNL     1     -10.665  10.458  66.741  1.00  0.00    -0.168 C  
HETATM   27  N   UNL     1     -10.036   9.145  66.611  1.00  0.00    -0.265 NA 
HETATM   28  H2  UNL     1     -10.601   8.436  67.081  1.00  0.00     0.000 HD 
HETATM   29  H1  UNL     1      -9.834   8.855  65.654  1.00  0.00     0.000 HD 
ENDBRANCH  20  26
ENDBRANCH  16  17
ENDBRANCH   8  16
BRANCH  10  30
HETATM   30  O   UNL     1      -8.746   5.794  67.681  1.00  0.00    -0.110 OA 
BRANCH  30  31
HETATM   31  C   UNL     1      -8.041   4.571  67.397  1.00  0.00    -0.101 C  
HETATM   32  O   UNL     1      -6.473   5.843  65.994  1.00  0.00    -0.040 OA 
HETATM   33  C   UNL     1      -9.041   3.181  65.015  1.00  0.00    -0.145 C  
HETATM   34  C   UNL     1      -7.142   4.575  66.107  1.00  0.00    -0.074 C  
HETATM   35  O   UNL     1      -8.962   3.491  67.380  1.00  0.00    -0.120 OA 
HETATM   36  O   UNL     1      -8.549   1.841  65.225  1.00  0.00    -0.097 OA 
HETATM   37  C   UNL     1      -7.850   4.177  64.772  1.00  0.00    -0.085 C  
HETATM   38  H   UNL     1      -8.059   1.576  64.455  1.00  0.00     0.000 HD 
HETATM   39  C   UNL     1      -9.989   3.108  63.816  1.00  0.00    -0.165 C  
HETATM   40  H   UNL     1      -5.930   5.845  65.215  1.00  0.00     0.000 HD 
HETATM   41  C   UNL     1      -9.825   3.605  66.249  1.00  0.00     0.008 C  
BRANCH  37  42
HETATM   42  N   UNL     1      -6.936   3.564  63.766  1.00  0.00    -0.047 NA 
HETATM   43  H   UNL     1      -6.455   4.152  63.085  1.00  0.00     0.000 HD 
HETATM   44  C   UNL     1      -6.735   2.136  63.758  1.00  0.00    -0.030 C  
ENDBRANCH  37  42
ENDBRANCH  30  31
ENDBRANCH  10  30
ENDBRANCH   3   5
ENDBRANCH   2   3
TORSDOF 8
ENDMDL
MODEL      232
REMARK 921   NORMALIZED FREE ENERGY PREDICTED BY IDOCK:   -2.24 KCAL/MOL
REMARK 922        TOTAL FREE ENERGY PREDICTED BY IDOCK:   -4.02 KCAL/MOL
REMARK 923 INTER-LIGAND FREE ENERGY PREDICTED BY IDOCK:   -5.64 KCAL/MOL
REMARK 924 INTRA-LIGAND FREE ENERGY PREDICTED BY IDOCK:    1.62 KCAL/MOL
REMARK 927      BINDING AFFINITY PREDICTED BY RF-SCORE:    0.00 PKD
ROOT
HETATM    1  C   UNL     1     -12.839  14.580  69.973  1.00  0.00    -0.067 C  
HETATM    2  C   UNL     1     -11.797  15.071  68.978  1.00  0.00    -0.300 C  
ENDROOT
BRANCH   2   3
HETATM    3  N   UNL     1     -11.936  14.358  67.705  1.00  0.00    -0.526 NA 
HETATM    4  H   UNL     1     -11.813  15.006  66.927  1.00  0.00     0.000 HD 
BRANCH   3   5
HETATM    5  C   UNL     1     -11.045  13.177  67.532  1.00  0.00    -0.271 C  
HETATM    6  C   UNL     1     -11.621  11.933  68.224  1.00  0.00    -0.390 C  
HETATM    7  C   UNL     1     -10.735  10.702  68.012  1.00  0.00    -0.233 C  
HETATM    8  C   UNL     1      -9.333  10.925  68.643  1.00  0.00    -0.187 C  
HETATM    9  N   UNL     1     -11.419   9.532  68.598  1.00  0.00    -0.340 NA 
HETATM   10  C   UNL     1      -9.568  13.476  67.916  1.00  0.00    -0.218 C  
HETATM   11  H2  UNL     1     -12.363   9.404  68.232  1.00  0.00     0.000 HD 
HETATM   12  H1  UNL     1     -10.829   8.712  68.457  1.00  0.00     0.000 HD 
HETATM   13  C   UNL     1      -8.677  12.236  68.131  1.00  0.00    -0.186 C  
HETATM   14  H   UNL     1      -7.233  13.483  68.723  1.00  0.00     0.000 HD 
HETATM   15  O   UNL     1      -7.634  12.681  69.036  1.00  0.00    -0.004 OA 
BRANCH   8  16
HETATM   16  O   UNL     1      -8.489   9.773  68.318  1.00  0.00    -0.113 OA 
BRANCH  16  17
HETATM   17  C   UNL     1      -7.141  10.115  67.923  1.00  0.00    -0.085 C  
HETATM   18  H1  UNL     1      -8.066  10.248  64.577  1.00  0.00     0.000 HD 
HETATM   19  O   UNL     1      -6.211   9.272  68.615  1.00  0.00    -0.044 OA 
HETATM   20  C   UNL     1      -5.765   8.158  67.938  1.00  0.00    -0.038 C  
HETATM   21  H2  UNL     1      -8.897  10.797  65.922  1.00  0.00     0.000 HD 
HETATM   22  N   UNL     1      -8.190  10.144  65.584  1.00  0.00    -0.144 NA 
HETATM   23  C   UNL     1      -5.545   8.201  66.618  1.00  0.00    -0.032 C  
HETATM   24  C   UNL     1      -6.951  10.275  66.377  1.00  0.00    -0.111 C  
HETATM   25  C   UNL     1      -5.780   9.447  65.837  1.00  0.00    -0.049 C  
BRANCH  20  26
HETATM   26  C   UNL     1      -5.501   6.975  68.840  1.00  0.00    -0.018 C  
HETATM   27  N   UNL     1      -5.145   5.738  68.149  1.00  0.00    -0.003 NA 
HETATM   28  H2  UNL     1      -4.347   5.896  67.534  1.00  0.00     0.000 HD 
HETATM   29  H1  UNL     1      -4.966   4.939  68.758  1.00  0.00     0.000 HD 
ENDBRANCH  20  26
ENDBRANCH  16  17
ENDBRANCH   8  16
BRANCH  10  30
HETATM   30  O   UNL     1      -8.931  14.498  67.071  1.00  0.00    -0.217 OA 
BRANCH  30  31
HETATM   31  C   UNL     1      -7.949  15.343  67.700  1.00  0.00    -0.155 C  
HETATM   32  O   UNL     1      -9.506  15.700  69.568  1.00  0.00    -0.265 OA 
HETATM   33  C   UNL     1      -8.200  18.169  66.954  1.00  0.00    -0.243 C  
HETATM   34  C   UNL     1      -8.492  16.347  68.781  1.00  0.00    -0.249 C  
HETATM   35  O   UNL     1      -7.200  16.017  66.701  1.00  0.00    -0.169 OA 
HETATM   36  O   UNL     1      -6.893  18.681  67.288  1.00  0.00    -0.201 OA 
HETATM   37  C   UNL     1      -8.974  17.736  68.251  1.00  0.00    -0.277 C  
HETATM   38  H   UNL     1      -7.002  19.430  67.864  1.00  0.00     0.000 HD 
HETATM   39  C   UNL     1      -8.920  19.286  66.195  1.00  0.00    -0.270 C  
HETATM   40  H   UNL     1      -9.834  16.306  70.221  1.00  0.00     0.000 HD 
HETATM   41  C   UNL     1      -8.026  16.970  66.032  1.00  0.00    -0.141 C  
BRANCH  37  42
HETATM   42  N   UNL     1      -8.850  18.837  69.249  1.00  0.00     0.045 NA 
HETATM   43  H   UNL     1      -8.000  18.929  69.807  1.00  0.00     0.000 HD 
HETATM   44  C   UNL     1      -9.935  19.771  69.424  1.00  0.00    -0.144 C  
ENDBRANCH  37  42
ENDBRANCH  30  31
ENDBRANCH  10  30
ENDBRANCH   3   5
ENDBRANCH   2   3
TORSDOF 8
ENDMDL
MODEL      233
REMARK 921   NORMALIZED FREE ENERGY PREDICTED BY IDOCK:   -2.08 KCAL/MOL
REMARK 922        TOTAL FREE ENERGY PREDICTED BY IDOCK:   -3.79 KCAL/MOL
REMARK 923 INTER-LIGAND FREE ENERGY PREDICTED BY IDOCK:   -5.54 KCAL/MOL
REMARK 924 INTRA-LIGAND FREE ENERGY PREDICTED BY IDOCK:    1.75 KCAL/MOL
REMARK 927      BINDING AFFINITY PREDICTED BY RF-SCORE:    0.00 PKD
ROOT
HETATM    1  C   UNL     1     -11.974   7.185  71.646  1.00  0.00    -0.353 C  
HETATM    2  C   UNL     1     -10.847   8.080  72.144  1.00  0.00    -0.279 C  
ENDROOT
BRANCH   2   3
HETATM    3  N   UNL     1      -9.937   8.409  71.043  1.00  0.00    -0.183 NA 
HETATM    4  H   UNL     1      -8.971   8.391  71.371  1.00  0.00     0.000 HD 
BRANCH   3   5
HETATM    5  C   UNL     1     -10.077   7.566  69.824  1.00  0.00    -0.194 C  
HETATM    6  C   UNL     1      -9.515   6.154  70.049  1.00  0.00    -0.172 C  
HETATM    7  C   UNL     1      -9.697   5.265  68.815  1.00  0.00    -0.146 C  
HETATM    8  C   UNL     1      -8.911   5.845  67.607  1.00  0.00    -0.106 C  
HETATM    9  N   UNL     1      -9.248   3.900  69.157  1.00  0.00    -0.142 NA 
HETATM   10  C   UNL     1      -9.524   8.259  68.546  1.00  0.00    -0.146 C  
HETATM   11  H2  UNL     1      -9.717   3.527  69.983  1.00  0.00     0.000 HD 
HETATM   12  H1  UNL     1      -9.369   3.309  68.336  1.00  0.00     0.000 HD 
HETATM   13  C   UNL     1      -9.282   7.328  67.341  1.00  0.00    -0.128 C  
HETATM   14  H   UNL     1      -8.477   8.896  66.401  1.00  0.00     0.000 HD 
HETATM   15  O   UNL     1      -8.251   7.989  66.564  1.00  0.00    -0.109 OA 
BRANCH   8  16
HETATM   16  O   UNL     1      -9.205   5.027  66.428  1.00  0.00    -0.130 OA 
BRANCH  16  17
HETATM   17  C   UNL     1      -8.033   4.537  65.735  1.00  0.00    -0.095 C  
HETATM   18  H1  UNL     1      -7.553   7.614  64.197  1.00  0.00     0.000 HD 
HETATM   19  O   UNL     1      -8.306   3.240  65.192  1.00  0.00    -0.093 OA 
HETATM   20  C   UNL     1      -8.691   3.192  63.870  1.00  0.00    -0.089 C  
HETATM   21  H2  UNL     1      -8.010   7.285  65.773  1.00  0.00     0.000 HD 
HETATM   22  N   UNL     1      -7.986   6.930  64.817  1.00  0.00    -0.122 NA 
HETATM   23  C   UNL     1      -8.159   4.031  62.971  1.00  0.00    -0.080 C  
HETATM   24  C   UNL     1      -7.369   5.589  64.784  1.00  0.00    -0.064 C  
HETATM   25  C   UNL     1      -7.144   5.045  63.369  1.00  0.00    -0.047 C  
BRANCH  20  26
HETATM   26  C   UNL     1      -9.675   2.085  63.572  1.00  0.00    -0.117 C  
HETATM   27  N   UNL     1     -10.748   2.444  62.647  1.00  0.00    -0.148 NA 
HETATM   28  H2  UNL     1     -10.356   2.810  61.779  1.00  0.00     0.000 HD 
HETATM   29  H1  UNL     1     -11.413   1.697  62.445  1.00  0.00     0.000 HD 
ENDBRANCH  20  26
ENDBRANCH  16  17
ENDBRANCH   8  16
BRANCH  10  30
HETATM   30  O   UNL     1     -10.243   9.490  68.181  1.00  0.00    -0.175 OA 
BRANCH  30  31
HETATM   31  C   UNL     1      -9.574  10.737  68.447  1.00  0.00    -0.176 C  
HETATM   32  O   UNL     1     -11.227  11.210  70.202  1.00  0.00    -0.440 OA 
HETATM   33  C   UNL     1     -10.618  12.976  66.864  1.00  0.00    -0.254 C  
HETATM   34  C   UNL     1     -10.422  11.833  69.188  1.00  0.00    -0.024 C  
HETATM   35  O   UNL     1      -9.022  11.240  67.239  1.00  0.00    -0.146 OA 
HETATM   36  O   UNL     1      -9.531  13.921  66.934  1.00  0.00    -0.240 OA 
HETATM   37  C   UNL     1     -11.273  12.778  68.278  1.00  0.00    -0.271 C  
HETATM   38  H   UNL     1      -9.873  14.750  67.250  1.00  0.00     0.000 HD 
HETATM   39  C   UNL     1     -11.608  13.533  65.839  1.00  0.00    -0.359 C  
HETATM   40  H   UNL     1     -11.740  11.872  70.650  1.00  0.00     0.000 HD 
HETATM   41  C   UNL     1     -10.070  11.648  66.359  1.00  0.00    -0.214 C  
BRANCH  37  42
HETATM   42  N   UNL     1     -11.510  14.127  68.867  1.00  0.00    -0.273 NA 
HETATM   43  H   UNL     1     -11.997  14.843  68.328  1.00  0.00     0.000 HD 
HETATM   44  C   UNL     1     -11.047  14.417  70.202  1.00  0.00    -0.024 C  
ENDBRANCH  37  42
ENDBRANCH  30  31
ENDBRANCH  10  30
ENDBRANCH   3   5
ENDBRANCH   2   3
TORSDOF 8
ENDMDL
MODEL      234
REMARK 921   NORMALIZED FREE ENERGY PREDICTED BY IDOCK:   -2.01 KCAL/MOL
REMARK 922        TOTAL FREE ENERGY PREDICTED BY IDOCK:   -3.69 KCAL/MOL
REMARK 923 INTER-LIGAND FREE ENERGY PREDICTED BY IDOCK:   -5.55 KCAL/MOL
REMARK 924 INTRA-LIGAND FREE ENERGY PREDICTED BY IDOCK:    1.87 KCAL/MOL
REMARK 927      BINDING AFFINITY PREDICTED BY RF-SCORE:    0.00 PKD
ROOT
HETATM    1  C   UNL     1     -10.753   6.190  71.855  1.00  0.00    -0.277 C  
HETATM    2  C   UNL     1      -9.500   6.951  72.263  1.00  0.00    -0.140 C  
ENDROOT
BRANCH   2   3
HETATM    3  N   UNL     1      -9.000   7.746  71.137  1.00  0.00    -0.136 NA 
HETATM    4  H   UNL     1      -7.981   7.792  71.167  1.00  0.00     0.000 HD 
BRANCH   3   5
HETATM    5  C   UNL     1      -9.451   7.301  69.790  1.00  0.00    -0.149 C  
HETATM    6  C   UNL     1      -8.939   5.890  69.463  1.00  0.00    -0.131 C  
HETATM    7  C   UNL     1      -9.438   5.405  68.099  1.00  0.00    -0.118 C  
HETATM    8  C   UNL     1      -8.899   6.322  66.966  1.00  0.00    -0.108 C  
HETATM    9  N   UNL     1      -9.008   4.003  67.920  1.00  0.00    -0.116 NA 
HETATM   10  C   UNL     1      -9.148   8.346  68.678  1.00  0.00    -0.140 C  
HETATM   11  H2  UNL     1      -9.308   3.399  68.685  1.00  0.00     0.000 HD 
HETATM   12  H1  UNL     1      -9.339   3.680  67.012  1.00  0.00     0.000 HD 
HETATM   13  C   UNL     1      -9.228   7.814  67.233  1.00  0.00    -0.139 C  
HETATM   14  H   UNL     1      -8.554   9.597  66.633  1.00  0.00     0.000 HD 
HETATM   15  O   UNL     1      -8.352   8.683  66.469  1.00  0.00    -0.105 OA 
BRANCH   8  16
HETATM   16  O   UNL     1      -9.489   5.888  65.698  1.00  0.00    -0.023 OA 
BRANCH  16  17
HETATM   17  C   UNL     1      -8.528   5.438  64.716  1.00  0.00    -0.138 C  
HETATM   18  H1  UNL     1      -5.982   5.449  67.079  1.00  0.00     0.000 HD 
HETATM   19  O   UNL     1      -8.698   6.183  63.504  1.00  0.00     0.215 OA 
HETATM   20  C   UNL     1      -7.866   7.267  63.324  1.00  0.00    -0.113 C  
HETATM   21  H2  UNL     1      -7.571   4.949  67.245  1.00  0.00     0.000 HD 
HETATM   22  N   UNL     1      -6.932   5.544  66.718  1.00  0.00    -0.063 NA 
HETATM   23  C   UNL     1      -6.593   7.231  63.738  1.00  0.00    -0.048 C  
HETATM   24  C   UNL     1      -7.071   5.292  65.271  1.00  0.00    -0.066 C  
HETATM   25  C   UNL     1      -6.036   6.025  64.411  1.00  0.00    -0.025 C  
BRANCH  20  26
HETATM   26  C   UNL     1      -8.520   8.406  62.576  1.00  0.00    -0.125 C  
HETATM   27  N   UNL     1      -9.185   9.399  63.417  1.00  0.00    -0.441 NA 
HETATM   28  H2  UNL     1      -8.534   9.763  64.113  1.00  0.00     0.000 HD 
HETATM   29  H1  UNL     1      -9.626  10.167  62.912  1.00  0.00     0.000 HD 
ENDBRANCH  20  26
ENDBRANCH  16  17
ENDBRANCH   8  16
BRANCH  10  30
HETATM   30  O   UNL     1      -9.853   9.624  68.858  1.00  0.00    -0.165 OA 
BRANCH  30  31
HETATM   31  C   UNL     1     -10.286  10.302  67.663  1.00  0.00    -0.220 C  
HETATM   32  O   UNL     1      -8.030  11.245  67.423  1.00  0.00    -0.122 OA 
HETATM   33  C   UNL     1     -11.353  12.987  68.172  1.00  0.00    -0.294 C  
HETATM   34  C   UNL     1      -9.422  11.536  67.217  1.00  0.00    -0.169 C  
HETATM   35  O   UNL     1     -11.657  10.650  67.791  1.00  0.00    -0.501 OA 
HETATM   36  O   UNL     1     -12.126  13.230  66.979  1.00  0.00    -0.375 OA 
HETATM   37  C   UNL     1      -9.820  12.915  67.836  1.00  0.00    -0.227 C  
HETATM   38  H   UNL     1     -11.841  14.053  66.599  1.00  0.00     0.000 HD 
HETATM   39  C   UNL     1     -11.682  14.126  69.139  1.00  0.00    -0.368 C  
HETATM   40  H   UNL     1      -7.508  11.992  67.153  1.00  0.00     0.000 HD 
HETATM   41  C   UNL     1     -11.810  11.667  68.781  1.00  0.00    -0.325 C  
BRANCH  37  42
HETATM   42  N   UNL     1      -9.486  14.083  66.969  1.00  0.00    -0.240 NA 
HETATM   43  H   UNL     1     -10.177  14.449  66.314  1.00  0.00     0.000 HD 
HETATM   44  C   UNL     1      -8.182  14.692  67.061  1.00  0.00    -0.157 C  
ENDBRANCH  37  42
ENDBRANCH  30  31
ENDBRANCH  10  30
ENDBRANCH   3   5
ENDBRANCH   2   3
TORSDOF 8
ENDMDL
MODEL      235
REMARK 921   NORMALIZED FREE ENERGY PREDICTED BY IDOCK:   -2.01 KCAL/MOL
REMARK 922        TOTAL FREE ENERGY PREDICTED BY IDOCK:   -3.68 KCAL/MOL
REMARK 923 INTER-LIGAND FREE ENERGY PREDICTED BY IDOCK:   -4.13 KCAL/MOL
REMARK 924 INTRA-LIGAND FREE ENERGY PREDICTED BY IDOCK:    0.44 KCAL/MOL
REMARK 927      BINDING AFFINITY PREDICTED BY RF-SCORE:    0.00 PKD
ROOT
HETATM    1  C   UNL     1     -11.118  13.723  64.123  1.00  0.00    -0.192 C  
HETATM    2  C   UNL     1     -10.884  13.215  65.539  1.00  0.00    -0.283 C  
ENDROOT
BRANCH   2   3
HETATM    3  N   UNL     1     -10.798  11.752  65.544  1.00  0.00    -0.291 NA 
HETATM    4  H   UNL     1     -10.644  11.407  64.597  1.00  0.00     0.000 HD 
BRANCH   3   5
HETATM    5  C   UNL     1      -9.783  11.173  66.468  1.00  0.00    -0.198 C  
HETATM    6  C   UNL     1      -9.534   9.687  66.171  1.00  0.00    -0.274 C  
HETATM    7  C   UNL     1      -8.458   9.096  67.086  1.00  0.00    -0.120 C  
HETATM    8  C   UNL     1      -8.911   9.159  68.571  1.00  0.00    -0.129 C  
HETATM    9  N   UNL     1      -8.193   7.708  66.653  1.00  0.00    -0.121 NA 
HETATM   10  C   UNL     1     -10.094  11.465  67.964  1.00  0.00    -0.180 C  
HETATM   11  H2  UNL     1      -7.947   7.645  65.665  1.00  0.00     0.000 HD 
HETATM   12  H1  UNL     1      -7.476   7.315  67.262  1.00  0.00     0.000 HD 
HETATM   13  C   UNL     1      -9.327  10.596  68.981  1.00  0.00    -0.180 C  
HETATM   14  H   UNL     1     -10.425  11.455  70.412  1.00  0.00     0.000 HD 
HETATM   15  O   UNL     1     -10.170  10.575  70.161  1.00  0.00    -0.110 OA 
BRANCH   8  16
HETATM   16  O   UNL     1      -7.808   8.688  69.412  1.00  0.00    -0.092 OA 
BRANCH  16  17
HETATM   17  C   UNL     1      -7.662   9.407  70.658  1.00  0.00    -0.149 C  
HETATM   18  H1  UNL     1      -4.217   9.581  70.250  1.00  0.00     0.000 HD 
HETATM   19  O   UNL     1      -8.465   8.783  71.668  1.00  0.00    -0.203 OA 
HETATM   20  C   UNL     1      -7.826   7.889  72.499  1.00  0.00    -0.117 C  
HETATM   21  H2  UNL     1      -5.424   9.772  69.107  1.00  0.00     0.000 HD 
HETATM   22  N   UNL     1      -5.183   9.361  70.008  1.00  0.00    -0.032 NA 
HETATM   23  C   UNL     1      -6.565   8.103  72.897  1.00  0.00    -0.095 C  
HETATM   24  C   UNL     1      -6.178   9.745  71.029  1.00  0.00    -0.058 C  
HETATM   25  C   UNL     1      -5.810   9.306  72.450  1.00  0.00     0.031 C  
BRANCH  20  26
HETATM   26  C   UNL     1      -8.709   6.744  72.939  1.00  0.00    -0.120 C  
HETATM   27  N   UNL     1      -8.972   5.737  71.913  1.00  0.00    -0.139 NA 
HETATM   28  H2  UNL     1      -8.094   5.380  71.537  1.00  0.00     0.000 HD 
HETATM   29  H1  UNL     1      -9.568   4.964  72.209  1.00  0.00     0.000 HD 
ENDBRANCH  20  26
ENDBRANCH  16  17
ENDBRANCH   8  16
BRANCH  10  30
HETATM   30  O   UNL     1     -10.075  12.896  68.305  1.00  0.00    -0.233 OA 
BRANCH  30  31
HETATM   31  C   UNL     1      -8.805  13.457  68.689  1.00  0.00     0.020 C  
HETATM   32  O   UNL     1      -9.976  14.945  70.255  1.00  0.00    -0.462 OA 
HETATM   33  C   UNL     1      -8.023  15.777  67.072  1.00  0.00    -0.237 C  
HETATM   34  C   UNL     1      -8.851  14.876  69.363  1.00  0.00    -0.044 C  
HETATM   35  O   UNL     1      -7.930  13.444  67.571  1.00  0.00    -0.160 OA 
HETATM   36  O   UNL     1      -6.600  15.831  67.300  1.00  0.00    -0.180 OA 
HETATM   37  C   UNL     1      -8.810  16.101  68.393  1.00  0.00    -0.188 C  
HETATM   38  H   UNL     1      -6.376  16.704  67.602  1.00  0.00     0.000 HD 
HETATM   39  C   UNL     1      -8.320  16.784  65.959  1.00  0.00    -0.187 C  
HETATM   40  H   UNL     1     -10.003  15.802  70.663  1.00  0.00     0.000 HD 
HETATM   41  C   UNL     1      -8.381  14.377  66.589  1.00  0.00     0.169 C  
BRANCH  37  42
HETATM   42  N   UNL     1      -8.208  17.325  68.996  1.00  0.00    -0.164 NA 
HETATM   43  H   UNL     1      -7.195  17.412  69.077  1.00  0.00     0.000 HD 
HETATM   44  C   UNL     1      -9.064  18.387  69.466  1.00  0.00     0.592 C  
ENDBRANCH  37  42
ENDBRANCH  30  31
ENDBRANCH  10  30
ENDBRANCH   3   5
ENDBRANCH   2   3
TORSDOF 8
ENDMDL
MODEL      236
REMARK 921   NORMALIZED FREE ENERGY PREDICTED BY IDOCK:   -1.95 KCAL/MOL
REMARK 922        TOTAL FREE ENERGY PREDICTED BY IDOCK:   -3.60 KCAL/MOL
REMARK 923 INTER-LIGAND FREE ENERGY PREDICTED BY IDOCK:   -5.75 KCAL/MOL
REMARK 924 INTRA-LIGAND FREE ENERGY PREDICTED BY IDOCK:    2.15 KCAL/MOL
REMARK 927      BINDING AFFINITY PREDICTED BY RF-SCORE:    0.00 PKD
ROOT
HETATM    1  C   UNL     1     -12.111  14.241  65.371  1.00  0.00    -0.396 C  
HETATM    2  C   UNL     1     -10.626  14.310  65.698  1.00  0.00    -0.319 C  
ENDROOT
BRANCH   2   3
HETATM    3  N   UNL     1      -9.947  13.099  65.230  1.00  0.00    -0.480 NA 
HETATM    4  H   UNL     1      -9.082  13.347  64.749  1.00  0.00     0.000 HD 
BRANCH   3   5
HETATM    5  C   UNL     1      -9.673  12.073  66.274  1.00  0.00    -0.235 C  
HETATM    6  C   UNL     1      -9.942  10.654  65.753  1.00  0.00    -0.315 C  
HETATM    7  C   UNL     1      -9.619   9.590  66.806  1.00  0.00    -0.176 C  
HETATM    8  C   UNL     1     -10.532   9.761  68.051  1.00  0.00    -0.226 C  
HETATM    9  N   UNL     1      -9.783   8.259  66.185  1.00  0.00    -0.438 NA 
HETATM   10  C   UNL     1     -10.382  12.385  67.624  1.00  0.00    -0.216 C  
HETATM   11  H2  UNL     1      -9.230   8.151  65.335  1.00  0.00     0.000 HD 
HETATM   12  H1  UNL     1      -9.568   7.551  66.886  1.00  0.00     0.000 HD 
HETATM   13  C   UNL     1     -10.466  11.206  68.614  1.00  0.00    -0.197 C  
HETATM   14  H   UNL     1     -11.585  12.379  69.781  1.00  0.00     0.000 HD 
HETATM   15  O   UNL     1     -11.625  11.495  69.437  1.00  0.00    -0.265 OA 
BRANCH   8  16
HETATM   16  O   UNL     1     -10.112   8.798  69.070  1.00  0.00    -0.187 OA 
BRANCH  16  17
HETATM   17  C   UNL     1      -9.905   9.371  70.382  1.00  0.00    -0.259 C  
HETATM   18  H1  UNL     1      -7.207   7.262  70.969  1.00  0.00     0.000 HD 
HETATM   19  O   UNL     1     -11.165   9.504  71.050  1.00  0.00    -0.300 OA 
HETATM   20  C   UNL     1     -11.513   8.492  71.919  1.00  0.00    -0.335 C  
HETATM   21  H2  UNL     1      -7.625   8.071  69.565  1.00  0.00     0.000 HD 
HETATM   22  N   UNL     1      -7.971   7.689  70.445  1.00  0.00    -0.096 NA 
HETATM   23  C   UNL     1     -10.586   7.887  72.673  1.00  0.00    -0.394 C  
HETATM   24  C   UNL     1      -8.731   8.715  71.186  1.00  0.00    -0.197 C  
HETATM   25  C   UNL     1      -9.152   8.279  72.593  1.00  0.00    -0.327 C  
BRANCH  20  26
HETATM   26  C   UNL     1     -12.999   8.225  71.962  1.00  0.00    -0.330 C  
HETATM   27  N   UNL     1     -13.834   9.403  72.194  1.00  0.00    -0.416 NA 
HETATM   28  H2  UNL     1     -13.625  10.123  71.503  1.00  0.00     0.000 HD 
HETATM   29  H1  UNL     1     -14.837   9.222  72.223  1.00  0.00     0.000 HD 
ENDBRANCH  20  26
ENDBRANCH  16  17
ENDBRANCH   8  16
BRANCH  10  30
HETATM   30  O   UNL     1      -9.927  13.632  68.257  1.00  0.00    -0.227 OA 
BRANCH  30  31
HETATM   31  C   UNL     1      -8.964  13.509  69.321  1.00  0.00     0.755 C  
HETATM   32  O   UNL     1      -8.982  15.953  69.573  1.00  0.00    -0.249 OA 
HETATM   33  C   UNL     1      -6.184  13.627  68.391  1.00  0.00    -0.095 C  
HETATM   34  C   UNL     1      -8.129  14.799  69.651  1.00  0.00     0.097 C  
HETATM   35  O   UNL     1      -8.118  12.399  69.062  1.00  0.00     0.107 OA 
HETATM   36  O   UNL     1      -5.477  13.017  69.490  1.00  0.00    -0.077 OA 
HETATM   37  C   UNL     1      -6.815  14.998  68.829  1.00  0.00    -0.105 C  
HETATM   38  H   UNL     1      -4.792  13.610  69.774  1.00  0.00     0.000 HD 
HETATM   39  C   UNL     1      -5.165  13.792  67.262  1.00  0.00     0.513 C  
HETATM   40  H   UNL     1      -8.477  16.733  69.773  1.00  0.00     0.000 HD 
HETATM   41  C   UNL     1      -7.283  12.675  67.937  1.00  0.00    -0.116 C  
BRANCH  37  42
HETATM   42  N   UNL     1      -5.766  15.775  69.551  1.00  0.00    -0.120 NA 
HETATM   43  H   UNL     1      -5.502  15.519  70.502  1.00  0.00     0.000 HD 
HETATM   44  C   UNL     1      -5.127  16.892  68.899  1.00  0.00    -0.131 C  
ENDBRANCH  37  42
ENDBRANCH  30  31
ENDBRANCH  10  30
ENDBRANCH   3   5
ENDBRANCH   2   3
TORSDOF 8
ENDMDL
MODEL      237
REMARK 921   NORMALIZED FREE ENERGY PREDICTED BY IDOCK:   -1.87 KCAL/MOL
REMARK 922        TOTAL FREE ENERGY PREDICTED BY IDOCK:   -3.49 KCAL/MOL
REMARK 923 INTER-LIGAND FREE ENERGY PREDICTED BY IDOCK:   -2.05 KCAL/MOL
REMARK 924 INTRA-LIGAND FREE ENERGY PREDICTED BY IDOCK:   -1.44 KCAL/MOL
REMARK 927      BINDING AFFINITY PREDICTED BY RF-SCORE:    0.00 PKD
ROOT
HETATM    1  C   UNL     1     -10.224   9.428  72.025  1.00  0.00     0.389 C  
HETATM    2  C   UNL     1      -9.398   9.204  70.766  1.00  0.00    -0.264 C  
ENDROOT
BRANCH   2   3
HETATM    3  N   UNL     1      -8.291   8.284  71.043  1.00  0.00    -0.114 NA 
HETATM    4  H   UNL     1      -8.283   8.035  72.032  1.00  0.00     0.000 HD 
BRANCH   3   5
HETATM    5  C   UNL     1      -8.257   7.053  70.206  1.00  0.00    -0.128 C  
HETATM    6  C   UNL     1      -8.633   5.808  71.024  1.00  0.00    -0.131 C  
HETATM    7  C   UNL     1      -8.647   4.543  70.160  1.00  0.00    -0.077 C  
HETATM    8  C   UNL     1      -7.231   4.260  69.588  1.00  0.00    -0.050 C  
HETATM    9  N   UNL     1      -9.137   3.422  70.989  1.00  0.00    -0.101 NA 
HETATM   10  C   UNL     1      -6.928   6.899  69.414  1.00  0.00    -0.066 C  
HETATM   11  H2  UNL     1     -10.043   3.616  71.417  1.00  0.00     0.000 HD 
HETATM   12  H1  UNL     1      -9.147   2.580  70.415  1.00  0.00     0.000 HD 
HETATM   13  C   UNL     1      -6.660   5.493  68.840  1.00  0.00    -0.051 C  
HETATM   14  H   UNL     1      -4.866   6.163  68.270  1.00  0.00     0.000 HD 
HETATM   15  O   UNL     1      -5.216   5.408  68.727  1.00  0.00     0.000 OA 
BRANCH   8  16
HETATM   16  O   UNL     1      -7.319   3.111  68.683  1.00  0.00    -0.049 OA 
BRANCH  16  17
HETATM   17  C   UNL     1      -8.002   3.384  67.438  1.00  0.00    -0.081 C  
HETATM   18  H1  UNL     1     -10.483   1.074  68.196  1.00  0.00     0.000 HD 
HETATM   19  O   UNL     1      -7.048   3.433  66.370  1.00  0.00    -0.060 OA 
HETATM   20  C   UNL     1      -6.885   2.278  65.635  1.00  0.00    -0.039 C  
HETATM   21  H2  UNL     1      -9.731   2.180  69.202  1.00  0.00     0.000 HD 
HETATM   22  N   UNL     1      -9.646   1.637  68.342  1.00  0.00    -0.183 NA 
HETATM   23  C   UNL     1      -7.929   1.485  65.364  1.00  0.00    -0.073 C  
HETATM   24  C   UNL     1      -9.288   2.519  67.213  1.00  0.00    -0.078 C  
HETATM   25  C   UNL     1      -9.296   1.817  65.852  1.00  0.00     0.116 C  
BRANCH  20  26
HETATM   26  C   UNL     1      -5.471   2.079  65.141  1.00  0.00    -0.008 C  
HETATM   27  N   UNL     1      -5.125   2.828  63.935  1.00  0.00    -0.007 NA 
HETATM   28  H2  UNL     1      -5.313   3.821  64.072  1.00  0.00     0.000 HD 
HETATM   29  H1  UNL     1      -4.171   2.694  63.601  1.00  0.00     0.000 HD 
ENDBRANCH  20  26
ENDBRANCH  16  17
ENDBRANCH   8  16
BRANCH  10  30
HETATM   30  O   UNL     1      -6.694   7.971  68.434  1.00  0.00    -0.063 OA 
BRANCH  30  31
HETATM   31  C   UNL     1      -7.751   8.232  67.491  1.00  0.00    -0.099 C  
HETATM   32  O   UNL     1      -7.016   6.286  66.182  1.00  0.00    -0.062 OA 
HETATM   33  C   UNL     1      -6.942  10.008  65.300  1.00  0.00    -0.132 C  
HETATM   34  C   UNL     1      -7.572   7.606  66.060  1.00  0.00    -0.088 C  
HETATM   35  O   UNL     1      -7.980   9.631  67.417  1.00  0.00    -0.105 OA 
HETATM   36  O   UNL     1      -8.216  10.482  64.817  1.00  0.00    -0.221 OA 
HETATM   37  C   UNL     1      -6.782   8.469  65.024  1.00  0.00    -0.064 C  
HETATM   38  H   UNL     1      -8.264  10.316  63.883  1.00  0.00     0.000 HD 
HETATM   39  C   UNL     1      -5.874  10.839  64.587  1.00  0.00     0.061 C  
HETATM   40  H   UNL     1      -6.908   5.908  65.318  1.00  0.00     0.000 HD 
HETATM   41  C   UNL     1      -6.865  10.274  66.798  1.00  0.00    -0.088 C  
BRANCH  37  42
HETATM   42  N   UNL     1      -7.171   8.215  63.607  1.00  0.00    -0.085 NA 
HETATM   43  H   UNL     1      -7.638   8.942  63.066  1.00  0.00     0.000 HD 
HETATM   44  C   UNL     1      -6.886   6.935  63.005  1.00  0.00    -0.051 C  
ENDBRANCH  37  42
ENDBRANCH  30  31
ENDBRANCH  10  30
ENDBRANCH   3   5
ENDBRANCH   2   3
TORSDOF 8
ENDMDL
MODEL      238
REMARK 921   NORMALIZED FREE ENERGY PREDICTED BY IDOCK:   -1.85 KCAL/MOL
REMARK 922        TOTAL FREE ENERGY PREDICTED BY IDOCK:   -3.46 KCAL/MOL
REMARK 923 INTER-LIGAND FREE ENERGY PREDICTED BY IDOCK:   -4.51 KCAL/MOL
REMARK 924 INTRA-LIGAND FREE ENERGY PREDICTED BY IDOCK:    1.05 KCAL/MOL
REMARK 927      BINDING AFFINITY PREDICTED BY RF-SCORE:    0.00 PKD
ROOT
HETATM    1  C   UNL     1     -11.904  12.489  62.858  1.00  0.00     0.205 C  
HETATM    2  C   UNL     1     -12.114  11.606  64.080  1.00  0.00    -0.104 C  
ENDROOT
BRANCH   2   3
HETATM    3  N   UNL     1     -10.988  11.749  65.007  1.00  0.00    -0.306 NA 
HETATM    4  H   UNL     1     -10.134  11.392  64.578  1.00  0.00     0.000 HD 
BRANCH   3   5
HETATM    5  C   UNL     1     -10.759  13.125  65.530  1.00  0.00    -0.283 C  
HETATM    6  C   UNL     1     -11.151  14.191  64.496  1.00  0.00    -0.340 C  
HETATM    7  C   UNL     1     -10.964  15.610  65.042  1.00  0.00    -0.431 C  
HETATM    8  C   UNL     1      -9.469  15.872  65.372  1.00  0.00     0.116 C  
HETATM    9  N   UNL     1     -11.479  16.564  64.039  1.00  0.00    -1.581 NA 
HETATM   10  C   UNL     1      -9.329  13.318  66.112  1.00  0.00    -0.064 C  
HETATM   11  H2  UNL     1     -12.445  16.370  63.772  1.00  0.00     0.000 HD 
HETATM   12  H1  UNL     1     -11.355  17.508  64.403  1.00  0.00     0.000 HD 
HETATM   13  C   UNL     1      -8.891  14.783  66.314  1.00  0.00    -0.020 C  
HETATM   14  H   UNL     1      -7.089  14.082  66.817  1.00  0.00     0.000 HD 
HETATM   15  O   UNL     1      -7.443  14.749  66.241  1.00  0.00     0.971 OA 
BRANCH   8  16
HETATM   16  O   UNL     1      -9.357  17.194  65.993  1.00  0.00    -0.461 OA 
BRANCH  16  17
HETATM   17  C   UNL     1      -9.090  17.164  67.414  1.00  0.00    -0.224 C  
HETATM   18  H1  UNL     1     -12.471  16.808  68.126  1.00  0.00     0.000 HD 
HETATM   19  O   UNL     1      -8.156  18.198  67.748  1.00  0.00    -0.232 OA 
HETATM   20  C   UNL     1      -8.686  19.381  68.216  1.00  0.00    -0.334 C  
HETATM   21  H2  UNL     1     -11.570  16.092  66.911  1.00  0.00     0.000 HD 
HETATM   22  N   UNL     1     -11.635  16.886  67.548  1.00  0.00     0.457 NA 
HETATM   23  C   UNL     1      -9.768  19.382  69.006  1.00  0.00    -0.468 C  
HETATM   24  C   UNL     1     -10.375  17.043  68.301  1.00  0.00    -0.347 C  
HETATM   25  C   UNL     1     -10.438  18.111  69.398  1.00  0.00     0.359 C  
BRANCH  20  26
HETATM   26  C   UNL     1      -7.889  20.597  67.807  1.00  0.00    -0.125 C  
HETATM   27  N   UNL     1      -6.789  20.946  68.705  1.00  0.00     0.075 NA 
HETATM   28  H2  UNL     1      -6.170  20.146  68.831  1.00  0.00     0.000 HD 
HETATM   29  H1  UNL     1      -6.251  21.768  68.429  1.00  0.00     0.000 HD 
ENDBRANCH  20  26
ENDBRANCH  16  17
ENDBRANCH   8  16
BRANCH  10  30
HETATM   30  O   UNL     1      -9.045  12.470  67.279  1.00  0.00    -0.176 OA 
BRANCH  30  31
HETATM   31  C   UNL     1      -8.491  11.166  67.017  1.00  0.00    -0.146 C  
HETATM   32  O   UNL     1     -10.719  10.189  67.367  1.00  0.00    -0.260 OA 
HETATM   33  C   UNL     1      -7.518   9.809  69.429  1.00  0.00    -0.099 C  
HETATM   34  C   UNL     1      -9.315   9.943  67.559  1.00  0.00    -0.140 C  
HETATM   35  O   UNL     1      -7.147  11.126  67.472  1.00  0.00    -0.085 OA 
HETATM   36  O   UNL     1      -6.622   8.825  68.874  1.00  0.00    -0.051 OA 
HETATM   37  C   UNL     1      -9.004   9.498  69.025  1.00  0.00    -0.144 C  
HETATM   38  H   UNL     1      -6.873   7.969  69.205  1.00  0.00     0.000 HD 
HETATM   39  C   UNL     1      -7.310   9.776  70.944  1.00  0.00     0.110 C  
HETATM   40  H   UNL     1     -11.217   9.449  67.695  1.00  0.00     0.000 HD 
HETATM   41  C   UNL     1      -7.116  11.180  68.899  1.00  0.00    -0.101 C  
BRANCH  37  42
HETATM   42  N   UNL     1      -9.255   8.050  69.280  1.00  0.00    -0.152 NA 
HETATM   43  H   UNL     1      -9.173   7.675  70.225  1.00  0.00     0.000 HD 
HETATM   44  C   UNL     1      -9.613   7.181  68.186  1.00  0.00    -0.131 C  
ENDBRANCH  37  42
ENDBRANCH  30  31
ENDBRANCH  10  30
ENDBRANCH   3   5
ENDBRANCH   2   3
TORSDOF 8
ENDMDL
MODEL      239
REMARK 921   NORMALIZED FREE ENERGY PREDICTED BY IDOCK:   -1.85 KCAL/MOL
REMARK 922        TOTAL FREE ENERGY PREDICTED BY IDOCK:   -3.45 KCAL/MOL
REMARK 923 INTER-LIGAND FREE ENERGY PREDICTED BY IDOCK:   -4.76 KCAL/MOL
REMARK 924 INTRA-LIGAND FREE ENERGY PREDICTED BY IDOCK:    1.31 KCAL/MOL
REMARK 927      BINDING AFFINITY PREDICTED BY RF-SCORE:    0.00 PKD
ROOT
HETATM    1  C   UNL     1     -11.304   6.240  68.539  1.00  0.00    -0.149 C  
HETATM    2  C   UNL     1      -9.920   5.921  67.990  1.00  0.00    -0.137 C  
ENDROOT
BRANCH   2   3
HETATM    3  N   UNL     1      -9.447   7.019  67.141  1.00  0.00    -0.139 NA 
HETATM    4  H   UNL     1      -9.681   6.832  66.166  1.00  0.00     0.000 HD 
BRANCH   3   5
HETATM    5  C   UNL     1      -9.921   8.377  67.527  1.00  0.00    -0.200 C  
HETATM    6  C   UNL     1     -10.049   9.296  66.304  1.00  0.00    -0.322 C  
HETATM    7  C   UNL     1     -10.581  10.681  66.686  1.00  0.00    -0.214 C  
HETATM    8  C   UNL     1      -9.593  11.396  67.649  1.00  0.00    -0.169 C  
HETATM    9  N   UNL     1     -10.793  11.455  65.446  1.00  0.00    -0.261 NA 
HETATM   10  C   UNL     1      -9.090   8.997  68.687  1.00  0.00    -0.137 C  
HETATM   11  H2  UNL     1     -11.396  10.972  64.780  1.00  0.00     0.000 HD 
HETATM   12  H1  UNL     1     -11.146  12.376  65.700  1.00  0.00     0.000 HD 
HETATM   13  C   UNL     1      -9.260  10.516  68.883  1.00  0.00    -0.183 C  
HETATM   14  H   UNL     1      -7.822  10.411  70.266  1.00  0.00     0.000 HD 
HETATM   15  O   UNL     1      -8.026  10.950  69.511  1.00  0.00    -0.076 OA 
BRANCH   8  16
HETATM   16  O   UNL     1     -10.194  12.662  68.073  1.00  0.00    -0.217 OA 
BRANCH  16  17
HETATM   17  C   UNL     1      -9.319  13.503  68.860  1.00  0.00     0.193 C  
HETATM   18  H1  UNL     1     -11.181  16.326  68.070  1.00  0.00     0.000 HD 
HETATM   19  O   UNL     1      -7.955  13.161  68.587  1.00  0.00    -0.119 OA 
HETATM   20  C   UNL     1      -7.300  13.935  67.653  1.00  0.00    -0.174 C  
HETATM   21  H2  UNL     1     -11.714  14.785  68.446  1.00  0.00     0.000 HD 
HETATM   22  N   UNL     1     -10.934  15.337  68.088  1.00  0.00    -0.280 NA 
HETATM   23  C   UNL     1      -7.534  15.251  67.568  1.00  0.00    -0.216 C  
HETATM   24  C   UNL     1      -9.699  15.022  68.832  1.00  0.00    -0.224 C  
HETATM   25  C   UNL     1      -8.512  15.920  68.471  1.00  0.00    -0.184 C  
BRANCH  20  26
HETATM   26  C   UNL     1      -6.288  13.163  66.839  1.00  0.00     0.955 C  
HETATM   27  N   UNL     1      -6.550  11.730  66.725  1.00  0.00    -0.314 NA 
HETATM   28  H2  UNL     1      -7.489  11.571  66.361  1.00  0.00     0.000 HD 
HETATM   29  H1  UNL     1      -5.867  11.208  66.175  1.00  0.00     0.000 HD 
ENDBRANCH  20  26
ENDBRANCH  16  17
ENDBRANCH   8  16
BRANCH  10  30
HETATM   30  O   UNL     1      -9.179   8.244  69.948  1.00  0.00    -0.153 OA 
BRANCH  30  31
HETATM   31  C   UNL     1      -8.326   8.676  71.026  1.00  0.00    -0.161 C  
HETATM   32  O   UNL     1      -6.847   6.766  70.573  1.00  0.00    -0.055 OA 
HETATM   33  C   UNL     1      -9.045   7.503  73.617  1.00  0.00    -0.255 C  
HETATM   34  C   UNL     1      -7.372   7.585  71.632  1.00  0.00    -0.075 C  
HETATM   35  O   UNL     1      -9.117   9.288  72.033  1.00  0.00    -0.252 OA 
HETATM   36  O   UNL     1      -8.415   8.416  74.540  1.00  0.00    -0.363 OA 
HETATM   37  C   UNL     1      -7.964   6.717  72.790  1.00  0.00    -0.099 C  
HETATM   38  H   UNL     1      -7.861   7.914  75.128  1.00  0.00     0.000 HD 
HETATM   39  C   UNL     1      -9.919   6.573  74.460  1.00  0.00    -0.358 C  
HETATM   40  H   UNL     1      -6.270   6.107  70.940  1.00  0.00     0.000 HD 
HETATM   41  C   UNL     1      -9.932   8.307  72.675  1.00  0.00    -0.287 C  
BRANCH  37  42
HETATM   42  N   UNL     1      -6.938   6.206  73.744  1.00  0.00    -0.080 NA 
HETATM   43  H   UNL     1      -7.085   5.319  74.227  1.00  0.00     0.000 HD 
HETATM   44  C   UNL     1      -5.738   6.969  73.982  1.00  0.00    -0.055 C  
ENDBRANCH  37  42
ENDBRANCH  30  31
ENDBRANCH  10  30
ENDBRANCH   3   5
ENDBRANCH   2   3
TORSDOF 8
ENDMDL
MODEL      240
REMARK 921   NORMALIZED FREE ENERGY PREDICTED BY IDOCK:   -1.85 KCAL/MOL
REMARK 922        TOTAL FREE ENERGY PREDICTED BY IDOCK:   -3.45 KCAL/MOL
REMARK 923 INTER-LIGAND FREE ENERGY PREDICTED BY IDOCK:   -3.60 KCAL/MOL
REMARK 924 INTRA-LIGAND FREE ENERGY PREDICTED BY IDOCK:    0.15 KCAL/MOL
REMARK 927      BINDING AFFINITY PREDICTED BY RF-SCORE:    0.00 PKD
ROOT
HETATM    1  C   UNL     1     -13.327  12.932  65.679  1.00  0.00     1.465 C  
HETATM    2  C   UNL     1     -11.909  12.663  66.165  1.00  0.00    -0.418 C  
ENDROOT
BRANCH   2   3
HETATM    3  N   UNL     1     -11.591  11.238  66.034  1.00  0.00    -0.101 NA 
HETATM    4  H   UNL     1     -10.822  11.111  65.376  1.00  0.00     0.000 HD 
BRANCH   3   5
HETATM    5  C   UNL     1     -11.295  10.528  67.309  1.00  0.00     0.024 C  
HETATM    6  C   UNL     1     -11.887  11.271  68.516  1.00  0.00    -0.355 C  
HETATM    7  C   UNL     1     -11.627  10.524  69.828  1.00  0.00    -0.294 C  
HETATM    8  C   UNL     1     -10.102  10.421  70.102  1.00  0.00     0.080 C  
HETATM    9  N   UNL     1     -12.333  11.235  70.913  1.00  0.00    -0.387 NA 
HETATM   10  C   UNL     1      -9.787  10.183  67.470  1.00  0.00    -0.177 C  
HETATM   11  H2  UNL     1     -13.327  11.359  70.721  1.00  0.00     0.000 HD 
HETATM   12  H1  UNL     1     -12.160  10.738  71.786  1.00  0.00     0.000 HD 
HETATM   13  C   UNL     1      -9.344   9.804  68.897  1.00  0.00    -0.158 C  
HETATM   14  H   UNL     1      -7.468   9.759  68.210  1.00  0.00     0.000 HD 
HETATM   15  O   UNL     1      -7.932  10.136  68.947  1.00  0.00    -0.095 OA 
BRANCH   8  16
HETATM   16  O   UNL     1      -9.901   9.606  71.302  1.00  0.00    -0.153 OA 
BRANCH  16  17
HETATM   17  C   UNL     1      -9.282   8.322  71.053  1.00  0.00    -0.158 C  
HETATM   18  H1  UNL     1     -12.374   6.851  70.466  1.00  0.00     0.000 HD 
HETATM   19  O   UNL     1      -8.288   8.069  72.053  1.00  0.00    -0.116 OA 
HETATM   20  C   UNL     1      -8.674   7.294  73.125  1.00  0.00    -0.136 C  
HETATM   21  H2  UNL     1     -11.815   8.355  69.989  1.00  0.00     0.000 HD 
HETATM   22  N   UNL     1     -11.711   7.600  70.667  1.00  0.00    -0.241 NA 
HETATM   23  C   UNL     1      -9.519   6.269  72.961  1.00  0.00    -0.145 C  
HETATM   24  C   UNL     1     -10.300   7.173  70.745  1.00  0.00    -0.206 C  
HETATM   25  C   UNL     1     -10.075   5.935  71.620  1.00  0.00    -0.233 C  
BRANCH  20  26
HETATM   26  C   UNL     1      -7.999   7.684  74.419  1.00  0.00    -0.203 C  
HETATM   27  N   UNL     1      -7.191   8.901  74.354  1.00  0.00    -0.414 NA 
HETATM   28  H2  UNL     1      -7.752   9.676  74.002  1.00  0.00     0.000 HD 
HETATM   29  H1  UNL     1      -6.735   9.164  75.228  1.00  0.00     0.000 HD 
ENDBRANCH  20  26
ENDBRANCH  16  17
ENDBRANCH   8  16
BRANCH  10  30
HETATM   30  O   UNL     1      -9.280   9.253  66.448  1.00  0.00    -0.158 OA 
BRANCH  30  31
HETATM   31  C   UNL     1      -8.404   8.203  66.901  1.00  0.00    -0.115 C  
HETATM   32  O   UNL     1      -7.012   8.553  64.907  1.00  0.00    -0.071 OA 
HETATM   33  C   UNL     1      -9.161   5.549  65.905  1.00  0.00    -0.155 C  
HETATM   34  C   UNL     1      -7.495   7.539  65.804  1.00  0.00    -0.079 C  
HETATM   35  O   UNL     1      -9.163   7.229  67.601  1.00  0.00    -0.127 OA 
HETATM   36  O   UNL     1      -8.487   4.679  66.838  1.00  0.00    -0.106 OA 
HETATM   37  C   UNL     1      -8.120   6.335  65.028  1.00  0.00    -0.136 C  
HETATM   38  H   UNL     1      -7.953   4.066  66.346  1.00  0.00     0.000 HD 
HETATM   39  C   UNL     1     -10.071   4.654  65.062  1.00  0.00    -0.026 C  
HETATM   40  H   UNL     1      -6.462   8.152  64.244  1.00  0.00     0.000 HD 
HETATM   41  C   UNL     1     -10.017   6.532  66.694  1.00  0.00    -0.143 C  
BRANCH  37  42
HETATM   42  N   UNL     1      -7.113   5.356  64.525  1.00  0.00    -0.049 NA 
HETATM   43  H   UNL     1      -7.409   4.563  63.956  1.00  0.00     0.000 HD 
HETATM   44  C   UNL     1      -5.718   5.534  64.847  1.00  0.00    -0.017 C  
ENDBRANCH  37  42
ENDBRANCH  30  31
ENDBRANCH  10  30
ENDBRANCH   3   5
ENDBRANCH   2   3
TORSDOF 8
ENDMDL
MODEL      241
REMARK 921   NORMALIZED FREE ENERGY PREDICTED BY IDOCK:   -1.44 KCAL/MOL
REMARK 922        TOTAL FREE ENERGY PREDICTED BY IDOCK:   -2.85 KCAL/MOL
REMARK 923 INTER-LIGAND FREE ENERGY PREDICTED BY IDOCK:   -4.69 KCAL/MOL
REMARK 924 INTRA-LIGAND FREE ENERGY PREDICTED BY IDOCK:    1.84 KCAL/MOL
REMARK 927      BINDING AFFINITY PREDICTED BY RF-SCORE:    0.00 PKD
ROOT
HETATM    1  C   UNL     1      -5.783   2.141  70.919  1.00  0.00    -0.013 C  
HETATM    2  C   UNL     1      -5.595   2.926  69.628  1.00  0.00    -0.017 C  
ENDROOT
BRANCH   2   3
HETATM    3  N   UNL     1      -6.893   3.372  69.113  1.00  0.00    -0.041 NA 
HETATM    4  H   UNL     1      -7.637   2.778  69.480  1.00  0.00     0.000 HD 
BRANCH   3   5
HETATM    5  C   UNL     1      -7.219   4.805  69.355  1.00  0.00    -0.052 C  
HETATM    6  C   UNL     1      -8.219   4.968  70.510  1.00  0.00    -0.100 C  
HETATM    7  C   UNL     1      -8.524   6.441  70.796  1.00  0.00    -0.135 C  
HETATM    8  C   UNL     1      -9.193   7.107  69.562  1.00  0.00    -0.149 C  
HETATM    9  N   UNL     1      -9.387   6.511  71.992  1.00  0.00    -0.148 NA 
HETATM   10  C   UNL     1      -7.641   5.553  68.057  1.00  0.00    -0.081 C  
HETATM   11  H2  UNL     1      -8.984   6.030  72.796  1.00  0.00     0.000 HD 
HETATM   12  H1  UNL     1      -9.590   7.492  72.183  1.00  0.00     0.000 HD 
HETATM   13  C   UNL     1      -8.350   6.905  68.275  1.00  0.00    -0.123 C  
HETATM   14  H   UNL     1      -8.647   6.968  66.300  1.00  0.00     0.000 HD 
HETATM   15  O   UNL     1      -9.163   7.092  67.088  1.00  0.00    -0.130 OA 
BRANCH   8  16
HETATM   16  O   UNL     1      -9.363   8.535  69.841  1.00  0.00    -0.156 OA 
BRANCH  16  17
HETATM   17  C   UNL     1     -10.394   9.176  69.057  1.00  0.00    -0.215 C  
HETATM   18  H1  UNL     1      -8.350  11.920  68.459  1.00  0.00     0.000 HD 
HETATM   19  O   UNL     1     -11.652   9.062  69.735  1.00  0.00     0.052 OA 
HETATM   20  C   UNL     1     -12.038  10.139  70.503  1.00  0.00    -0.291 C  
HETATM   21  H2  UNL     1      -7.953  10.295  68.474  1.00  0.00     0.000 HD 
HETATM   22  N   UNL     1      -8.609  10.999  68.811  1.00  0.00    -0.156 NA 
HETATM   23  C   UNL     1     -11.770  11.392  70.112  1.00  0.00    -0.414 C  
HETATM   24  C   UNL     1      -9.997  10.591  68.515  1.00  0.00    -0.170 C  
HETATM   25  C   UNL     1     -11.041  11.663  68.842  1.00  0.00    -0.287 C  
BRANCH  20  26
HETATM   26  C   UNL     1     -12.825   9.746  71.732  1.00  0.00    -0.434 C  
HETATM   27  N   UNL     1     -13.909   8.795  71.495  1.00  0.00    -0.498 NA 
HETATM   28  H2  UNL     1     -13.550   7.963  71.026  1.00  0.00     0.000 HD 
HETATM   29  H1  UNL     1     -14.440   8.529  72.325  1.00  0.00     0.000 HD 
ENDBRANCH  20  26
ENDBRANCH  16  17
ENDBRANCH   8  16
BRANCH  10  30
HETATM   30  O   UNL     1      -6.579   5.622  67.042  1.00  0.00    -0.052 OA 
BRANCH  30  31
HETATM   31  C   UNL     1      -6.627   4.647  65.982  1.00  0.00    -0.045 C  
HETATM   32  O   UNL     1      -6.364   6.463  64.347  1.00  0.00    -0.029 OA 
HETATM   33  C   UNL     1      -9.341   4.147  64.986  1.00  0.00    -0.165 C  
HETATM   34  C   UNL     1      -7.003   5.193  64.557  1.00  0.00    -0.049 C  
HETATM   35  O   UNL     1      -7.478   3.578  66.367  1.00  0.00    -0.074 OA 
HETATM   36  O   UNL     1      -9.188   2.867  64.340  1.00  0.00    -0.118 OA 
HETATM   37  C   UNL     1      -8.529   5.255  64.223  1.00  0.00    -0.115 C  
HETATM   38  H   UNL     1      -9.506   2.941  63.447  1.00  0.00     0.000 HD 
HETATM   39  C   UNL     1     -10.842   4.441  65.010  1.00  0.00    -0.097 C  
HETATM   40  H   UNL     1      -6.591   6.793  63.486  1.00  0.00     0.000 HD 
HETATM   41  C   UNL     1      -8.832   4.028  66.417  1.00  0.00    -0.121 C  
BRANCH  37  42
HETATM   42  N   UNL     1      -8.832   5.125  62.768  1.00  0.00    -0.280 NA 
HETATM   43  H   UNL     1      -8.177   5.486  62.075  1.00  0.00     0.000 HD 
HETATM   44  C   UNL     1     -10.055   4.489  62.346  1.00  0.00     0.013 C  
ENDBRANCH  37  42
ENDBRANCH  30  31
ENDBRANCH  10  30
ENDBRANCH   3   5
ENDBRANCH   2   3
TORSDOF 8
ENDMDL
MODEL      242
REMARK 921   NORMALIZED FREE ENERGY PREDICTED BY IDOCK:   -1.39 KCAL/MOL
REMARK 922        TOTAL FREE ENERGY PREDICTED BY IDOCK:   -2.78 KCAL/MOL
REMARK 923 INTER-LIGAND FREE ENERGY PREDICTED BY IDOCK:   -2.58 KCAL/MOL
REMARK 924 INTRA-LIGAND FREE ENERGY PREDICTED BY IDOCK:   -0.20 KCAL/MOL
REMARK 927      BINDING AFFINITY PREDICTED BY RF-SCORE:    0.00 PKD
ROOT
HETATM    1  C   UNL     1      -8.735   8.581  71.803  1.00  0.00    -0.266 C  
HETATM    2  C   UNL     1      -8.814   8.383  70.295  1.00  0.00    -0.142 C  
ENDROOT
BRANCH   2   3
HETATM    3  N   UNL     1      -7.676   7.585  69.829  1.00  0.00    -0.094 NA 
HETATM    4  H   UNL     1      -7.293   7.039  70.600  1.00  0.00     0.000 HD 
BRANCH   3   5
HETATM    5  C   UNL     1      -7.950   6.700  68.663  1.00  0.00    -0.118 C  
HETATM    6  C   UNL     1      -8.750   5.456  69.078  1.00  0.00    -0.103 C  
HETATM    7  C   UNL     1      -9.077   4.563  67.878  1.00  0.00    -0.123 C  
HETATM    8  C   UNL     1      -7.772   4.027  67.227  1.00  0.00    -0.084 C  
HETATM    9  N   UNL     1      -9.948   3.464  68.342  1.00  0.00     0.241 NA 
HETATM   10  C   UNL     1      -6.670   6.372  67.843  1.00  0.00    -0.064 C  
HETATM   11  H2  UNL     1     -10.784   3.800  68.820  1.00  0.00     0.000 HD 
HETATM   12  H1  UNL     1     -10.166   2.870  67.543  1.00  0.00     0.000 HD 
HETATM   13  C   UNL     1      -6.795   5.180  66.872  1.00  0.00    -0.063 C  
HETATM   14  H   UNL     1      -4.843   5.388  66.503  1.00  0.00     0.000 HD 
HETATM   15  O   UNL     1      -5.441   4.683  66.720  1.00  0.00    -0.012 OA 
BRANCH   8  16
HETATM   16  O   UNL     1      -8.130   3.274  66.023  1.00  0.00    -0.091 OA 
BRANCH  16  17
HETATM   17  C   UNL     1      -9.005   3.983  65.116  1.00  0.00    -0.133 C  
HETATM   18  H1  UNL     1     -10.070   1.003  63.683  1.00  0.00     0.000 HD 
HETATM   19  O   UNL     1      -8.310   5.106  64.559  1.00  0.00    -0.127 OA 
HETATM   20  C   UNL     1      -7.733   4.923  63.321  1.00  0.00    -0.068 C  
HETATM   21  H2  UNL     1      -9.783   1.353  65.293  1.00  0.00     0.000 HD 
HETATM   22  N   UNL     1      -9.565   1.608  64.330  1.00  0.00    -0.126 NA 
HETATM   23  C   UNL     1      -8.332   4.169  62.390  1.00  0.00    -0.078 C  
HETATM   24  C   UNL     1      -9.780   3.054  64.122  1.00  0.00    -0.154 C  
HETATM   25  C   UNL     1      -9.633   3.498  62.662  1.00  0.00    -0.102 C  
BRANCH  20  26
HETATM   26  C   UNL     1      -6.451   5.701  63.138  1.00  0.00    -0.028 C  
HETATM   27  N   UNL     1      -5.298   4.904  62.725  1.00  0.00    -0.009 NA 
HETATM   28  H2  UNL     1      -5.517   4.381  61.877  1.00  0.00     0.000 HD 
HETATM   29  H1  UNL     1      -4.432   5.429  62.601  1.00  0.00     0.000 HD 
ENDBRANCH  20  26
ENDBRANCH  16  17
ENDBRANCH   8  16
BRANCH  10  30
HETATM   30  O   UNL     1      -6.045   7.550  67.223  1.00  0.00    -0.044 OA 
BRANCH  30  31
HETATM   31  C   UNL     1      -6.789   8.782  67.271  1.00  0.00    -0.067 C  
HETATM   32  O   UNL     1      -8.521   7.749  65.865  1.00  0.00    -0.129 OA 
HETATM   33  C   UNL     1      -6.122  10.628  65.089  1.00  0.00    -0.045 C  
HETATM   34  C   UNL     1      -7.851   8.993  66.131  1.00  0.00    -0.102 C  
HETATM   35  O   UNL     1      -5.885   9.874  67.342  1.00  0.00    -0.049 OA 
HETATM   36  O   UNL     1      -6.590  11.887  65.613  1.00  0.00     0.304 OA 
HETATM   37  C   UNL     1      -7.329   9.658  64.817  1.00  0.00    -0.119 C  
HETATM   38  H   UNL     1      -7.180  12.277  64.978  1.00  0.00     0.000 HD 
HETATM   39  C   UNL     1      -5.342  10.954  63.815  1.00  0.00     0.017 C  
HETATM   40  H   UNL     1      -9.162   7.877  65.177  1.00  0.00     0.000 HD 
HETATM   41  C   UNL     1      -5.178  10.003  66.108  1.00  0.00    -0.044 C  
BRANCH  37  42
HETATM   42  N   UNL     1      -8.372  10.421  64.073  1.00  0.00    -0.226 NA 
HETATM   43  H   UNL     1      -8.124  10.935  63.227  1.00  0.00     0.000 HD 
HETATM   44  C   UNL     1      -9.731  10.430  64.553  1.00  0.00    -0.330 C  
ENDBRANCH  37  42
ENDBRANCH  30  31
ENDBRANCH  10  30
ENDBRANCH   3   5
ENDBRANCH   2   3
TORSDOF 8
ENDMDL
MODEL      243
REMARK 921   NORMALIZED FREE ENERGY PREDICTED BY IDOCK:   -1.31 KCAL/MOL
REMARK 922        TOTAL FREE ENERGY PREDICTED BY IDOCK:   -2.67 KCAL/MOL
REMARK 923 INTER-LIGAND FREE ENERGY PREDICTED BY IDOCK:   -4.79 KCAL/MOL
REMARK 924 INTRA-LIGAND FREE ENERGY PREDICTED BY IDOCK:    2.13 KCAL/MOL
REMARK 927      BINDING AFFINITY PREDICTED BY RF-SCORE:    0.00 PKD
ROOT
HETATM    1  C   UNL     1     -12.695  14.681  70.318  1.00  0.00    -0.323 C  
HETATM    2  C   UNL     1     -12.226  13.562  69.399  1.00  0.00    -0.228 C  
ENDROOT
BRANCH   2   3
HETATM    3  N   UNL     1     -10.782  13.358  69.546  1.00  0.00    -0.434 NA 
HETATM    4  H   UNL     1     -10.583  12.882  70.426  1.00  0.00     0.000 HD 
BRANCH   3   5
HETATM    5  C   UNL     1     -10.119  12.644  68.420  1.00  0.00    -0.222 C  
HETATM    6  C   UNL     1     -10.392  11.133  68.474  1.00  0.00    -0.207 C  
HETATM    7  C   UNL     1      -9.753  10.396  67.293  1.00  0.00    -0.165 C  
HETATM    8  C   UNL     1      -8.207  10.547  67.330  1.00  0.00    -0.118 C  
HETATM    9  N   UNL     1     -10.166   8.979  67.353  1.00  0.00    -0.226 NA 
HETATM   10  C   UNL     1      -8.610  12.999  68.286  1.00  0.00    -0.167 C  
HETATM   11  H2  UNL     1     -11.180   8.866  67.384  1.00  0.00     0.000 HD 
HETATM   12  H1  UNL     1      -9.741   8.489  66.567  1.00  0.00     0.000 HD 
HETATM   13  C   UNL     1      -7.780  12.036  67.414  1.00  0.00    -0.162 C  
HETATM   14  H   UNL     1      -6.162  13.071  67.966  1.00  0.00     0.000 HD 
HETATM   15  O   UNL     1      -6.424  12.159  67.915  1.00  0.00    -0.063 OA 
BRANCH   8  16
HETATM   16  O   UNL     1      -7.651   9.924  66.127  1.00  0.00    -0.099 OA 
BRANCH  16  17
HETATM   17  C   UNL     1      -8.519   8.948  65.507  1.00  0.00    -0.159 C  
HETATM   18  H1  UNL     1      -5.936   6.631  65.343  1.00  0.00     0.000 HD 
HETATM   19  O   UNL     1      -9.292   9.579  64.477  1.00  0.00    -0.232 OA 
HETATM   20  C   UNL     1      -8.812   9.469  63.191  1.00  0.00    -0.224 C  
HETATM   21  H2  UNL     1      -6.324   7.691  66.579  1.00  0.00     0.000 HD 
HETATM   22  N   UNL     1      -6.399   7.509  65.578  1.00  0.00    -0.041 NA 
HETATM   23  C   UNL     1      -8.212   8.346  62.776  1.00  0.00    -0.166 C  
HETATM   24  C   UNL     1      -7.808   7.600  65.146  1.00  0.00    -0.124 C  
HETATM   25  C   UNL     1      -8.037   7.183  63.690  1.00  0.00     0.002 C  
BRANCH  20  26
HETATM   26  C   UNL     1      -9.102  10.683  62.338  1.00  0.00    -0.286 C  
HETATM   27  N   UNL     1      -8.065  11.713  62.356  1.00  0.00    -0.572 NA 
HETATM   28  H2  UNL     1      -7.164  11.310  62.099  1.00  0.00     0.000 HD 
HETATM   29  H1  UNL     1      -8.261  12.532  61.780  1.00  0.00     0.000 HD 
ENDBRANCH  20  26
ENDBRANCH  16  17
ENDBRANCH   8  16
BRANCH  10  30
HETATM   30  O   UNL     1      -8.361  14.414  67.972  1.00  0.00    -0.139 OA 
BRANCH  30  31
HETATM   31  C   UNL     1      -7.170  15.004  68.528  1.00  0.00    -0.115 C  
HETATM   32  O   UNL     1      -8.523  15.923  70.362  1.00  0.00     0.995 OA 
HETATM   33  C   UNL     1      -6.653  17.721  67.550  1.00  0.00    -0.164 C  
HETATM   34  C   UNL     1      -7.389  16.200  69.523  1.00  0.00    -0.112 C  
HETATM   35  O   UNL     1      -6.288  15.363  67.474  1.00  0.00    -0.176 OA 
HETATM   36  O   UNL     1      -5.248  17.878  67.838  1.00  0.00    -0.136 OA 
HETATM   37  C   UNL     1      -7.485  17.622  68.880  1.00  0.00    -0.227 C  
HETATM   38  H   UNL     1      -5.133  18.671  68.350  1.00  0.00     0.000 HD 
HETATM   39  C   UNL     1      -7.056  18.929  66.703  1.00  0.00    -0.227 C  
HETATM   40  H   UNL     1      -8.655  16.646  70.963  1.00  0.00     0.000 HD 
HETATM   41  C   UNL     1      -6.838  16.451  66.730  1.00  0.00    -0.148 C  
BRANCH  37  42
HETATM   42  N   UNL     1      -7.038  18.722  69.783  1.00  0.00     0.110 NA 
HETATM   43  H   UNL     1      -7.649  19.050  70.531  1.00  0.00     0.000 HD 
HETATM   44  C   UNL     1      -5.740  19.320  69.595  1.00  0.00    -0.238 C  
ENDBRANCH  37  42
ENDBRANCH  30  31
ENDBRANCH  10  30
ENDBRANCH   3   5
ENDBRANCH   2   3
TORSDOF 8
ENDMDL
MODEL      244
REMARK 921   NORMALIZED FREE ENERGY PREDICTED BY IDOCK:   -1.19 KCAL/MOL
REMARK 922        TOTAL FREE ENERGY PREDICTED BY IDOCK:   -2.49 KCAL/MOL
REMARK 923 INTER-LIGAND FREE ENERGY PREDICTED BY IDOCK:   -5.40 KCAL/MOL
REMARK 924 INTRA-LIGAND FREE ENERGY PREDICTED BY IDOCK:    2.91 KCAL/MOL
REMARK 927      BINDING AFFINITY PREDICTED BY RF-SCORE:    0.00 PKD
ROOT
HETATM    1  C   UNL     1      -5.680  15.541  71.010  1.00  0.00     0.129 C  
HETATM    2  C   UNL     1      -5.765  16.941  70.417  1.00  0.00    -0.114 C  
ENDROOT
BRANCH   2   3
HETATM    3  N   UNL     1      -7.153  17.262  70.072  1.00  0.00     0.660 NA 
HETATM    4  H   UNL     1      -7.217  18.225  69.743  1.00  0.00     0.000 HD 
BRANCH   3   5
HETATM    5  C   UNL     1      -7.798  16.344  69.094  1.00  0.00    -0.214 C  
HETATM    6  C   UNL     1      -8.647  15.276  69.800  1.00  0.00     0.009 C  
HETATM    7  C   UNL     1      -9.352  14.356  68.799  1.00  0.00    -0.150 C  
HETATM    8  C   UNL     1      -8.310  13.574  67.951  1.00  0.00    -0.175 C  
HETATM    9  N   UNL     1     -10.239  13.445  69.552  1.00  0.00    -0.101 NA 
HETATM   10  C   UNL     1      -6.791  15.757  68.063  1.00  0.00    -0.129 C  
HETATM   11  H2  UNL     1     -10.893  13.944  70.156  1.00  0.00     0.000 HD 
HETATM   12  H1  UNL     1     -10.708  12.833  68.886  1.00  0.00     0.000 HD 
HETATM   13  C   UNL     1      -7.290  14.529  67.277  1.00  0.00    -0.068 C  
HETATM   14  H   UNL     1      -5.460  14.400  66.486  1.00  0.00     0.000 HD 
HETATM   15  O   UNL     1      -6.084  13.816  66.899  1.00  0.00     0.252 OA 
BRANCH   8  16
HETATM   16  O   UNL     1      -9.027  12.796  66.938  1.00  0.00    -0.214 OA 
BRANCH  16  17
HETATM   17  C   UNL     1     -10.461  12.984  66.948  1.00  0.00    -0.254 C  
HETATM   18  H1  UNL     1     -10.965   9.849  65.539  1.00  0.00     0.000 HD 
HETATM   19  O   UNL     1     -10.775  14.298  66.470  1.00  0.00    -0.292 OA 
HETATM   20  C   UNL     1     -11.110  14.407  65.138  1.00  0.00    -0.362 C  
HETATM   21  H2  UNL     1      -9.876  10.309  66.723  1.00  0.00     0.000 HD 
HETATM   22  N   UNL     1     -10.441  10.629  65.937  1.00  0.00    -0.211 NA 
HETATM   23  C   UNL     1     -11.821  13.449  64.529  1.00  0.00    -0.440 C  
HETATM   24  C   UNL     1     -11.265  11.787  66.337  1.00  0.00    -0.323 C  
HETATM   25  C   UNL     1     -12.266  12.234  65.266  1.00  0.00    -0.313 C  
BRANCH  20  26
HETATM   26  C   UNL     1     -10.661  15.707  64.512  1.00  0.00     0.048 C  
HETATM   27  N   UNL     1     -11.742  16.590  64.078  1.00  0.00    -1.442 NA 
HETATM   28  H2  UNL     1     -12.379  16.774  64.854  1.00  0.00     0.000 HD 
HETATM   29  H1  UNL     1     -11.440  17.468  63.656  1.00  0.00     0.000 HD 
ENDBRANCH  20  26
ENDBRANCH  16  17
ENDBRANCH   8  16
BRANCH  10  30
HETATM   30  O   UNL     1      -6.165  16.773  67.202  1.00  0.00    -0.149 OA 
BRANCH  30  31
HETATM   31  C   UNL     1      -6.417  18.152  67.533  1.00  0.00    -0.184 C  
HETATM   32  O   UNL     1      -8.820  17.756  67.199  1.00  0.00    -0.237 OA 
HETATM   33  C   UNL     1      -6.388  19.931  65.200  1.00  0.00    -0.269 C  
HETATM   34  C   UNL     1      -7.787  18.743  67.038  1.00  0.00    -0.240 C  
HETATM   35  O   UNL     1      -5.325  18.946  67.097  1.00  0.00    -0.144 OA 
HETATM   36  O   UNL     1      -6.175  21.219  65.813  1.00  0.00    -0.395 OA 
HETATM   37  C   UNL     1      -7.794  19.353  65.599  1.00  0.00     0.048 C  
HETATM   38  H   UNL     1      -6.860  21.809  65.520  1.00  0.00     0.000 HD 
HETATM   39  C   UNL     1      -6.256  20.144  63.691  1.00  0.00    -0.076 C  
HETATM   40  H   UNL     1      -9.647  18.113  66.900  1.00  0.00     0.000 HD 
HETATM   41  C   UNL     1      -5.290  18.986  65.671  1.00  0.00    -0.157 C  
BRANCH  37  42
HETATM   42  N   UNL     1      -8.805  20.434  65.409  1.00  0.00    -0.237 NA 
HETATM   43  H   UNL     1      -8.982  20.811  64.478  1.00  0.00     0.000 HD 
HETATM   44  C   UNL     1      -9.530  20.944  66.547  1.00  0.00     0.341 C  
ENDBRANCH  37  42
ENDBRANCH  30  31
ENDBRANCH  10  30
ENDBRANCH   3   5
ENDBRANCH   2   3
TORSDOF 8
ENDMDL
MODEL      245
REMARK 921   NORMALIZED FREE ENERGY PREDICTED BY IDOCK:   -1.05 KCAL/MOL
REMARK 922        TOTAL FREE ENERGY PREDICTED BY IDOCK:   -2.28 KCAL/MOL
REMARK 923 INTER-LIGAND FREE ENERGY PREDICTED BY IDOCK:   -5.35 KCAL/MOL
REMARK 924 INTRA-LIGAND FREE ENERGY PREDICTED BY IDOCK:    3.07 KCAL/MOL
REMARK 927      BINDING AFFINITY PREDICTED BY RF-SCORE:    0.00 PKD
ROOT
HETATM    1  C   UNL     1     -11.744  14.592  68.774  1.00  0.00    -0.362 C  
HETATM    2  C   UNL     1     -12.431  13.245  68.598  1.00  0.00     0.372 C  
ENDROOT
BRANCH   2   3
HETATM    3  N   UNL     1     -11.972  12.600  67.364  1.00  0.00    -0.442 NA 
HETATM    4  H   UNL     1     -11.778  13.305  66.653  1.00  0.00     0.000 HD 
BRANCH   3   5
HETATM    5  C   UNL     1     -10.802  11.691  67.514  1.00  0.00    -0.237 C  
HETATM    6  C   UNL     1      -9.747  11.948  66.428  1.00  0.00    -0.238 C  
HETATM    7  C   UNL     1      -8.519  11.049  66.603  1.00  0.00    -0.153 C  
HETATM    8  C   UNL     1      -8.915   9.554  66.461  1.00  0.00    -0.148 C  
HETATM    9  N   UNL     1      -7.509  11.446  65.601  1.00  0.00    -0.216 NA 
HETATM   10  C   UNL     1     -11.213  10.196  67.641  1.00  0.00    -0.095 C  
HETATM   11  H2  UNL     1      -7.279  12.439  65.646  1.00  0.00     0.000 HD 
HETATM   12  H1  UNL     1      -6.691  10.848  65.717  1.00  0.00     0.000 HD 
HETATM   13  C   UNL     1     -10.078   9.177  67.416  1.00  0.00    -0.230 C  
HETATM   14  H   UNL     1     -11.459   7.740  67.551  1.00  0.00     0.000 HD 
HETATM   15  O   UNL     1     -10.747   7.970  66.967  1.00  0.00    -0.328 OA 
BRANCH   8  16
HETATM   16  O   UNL     1      -7.736   8.733  66.745  1.00  0.00    -0.092 OA 
BRANCH  16  17
HETATM   17  C   UNL     1      -7.113   8.159  65.574  1.00  0.00    -0.067 C  
HETATM   18  H1  UNL     1      -4.247  10.060  66.063  1.00  0.00     0.000 HD 
HETATM   19  O   UNL     1      -8.057   8.130  64.496  1.00  0.00    -0.147 OA 
HETATM   20  C   UNL     1      -8.001   9.173  63.598  1.00  0.00    -0.146 C  
HETATM   21  H2  UNL     1      -5.194   9.272  67.195  1.00  0.00     0.000 HD 
HETATM   22  N   UNL     1      -5.175   9.688  66.264  1.00  0.00    -0.039 NA 
HETATM   23  C   UNL     1      -6.827   9.713  63.246  1.00  0.00    -0.110 C  
HETATM   24  C   UNL     1      -5.688   8.730  65.264  1.00  0.00    -0.047 C  
HETATM   25  C   UNL     1      -5.546   9.211  63.816  1.00  0.00    -0.066 C  
BRANCH  20  26
HETATM   26  C   UNL     1      -9.351   9.554  63.038  1.00  0.00     0.168 C  
HETATM   27  N   UNL     1      -9.556  10.987  62.837  1.00  0.00    -0.439 NA 
HETATM   28  H2  UNL     1      -8.812  11.370  62.253  1.00  0.00     0.000 HD 
HETATM   29  H1  UNL     1     -10.468  11.245  62.459  1.00  0.00     0.000 HD 
ENDBRANCH  20  26
ENDBRANCH  16  17
ENDBRANCH   8  16
BRANCH  10  30
HETATM   30  O   UNL     1     -12.017   9.902  68.837  1.00  0.00     0.250 OA 
BRANCH  30  31
HETATM   31  C   UNL     1     -11.314   9.833  70.093  1.00  0.00    -0.251 C  
HETATM   32  O   UNL     1      -9.760   8.212  69.093  1.00  0.00    -0.160 OA 
HETATM   33  C   UNL     1     -12.336   7.746  71.884  1.00  0.00    -0.310 C  
HETATM   34  C   UNL     1     -10.427   8.555  70.320  1.00  0.00    -0.220 C  
HETATM   35  O   UNL     1     -12.235  10.017  71.157  1.00  0.00    -0.322 OA 
HETATM   36  O   UNL     1     -11.842   8.187  73.165  1.00  0.00    -0.568 OA 
HETATM   37  C   UNL     1     -11.148   7.319  70.948  1.00  0.00    -0.261 C  
HETATM   38  H   UNL     1     -11.359   7.472  73.564  1.00  0.00     0.000 HD 
HETATM   39  C   UNL     1     -13.295   6.588  72.167  1.00  0.00     0.141 C  
HETATM   40  H   UNL     1      -9.224   7.440  69.231  1.00  0.00     0.000 HD 
HETATM   41  C   UNL     1     -13.109   8.892  71.245  1.00  0.00    -0.197 C  
BRANCH  37  42
HETATM   42  N   UNL     1     -10.243   6.430  71.732  1.00  0.00    -0.196 NA 
HETATM   43  H   UNL     1      -9.698   6.808  72.507  1.00  0.00     0.000 HD 
HETATM   44  C   UNL     1     -10.140   5.032  71.391  1.00  0.00    -0.199 C  
ENDBRANCH  37  42
ENDBRANCH  30  31
ENDBRANCH  10  30
ENDBRANCH   3   5
ENDBRANCH   2   3
TORSDOF 8
ENDMDL
MODEL      246
REMARK 921   NORMALIZED FREE ENERGY PREDICTED BY IDOCK:   -0.91 KCAL/MOL
REMARK 922        TOTAL FREE ENERGY PREDICTED BY IDOCK:   -2.07 KCAL/MOL
REMARK 923 INTER-LIGAND FREE ENERGY PREDICTED BY IDOCK:   -1.78 KCAL/MOL
REMARK 924 INTRA-LIGAND FREE ENERGY PREDICTED BY IDOCK:   -0.29 KCAL/MOL
REMARK 927      BINDING AFFINITY PREDICTED BY RF-SCORE:    0.00 PKD
ROOT
HETATM    1  C   UNL     1      -5.135  13.860  71.362  1.00  0.00    -0.150 C  
HETATM    2  C   UNL     1      -5.490  15.277  70.931  1.00  0.00    -0.090 C  
ENDROOT
BRANCH   2   3
HETATM    3  N   UNL     1      -6.918  15.367  70.614  1.00  0.00     0.448 NA 
HETATM    4  H   UNL     1      -7.183  16.342  70.470  1.00  0.00     0.000 HD 
BRANCH   3   5
HETATM    5  C   UNL     1      -7.371  14.541  69.461  1.00  0.00    -0.063 C  
HETATM    6  C   UNL     1      -7.800  13.136  69.910  1.00  0.00     1.760 C  
HETATM    7  C   UNL     1      -8.312  12.295  68.737  1.00  0.00     0.098 C  
HETATM    8  C   UNL     1      -7.184  12.077  67.691  1.00  0.00    -0.117 C  
HETATM    9  N   UNL     1      -8.818  11.014  69.272  1.00  0.00    -0.383 NA 
HETATM   10  C   UNL     1      -6.350  14.534  68.287  1.00  0.00    -0.121 C  
HETATM   11  H2  UNL     1      -9.521  11.142  70.000  1.00  0.00     0.000 HD 
HETATM   12  H1  UNL     1      -9.158  10.454  68.491  1.00  0.00     0.000 HD 
HETATM   13  C   UNL     1      -6.555  13.422  67.239  1.00  0.00     0.155 C  
HETATM   14  H   UNL     1      -4.857  14.034  66.383  1.00  0.00     0.000 HD 
HETATM   15  O   UNL     1      -5.242  13.211  66.660  1.00  0.00     0.386 OA 
BRANCH   8  16
HETATM   16  O   UNL     1      -7.749  11.367  66.542  1.00  0.00    -0.149 OA 
BRANCH  16  17
HETATM   17  C   UNL     1      -6.867  10.379  65.960  1.00  0.00    -0.128 C  
HETATM   18  H1  UNL     1      -9.535   8.791  64.403  1.00  0.00     0.000 HD 
HETATM   19  O   UNL     1      -5.940   9.921  66.952  1.00  0.00    -0.053 OA 
HETATM   20  C   UNL     1      -6.264   8.752  67.606  1.00  0.00    -0.052 C  
HETATM   21  H2  UNL     1      -9.243  10.429  64.582  1.00  0.00     0.000 HD 
HETATM   22  N   UNL     1      -9.056   9.500  64.958  1.00  0.00    -0.220 NA 
HETATM   23  C   UNL     1      -6.870   7.749  66.957  1.00  0.00    -0.069 C  
HETATM   24  C   UNL     1      -7.602   9.291  65.107  1.00  0.00    -0.106 C  
HETATM   25  C   UNL     1      -7.219   7.864  65.514  1.00  0.00    -0.067 C  
BRANCH  20  26
HETATM   26  C   UNL     1      -5.805   8.723  69.045  1.00  0.00    -0.040 C  
HETATM   27  N   UNL     1      -6.778   9.224  70.015  1.00  0.00    -0.049 NA 
HETATM   28  H2  UNL     1      -7.661   8.725  69.917  1.00  0.00     0.000 HD 
HETATM   29  H1  UNL     1      -6.468   9.205  70.986  1.00  0.00     0.000 HD 
ENDBRANCH  20  26
ENDBRANCH  16  17
ENDBRANCH   8  16
BRANCH  10  30
HETATM   30  O   UNL     1      -6.135  15.857  67.681  1.00  0.00    -0.135 OA 
BRANCH  30  31
HETATM   31  C   UNL     1      -6.895  16.953  68.225  1.00  0.00    -0.164 C  
HETATM   32  O   UNL     1      -8.681  16.470  66.607  1.00  0.00    -0.204 OA 
HETATM   33  C   UNL     1      -6.372  19.509  66.881  1.00  0.00    -0.184 C  
HETATM   34  C   UNL     1      -8.018  17.543  67.297  1.00  0.00    -0.205 C  
HETATM   35  O   UNL     1      -6.006  17.968  68.667  1.00  0.00    -0.180 OA 
HETATM   36  O   UNL     1      -6.832  20.460  67.864  1.00  0.00    -0.278 OA 
HETATM   37  C   UNL     1      -7.575  18.673  66.312  1.00  0.00    -0.263 C  
HETATM   38  H   UNL     1      -7.460  21.041  67.450  1.00  0.00     0.000 HD 
HETATM   39  C   UNL     1      -5.664  20.320  65.795  1.00  0.00    -0.203 C  
HETATM   40  H   UNL     1      -9.359  16.827  66.046  1.00  0.00     0.000 HD 
HETATM   41  C   UNL     1      -5.366  18.578  67.546  1.00  0.00    -0.150 C  
BRANCH  37  42
HETATM   42  N   UNL     1      -8.668  19.625  65.958  1.00  0.00    -0.400 NA 
HETATM   43  H   UNL     1      -8.669  20.089  65.050  1.00  0.00     0.000 HD 
HETATM   44  C   UNL     1      -9.723  19.888  66.906  1.00  0.00    -0.407 C  
ENDBRANCH  37  42
ENDBRANCH  30  31
ENDBRANCH  10  30
ENDBRANCH   3   5
ENDBRANCH   2   3
TORSDOF 8
ENDMDL
MODEL      247
REMARK 921   NORMALIZED FREE ENERGY PREDICTED BY IDOCK:   -0.76 KCAL/MOL
REMARK 922        TOTAL FREE ENERGY PREDICTED BY IDOCK:   -1.85 KCAL/MOL
REMARK 923 INTER-LIGAND FREE ENERGY PREDICTED BY IDOCK:   -2.75 KCAL/MOL
REMARK 924 INTRA-LIGAND FREE ENERGY PREDICTED BY IDOCK:    0.90 KCAL/MOL
REMARK 927      BINDING AFFINITY PREDICTED BY RF-SCORE:    0.00 PKD
ROOT
HETATM    1  C   UNL     1     -11.633  17.450  66.789  1.00  0.00     1.538 C  
HETATM    2  C   UNL     1     -10.488  16.574  67.280  1.00  0.00    -0.304 C  
ENDROOT
BRANCH   2   3
HETATM    3  N   UNL     1      -9.722  16.057  66.142  1.00  0.00    -0.300 NA 
HETATM    4  H   UNL     1      -8.934  16.673  65.943  1.00  0.00     0.000 HD 
BRANCH   3   5
HETATM    5  C   UNL     1      -9.249  14.651  66.275  1.00  0.00    -0.222 C  
HETATM    6  C   UNL     1     -10.370  13.726  66.774  1.00  0.00    -0.272 C  
HETATM    7  C   UNL     1      -9.906  12.270  66.868  1.00  0.00    -0.209 C  
HETATM    8  C   UNL     1      -8.754  12.132  67.902  1.00  0.00    -0.176 C  
HETATM    9  N   UNL     1     -11.070  11.435  67.231  1.00  0.00    -0.287 NA 
HETATM   10  C   UNL     1      -7.933  14.533  67.096  1.00  0.00    -0.138 C  
HETATM   11  H2  UNL     1     -11.855  11.557  66.592  1.00  0.00     0.000 HD 
HETATM   12  H1  UNL     1     -10.761  10.466  67.294  1.00  0.00     0.000 HD 
HETATM   13  C   UNL     1      -7.593  13.116  67.598  1.00  0.00    -0.171 C  
HETATM   14  H   UNL     1      -6.061  13.929  68.590  1.00  0.00     0.000 HD 
HETATM   15  O   UNL     1      -6.772  13.327  68.775  1.00  0.00    -0.088 OA 
BRANCH   8  16
HETATM   16  O   UNL     1      -8.270  10.750  67.875  1.00  0.00    -0.110 OA 
BRANCH  16  17
HETATM   17  C   UNL     1      -9.066   9.825  68.652  1.00  0.00    -0.130 C  
HETATM   18  H1  UNL     1      -7.342  10.648  71.553  1.00  0.00     0.000 HD 
HETATM   19  O   UNL     1      -9.189   8.586  67.943  1.00  0.00    -0.139 OA 
HETATM   20  C   UNL     1      -8.305   7.587  68.288  1.00  0.00    -0.125 C  
HETATM   21  H2  UNL     1      -7.869  11.651  70.321  1.00  0.00     0.000 HD 
HETATM   22  N   UNL     1      -7.605  10.697  70.569  1.00  0.00     0.322 NA 
HETATM   23  C   UNL     1      -7.919   7.422  69.560  1.00  0.00    -0.127 C  
HETATM   24  C   UNL     1      -8.663   9.751  70.163  1.00  0.00    -0.180 C  
HETATM   25  C   UNL     1      -8.425   8.314  70.640  1.00  0.00    -0.131 C  
BRANCH  20  26
HETATM   26  C   UNL     1      -7.910   6.708  67.125  1.00  0.00    -0.105 C  
HETATM   27  N   UNL     1      -6.783   5.814  67.379  1.00  0.00    -0.057 NA 
HETATM   28  H2  UNL     1      -6.965   5.244  68.205  1.00  0.00     0.000 HD 
HETATM   29  H1  UNL     1      -6.516   5.220  66.594  1.00  0.00     0.000 HD 
ENDBRANCH  20  26
ENDBRANCH  16  17
ENDBRANCH   8  16
BRANCH  10  30
HETATM   30  O   UNL     1      -6.785  15.211  66.475  1.00  0.00     0.541 OA 
BRANCH  30  31
HETATM   31  C   UNL     1      -6.087  16.180  67.280  1.00  0.00    -0.132 C  
HETATM   32  O   UNL     1      -8.119  16.464  68.634  1.00  0.00    -0.194 OA 
HETATM   33  C   UNL     1      -6.364  18.928  66.292  1.00  0.00    -0.185 C  
HETATM   34  C   UNL     1      -6.987  17.173  68.102  1.00  0.00    -0.178 C  
HETATM   35  O   UNL     1      -5.153  16.878  66.471  1.00  0.00    -0.318 OA 
HETATM   36  O   UNL     1      -5.246  19.585  66.924  1.00  0.00    -0.162 OA 
HETATM   37  C   UNL     1      -7.423  18.480  67.363  1.00  0.00    -0.218 C  
HETATM   38  H   UNL     1      -5.570  20.345  67.395  1.00  0.00     0.000 HD 
HETATM   39  C   UNL     1      -6.941  19.930  65.290  1.00  0.00    -0.273 C  
HETATM   40  H   UNL     1      -8.662  17.064  69.130  1.00  0.00     0.000 HD 
HETATM   41  C   UNL     1      -5.844  17.710  65.539  1.00  0.00     0.115 C  
BRANCH  37  42
HETATM   42  N   UNL     1      -7.669  19.633  68.276  1.00  0.00    -0.315 NA 
HETATM   43  H   UNL     1      -6.993  20.396  68.331  1.00  0.00     0.000 HD 
HETATM   44  C   UNL     1      -8.865  19.667  69.081  1.00  0.00    -0.025 C  
ENDBRANCH  37  42
ENDBRANCH  30  31
ENDBRANCH  10  30
ENDBRANCH   3   5
ENDBRANCH   2   3
TORSDOF 8
ENDMDL
MODEL      248
REMARK 921   NORMALIZED FREE ENERGY PREDICTED BY IDOCK:   -0.73 KCAL/MOL
REMARK 922        TOTAL FREE ENERGY PREDICTED BY IDOCK:   -1.81 KCAL/MOL
REMARK 923 INTER-LIGAND FREE ENERGY PREDICTED BY IDOCK:   -4.46 KCAL/MOL
REMARK 924 INTRA-LIGAND FREE ENERGY PREDICTED BY IDOCK:    2.65 KCAL/MOL
REMARK 927      BINDING AFFINITY PREDICTED BY RF-SCORE:    0.00 PKD
ROOT
HETATM    1  C   UNL     1     -10.806   4.922  65.747  1.00  0.00    -0.121 C  
HETATM    2  C   UNL     1      -9.341   4.824  66.150  1.00  0.00    -0.152 C  
ENDROOT
BRANCH   2   3
HETATM    3  N   UNL     1      -8.616   6.022  65.720  1.00  0.00    -0.152 NA 
HETATM    4  H   UNL     1      -8.733   6.160  64.716  1.00  0.00     0.000 HD 
BRANCH   3   5
HETATM    5  C   UNL     1      -8.959   7.274  66.449  1.00  0.00    -0.158 C  
HETATM    6  C   UNL     1      -9.331   8.406  65.480  1.00  0.00     0.026 C  
HETATM    7  C   UNL     1      -9.731   9.684  66.223  1.00  0.00    -0.240 C  
HETATM    8  C   UNL     1      -8.538  10.222  67.060  1.00  0.00    -0.129 C  
HETATM    9  N   UNL     1     -10.192  10.674  65.228  1.00  0.00    -0.290 NA 
HETATM   10  C   UNL     1      -7.877   7.679  67.492  1.00  0.00    -0.119 C  
HETATM   11  H2  UNL     1     -10.940  10.315  64.634  1.00  0.00     0.000 HD 
HETATM   12  H1  UNL     1     -10.458  11.524  65.723  1.00  0.00     0.000 HD 
HETATM   13  C   UNL     1      -7.963   9.131  68.003  1.00  0.00    -0.101 C  
HETATM   14  H   UNL     1      -6.258   8.793  68.988  1.00  0.00     0.000 HD 
HETATM   15  O   UNL     1      -6.610   9.460  68.411  1.00  0.00    -0.054 OA 
BRANCH   8  16
HETATM   16  O   UNL     1      -8.999  11.375  67.837  1.00  0.00    -0.143 OA 
BRANCH  16  17
HETATM   17  C   UNL     1     -10.135  12.062  67.265  1.00  0.00    -0.194 C  
HETATM   18  H1  UNL     1      -8.467  15.106  67.399  1.00  0.00     0.000 HD 
HETATM   19  O   UNL     1     -11.337  11.612  67.902  1.00  0.00    -0.254 OA 
HETATM   20  C   UNL     1     -11.816  12.389  68.934  1.00  0.00    -0.301 C  
HETATM   21  H2  UNL     1      -7.876  13.600  66.974  1.00  0.00     0.000 HD 
HETATM   22  N   UNL     1      -8.597  14.099  67.496  1.00  0.00    -0.178 NA 
HETATM   23  C   UNL     1     -11.720  13.724  68.890  1.00  0.00    -0.374 C  
HETATM   24  C   UNL     1      -9.936  13.608  67.117  1.00  0.00    -0.247 C  
HETATM   25  C   UNL     1     -11.087  14.413  67.731  1.00  0.00    -0.299 C  
BRANCH  20  26
HETATM   26  C   UNL     1     -12.493  11.588  70.022  1.00  0.00    -0.122 C  
HETATM   27  N   UNL     1     -12.249  10.148  69.972  1.00  0.00    -0.494 NA 
HETATM   28  H2  UNL     1     -11.247   9.960  69.969  1.00  0.00     0.000 HD 
HETATM   29  H1  UNL     1     -12.706   9.607  70.707  1.00  0.00     0.000 HD 
ENDBRANCH  20  26
ENDBRANCH  16  17
ENDBRANCH   8  16
BRANCH  10  30
HETATM   30  O   UNL     1      -7.704   6.701  68.577  1.00  0.00    -0.101 OA 
BRANCH  30  31
HETATM   31  C   UNL     1      -7.952   7.164  69.917  1.00  0.00    -0.122 C  
HETATM   32  O   UNL     1      -6.741   5.208  70.780  1.00  0.00    -0.037 OA 
HETATM   33  C   UNL     1     -10.444   6.125  71.065  1.00  0.00    -0.229 C  
HETATM   34  C   UNL     1      -7.847   6.084  71.053  1.00  0.00    -0.111 C  
HETATM   35  O   UNL     1      -9.201   7.837  69.958  1.00  0.00    -0.153 OA 
HETATM   36  O   UNL     1     -10.696   7.066  72.129  1.00  0.00    -0.211 OA 
HETATM   37  C   UNL     1      -9.153   5.282  71.364  1.00  0.00    -0.145 C  
HETATM   38  H   UNL     1     -10.808   6.582  72.939  1.00  0.00     0.000 HD 
HETATM   39  C   UNL     1     -11.696   5.252  70.957  1.00  0.00     1.303 C  
HETATM   40  H   UNL     1      -6.678   4.555  71.467  1.00  0.00     0.000 HD 
HETATM   41  C   UNL     1     -10.264   6.902  69.767  1.00  0.00    -0.196 C  
BRANCH  37  42
HETATM   42  N   UNL     1      -9.239   4.794  72.771  1.00  0.00    -0.128 NA 
HETATM   43  H   UNL     1      -8.453   4.297  73.189  1.00  0.00     0.000 HD 
HETATM   44  C   UNL     1     -10.438   5.028  73.537  1.00  0.00    -0.232 C  
ENDBRANCH  37  42
ENDBRANCH  30  31
ENDBRANCH  10  30
ENDBRANCH   3   5
ENDBRANCH   2   3
TORSDOF 8
ENDMDL
MODEL      249
REMARK 921   NORMALIZED FREE ENERGY PREDICTED BY IDOCK:   -0.67 KCAL/MOL
REMARK 922        TOTAL FREE ENERGY PREDICTED BY IDOCK:   -1.72 KCAL/MOL
REMARK 923 INTER-LIGAND FREE ENERGY PREDICTED BY IDOCK:   -3.53 KCAL/MOL
REMARK 924 INTRA-LIGAND FREE ENERGY PREDICTED BY IDOCK:    1.82 KCAL/MOL
REMARK 927      BINDING AFFINITY PREDICTED BY RF-SCORE:    0.00 PKD
ROOT
HETATM    1  C   UNL     1      -5.932  19.757  69.325  1.00  0.00    -0.311 C  
HETATM    2  C   UNL     1      -6.343  18.816  68.201  1.00  0.00    -0.211 C  
ENDROOT
BRANCH   2   3
HETATM    3  N   UNL     1      -6.537  17.460  68.721  1.00  0.00    -0.196 NA 
HETATM    4  H   UNL     1      -6.311  17.431  69.715  1.00  0.00     0.000 HD 
BRANCH   3   5
HETATM    5  C   UNL     1      -7.886  16.872  68.488  1.00  0.00    -0.240 C  
HETATM    6  C   UNL     1      -8.994  17.921  68.662  1.00  0.00    -0.262 C  
HETATM    7  C   UNL     1     -10.381  17.337  68.378  1.00  0.00    -0.366 C  
HETATM    8  C   UNL     1     -10.711  16.204  69.389  1.00  0.00    -0.307 C  
HETATM    9  N   UNL     1     -11.368  18.434  68.444  1.00  0.00     0.387 NA 
HETATM   10  C   UNL     1      -8.126  15.572  69.308  1.00  0.00    -0.248 C  
HETATM   11  H2  UNL     1     -11.135  19.210  67.825  1.00  0.00     0.000 HD 
HETATM   12  H1  UNL     1     -12.291  18.045  68.255  1.00  0.00     0.000 HD 
HETATM   13  C   UNL     1      -9.597  15.124  69.421  1.00  0.00    -0.192 C  
HETATM   14  H   UNL     1      -8.974  13.693  70.669  1.00  0.00     0.000 HD 
HETATM   15  O   UNL     1      -9.656  14.354  70.649  1.00  0.00     1.584 OA 
BRANCH   8  16
HETATM   16  O   UNL     1     -11.991  15.603  69.010  1.00  0.00    -0.374 OA 
BRANCH  16  17
HETATM   17  C   UNL     1     -12.941  15.493  70.095  1.00  0.00     0.007 C  
HETATM   18  H1  UNL     1     -11.001  17.546  72.115  1.00  0.00     0.000 HD 
HETATM   19  O   UNL     1     -13.342  14.125  70.242  1.00  0.00     0.060 OA 
HETATM   20  C   UNL     1     -12.679  13.387  71.198  1.00  0.00    -0.328 C  
HETATM   21  H2  UNL     1     -11.340  17.691  70.483  1.00  0.00     0.000 HD 
HETATM   22  N   UNL     1     -11.275  17.045  71.270  1.00  0.00     0.506 NA 
HETATM   23  C   UNL     1     -12.300  13.945  72.355  1.00  0.00     0.051 C  
HETATM   24  C   UNL     1     -12.520  16.261  71.392  1.00  0.00     0.165 C  
HETATM   25  C   UNL     1     -12.576  15.380  72.645  1.00  0.00    -0.482 C  
BRANCH  20  26
HETATM   26  C   UNL     1     -12.512  11.933  70.822  1.00  0.00    -0.291 C  
HETATM   27  N   UNL     1     -13.099  10.980  71.762  1.00  0.00    -0.480 NA 
HETATM   28  H2  UNL     1     -14.085  11.194  71.910  1.00  0.00     0.000 HD 
HETATM   29  H1  UNL     1     -12.987   9.998  71.509  1.00  0.00     0.000 HD 
ENDBRANCH  20  26
ENDBRANCH  16  17
ENDBRANCH   8  16
BRANCH  10  30
HETATM   30  O   UNL     1      -7.218  14.470  68.951  1.00  0.00    -0.112 OA 
BRANCH  30  31
HETATM   31  C   UNL     1      -7.180  14.082  67.564  1.00  0.00    -0.165 C  
HETATM   32  O   UNL     1      -9.363  12.988  67.849  1.00  0.00    -0.196 OA 
HETATM   33  C   UNL     1      -5.928  11.465  67.125  1.00  0.00    -0.098 C  
HETATM   34  C   UNL     1      -8.107  12.879  67.158  1.00  0.00    -0.117 C  
HETATM   35  O   UNL     1      -5.834  13.850  67.178  1.00  0.00    -0.218 OA 
HETATM   36  O   UNL     1      -5.582  11.533  65.726  1.00  0.00    -0.508 OA 
HETATM   37  C   UNL     1      -7.489  11.451  67.310  1.00  0.00    -0.134 C  
HETATM   38  H   UNL     1      -5.952  10.775  65.288  1.00  0.00     0.000 HD 
HETATM   39  C   UNL     1      -5.268  10.197  67.671  1.00  0.00    -0.037 C  
HETATM   40  H   UNL     1      -9.922  12.261  67.603  1.00  0.00     0.000 HD 
HETATM   41  C   UNL     1      -5.336  12.680  67.828  1.00  0.00    -0.112 C  
BRANCH  37  42
HETATM   42  N   UNL     1      -8.054  10.447  66.364  1.00  0.00    -0.124 NA 
HETATM   43  H   UNL     1      -7.546   9.584  66.169  1.00  0.00     0.000 HD 
HETATM   44  C   UNL     1      -9.322  10.699  65.724  1.00  0.00    -0.186 C  
ENDBRANCH  37  42
ENDBRANCH  30  31
ENDBRANCH  10  30
ENDBRANCH   3   5
ENDBRANCH   2   3
TORSDOF 8
ENDMDL
MODEL      250
REMARK 921   NORMALIZED FREE ENERGY PREDICTED BY IDOCK:   -0.43 KCAL/MOL
REMARK 922        TOTAL FREE ENERGY PREDICTED BY IDOCK:   -1.36 KCAL/MOL
REMARK 923 INTER-LIGAND FREE ENERGY PREDICTED BY IDOCK:   -3.56 KCAL/MOL
REMARK 924 INTRA-LIGAND FREE ENERGY PREDICTED BY IDOCK:    2.20 KCAL/MOL
REMARK 927      BINDING AFFINITY PREDICTED BY RF-SCORE:    0.00 PKD
ROOT
HETATM    1  C   UNL     1      -5.737  15.701  71.010  1.00  0.00     0.168 C  
HETATM    2  C   UNL     1      -5.714  17.127  70.477  1.00  0.00    -0.034 C  
ENDROOT
BRANCH   2   3
HETATM    3  N   UNL     1      -7.053  17.524  70.033  1.00  0.00     0.688 NA 
HETATM    4  H   UNL     1      -7.030  18.471  69.657  1.00  0.00     0.000 HD 
BRANCH   3   5
HETATM    5  C   UNL     1      -7.703  16.604  69.059  1.00  0.00    -0.221 C  
HETATM    6  C   UNL     1      -8.604  15.580  69.768  1.00  0.00     0.013 C  
HETATM    7  C   UNL     1      -9.314  14.660  68.770  1.00  0.00    -0.191 C  
HETATM    8  C   UNL     1      -8.278  13.826  67.968  1.00  0.00    -0.164 C  
HETATM    9  N   UNL     1     -10.249  13.797  69.521  1.00  0.00    -0.265 NA 
HETATM   10  C   UNL     1      -6.690  15.961  68.069  1.00  0.00    -0.128 C  
HETATM   11  H2  UNL     1     -10.901  14.331  70.096  1.00  0.00     0.000 HD 
HETATM   12  H1  UNL     1     -10.721  13.184  68.857  1.00  0.00     0.000 HD 
HETATM   13  C   UNL     1      -7.210  14.731  67.298  1.00  0.00    -0.080 C  
HETATM   14  H   UNL     1      -5.366  14.525  66.558  1.00  0.00     0.000 HD 
HETATM   15  O   UNL     1      -6.019  13.971  66.967  1.00  0.00     0.025 OA 
BRANCH   8  16
HETATM   16  O   UNL     1      -8.994  13.048  66.954  1.00  0.00    -0.220 OA 
BRANCH  16  17
HETATM   17  C   UNL     1      -8.770  11.621  67.031  1.00  0.00    -0.173 C  
HETATM   18  H1  UNL     1     -11.987  11.097  68.231  1.00  0.00     0.000 HD 
HETATM   19  O   UNL     1      -7.488  11.369  67.619  1.00  0.00    -0.095 OA 
HETATM   20  C   UNL     1      -7.470  11.102  68.970  1.00  0.00    -0.124 C  
HETATM   21  H2  UNL     1     -11.469  12.140  67.030  1.00  0.00     0.000 HD 
HETATM   22  N   UNL     1     -11.194  11.622  67.865  1.00  0.00    -0.247 NA 
HETATM   23  C   UNL     1      -8.452  10.394  69.543  1.00  0.00    -0.115 C  
HETATM   24  C   UNL     1      -9.989  10.814  67.593  1.00  0.00    -0.173 C  
HETATM   25  C   UNL     1      -9.598   9.879  68.743  1.00  0.00    -0.160 C  
BRANCH  20  26
HETATM   26  C   UNL     1      -6.231  11.617  69.665  1.00  0.00    -0.127 C  
HETATM   27  N   UNL     1      -5.852  10.888  70.874  1.00  0.00    -0.320 NA 
HETATM   28  H2  UNL     1      -5.752   9.894  70.669  1.00  0.00     0.000 HD 
HETATM   29  H1  UNL     1      -5.015  11.236  71.344  1.00  0.00     0.000 HD 
ENDBRANCH  20  26
ENDBRANCH  16  17
ENDBRANCH   8  16
BRANCH  10  30
HETATM   30  O   UNL     1      -6.011  16.935  67.201  1.00  0.00    -0.142 OA 
BRANCH  30  31
HETATM   31  C   UNL     1      -6.296  18.327  67.437  1.00  0.00    -0.177 C  
HETATM   32  O   UNL     1      -8.682  17.863  67.077  1.00  0.00    -0.234 OA 
HETATM   33  C   UNL     1      -6.245  19.954  64.996  1.00  0.00    -0.268 C  
HETATM   34  C   UNL     1      -7.664  18.858  66.875  1.00  0.00    -0.239 C  
HETATM   35  O   UNL     1      -5.208  19.114  66.975  1.00  0.00    -0.149 OA 
HETATM   36  O   UNL     1      -6.070  21.283  65.529  1.00  0.00    -0.338 OA 
HETATM   37  C   UNL     1      -7.649  19.375  65.400  1.00  0.00     0.245 C  
HETATM   38  H   UNL     1      -6.759  21.839  65.184  1.00  0.00     0.000 HD 
HETATM   39  C   UNL     1      -6.082  20.072  63.480  1.00  0.00    -0.111 C  
HETATM   40  H   UNL     1      -9.509  18.184  66.738  1.00  0.00     0.000 HD 
HETATM   41  C   UNL     1      -5.141  19.063  65.550  1.00  0.00    -0.150 C  
BRANCH  37  42
HETATM   42  N   UNL     1      -8.675  20.421  65.119  1.00  0.00    -0.020 NA 
HETATM   43  H   UNL     1      -8.407  21.288  64.653  1.00  0.00     0.000 HD 
HETATM   44  C   UNL     1     -10.046  20.202  65.509  1.00  0.00    -0.035 C  
ENDBRANCH  37  42
ENDBRANCH  30  31
ENDBRANCH  10  30
ENDBRANCH   3   5
ENDBRANCH   2   3
TORSDOF 8
ENDMDL
MODEL      251
REMARK 921   NORMALIZED FREE ENERGY PREDICTED BY IDOCK:    0.39 KCAL/MOL
REMARK 922        TOTAL FREE ENERGY PREDICTED BY IDOCK:   -0.17 KCAL/MOL
REMARK 923 INTER-LIGAND FREE ENERGY PREDICTED BY IDOCK:   -5.57 KCAL/MOL
REMARK 924 INTRA-LIGAND FREE ENERGY PREDICTED BY IDOCK:    5.41 KCAL/MOL
REMARK 927      BINDING AFFINITY PREDICTED BY RF-SCORE:    0.00 PKD
ROOT
HETATM    1  C   UNL     1      -9.091  19.529  66.038  1.00  0.00    -0.240 C  
HETATM    2  C   UNL     1      -9.950  18.286  65.850  1.00  0.00    -0.091 C  
ENDROOT
BRANCH   2   3
HETATM    3  N   UNL     1      -9.111  17.142  65.480  1.00  0.00    -0.135 NA 
HETATM    4  H   UNL     1      -8.152  17.450  65.320  1.00  0.00     0.000 HD 
BRANCH   3   5
HETATM    5  C   UNL     1      -9.128  16.001  66.437  1.00  0.00    -0.319 C  
HETATM    6  C   UNL     1      -9.049  14.653  65.705  1.00  0.00     0.281 C  
HETATM    7  C   UNL     1      -9.018  13.475  66.684  1.00  0.00    -0.117 C  
HETATM    8  C   UNL     1     -10.328  13.426  67.517  1.00  0.00    -0.226 C  
HETATM    9  N   UNL     1      -8.815  12.234  65.908  1.00  0.00    -0.401 NA 
HETATM   10  C   UNL     1     -10.299  16.087  67.457  1.00  0.00    -0.287 C  
HETATM   11  H2  UNL     1      -7.987  12.272  65.313  1.00  0.00     0.000 HD 
HETATM   12  H1  UNL     1      -8.795  11.450  66.559  1.00  0.00     0.000 HD 
HETATM   13  C   UNL     1     -10.612  14.782  68.216  1.00  0.00    -0.241 C  
HETATM   14  H   UNL     1     -12.186  15.723  69.009  1.00  0.00     0.000 HD 
HETATM   15  O   UNL     1     -12.012  14.893  68.582  1.00  0.00    -0.302 OA 
BRANCH   8  16
HETATM   16  O   UNL     1     -10.205  12.357  68.511  1.00  0.00    -0.226 OA 
BRANCH  16  17
HETATM   17  C   UNL     1     -10.959  11.163  68.198  1.00  0.00    -0.238 C  
HETATM   18  H1  UNL     1      -8.157   9.167  68.675  1.00  0.00     0.000 HD 
HETATM   19  O   UNL     1     -11.767  11.398  67.038  1.00  0.00    -0.535 OA 
HETATM   20  C   UNL     1     -11.251  10.981  65.831  1.00  0.00     0.141 C  
HETATM   21  H2  UNL     1      -8.674  10.486  69.565  1.00  0.00     0.000 HD 
HETATM   22  N   UNL     1      -8.710  10.024  68.656  1.00  0.00    -0.122 NA 
HETATM   23  C   UNL     1     -10.535   9.852  65.745  1.00  0.00    -0.033 C  
HETATM   24  C   UNL     1     -10.111   9.847  68.226  1.00  0.00    -0.161 C  
HETATM   25  C   UNL     1     -10.266   9.017  66.948  1.00  0.00    -0.339 C  
BRANCH  20  26
HETATM   26  C   UNL     1     -11.641  11.870  64.673  1.00  0.00    -0.250 C  
HETATM   27  N   UNL     1     -12.906  12.584  64.840  1.00  0.00    -0.800 NA 
HETATM   28  H2  UNL     1     -12.895  13.120  65.707  1.00  0.00     0.000 HD 
HETATM   29  H1  UNL     1     -13.169  13.184  64.058  1.00  0.00     0.000 HD 
ENDBRANCH  20  26
ENDBRANCH  16  17
ENDBRANCH   8  16
BRANCH  10  30
HETATM   30  O   UNL     1     -10.228  17.260  68.342  1.00  0.00    -0.313 OA 
BRANCH  30  31
HETATM   31  C   UNL     1      -9.327  17.177  69.463  1.00  0.00     0.375 C  
HETATM   32  O   UNL     1      -9.124  19.626  69.437  1.00  0.00    -0.144 OA 
HETATM   33  C   UNL     1      -6.511  16.937  68.675  1.00  0.00    -0.169 C  
HETATM   34  C   UNL     1      -8.389  18.417  69.690  1.00  0.00     0.857 C  
HETATM   35  O   UNL     1      -8.580  15.973  69.376  1.00  0.00    -0.247 OA 
HETATM   36  O   UNL     1      -5.913  16.399  69.872  1.00  0.00    -0.190 OA 
HETATM   37  C   UNL     1      -7.027  18.400  68.922  1.00  0.00    -0.282 C  
HETATM   38  H   UNL     1      -5.187  16.958  70.123  1.00  0.00     0.000 HD 
HETATM   39  C   UNL     1      -5.434  16.877  67.590  1.00  0.00    -0.148 C  
HETATM   40  H   UNL     1      -8.557  20.375  69.574  1.00  0.00     0.000 HD 
HETATM   41  C   UNL     1      -7.676  16.040  68.273  1.00  0.00    -0.142 C  
BRANCH  37  42
HETATM   42  N   UNL     1      -5.941  19.160  69.606  1.00  0.00    -0.247 NA 
HETATM   43  H   UNL     1      -4.969  18.873  69.496  1.00  0.00     0.000 HD 
HETATM   44  C   UNL     1      -6.272  20.301  70.424  1.00  0.00    -0.283 C  
ENDBRANCH  37  42
ENDBRANCH  30  31
ENDBRANCH  10  30
ENDBRANCH   3   5
ENDBRANCH   2   3
TORSDOF 8
ENDMDL
MODEL      252
REMARK 921   NORMALIZED FREE ENERGY PREDICTED BY IDOCK:    0.77 KCAL/MOL
REMARK 922        TOTAL FREE ENERGY PREDICTED BY IDOCK:    0.39 KCAL/MOL
REMARK 923 INTER-LIGAND FREE ENERGY PREDICTED BY IDOCK:   -8.16 KCAL/MOL
REMARK 924 INTRA-LIGAND FREE ENERGY PREDICTED BY IDOCK:    8.55 KCAL/MOL
REMARK 927      BINDING AFFINITY PREDICTED BY RF-SCORE:    0.00 PKD
ROOT
HETATM    1  C   UNL     1     -12.886  11.996  71.301  1.00  0.00    -0.364 C  
HETATM    2  C   UNL     1     -12.996  10.563  70.799  1.00  0.00    -0.330 C  
ENDROOT
BRANCH   2   3
HETATM    3  N   UNL     1     -12.298  10.420  69.518  1.00  0.00    -0.589 NA 
HETATM    4  H   UNL     1     -12.071  11.339  69.139  1.00  0.00     0.000 HD 
BRANCH   3   5
HETATM    5  C   UNL     1     -11.079   9.565  69.545  1.00  0.00    -0.142 C  
HETATM    6  C   UNL     1     -11.057   8.656  70.784  1.00  0.00    -0.295 C  
HETATM    7  C   UNL     1      -9.830   7.739  70.796  1.00  0.00    -0.180 C  
HETATM    8  C   UNL     1      -8.525   8.578  70.866  1.00  0.00    -0.152 C  
HETATM    9  N   UNL     1      -9.952   6.818  71.944  1.00  0.00    -0.177 NA 
HETATM   10  C   UNL     1      -9.768  10.378  69.348  1.00  0.00    -0.200 C  
HETATM   11  H2  UNL     1     -10.830   6.299  71.941  1.00  0.00     0.000 HD 
HETATM   12  H1  UNL     1      -9.135   6.208  71.952  1.00  0.00     0.000 HD 
HETATM   13  C   UNL     1      -8.469   9.645  69.740  1.00  0.00    -0.190 C  
HETATM   14  H   UNL     1      -7.499  11.354  69.384  1.00  0.00     0.000 HD 
HETATM   15  O   UNL     1      -7.533  10.701  70.073  1.00  0.00    -0.106 OA 
BRANCH   8  16
HETATM   16  O   UNL     1      -7.383   7.668  70.762  1.00  0.00    -0.065 OA 
BRANCH  16  17
HETATM   17  C   UNL     1      -7.210   7.076  69.454  1.00  0.00    -0.085 C  
HETATM   18  H1  UNL     1      -5.657   9.947  68.267  1.00  0.00     0.000 HD 
HETATM   19  O   UNL     1      -8.424   6.424  69.060  1.00  0.00    -0.122 OA 
HETATM   20  C   UNL     1      -9.275   7.143  68.249  1.00  0.00    -0.132 C  
HETATM   21  H2  UNL     1      -5.484   9.193  69.750  1.00  0.00     0.000 HD 
HETATM   22  N   UNL     1      -6.098   9.329  68.947  1.00  0.00    -0.043 NA 
HETATM   23  C   UNL     1      -8.794   7.961  67.304  1.00  0.00    -0.131 C  
HETATM   24  C   UNL     1      -6.533   8.025  68.409  1.00  0.00    -0.058 C  
HETATM   25  C   UNL     1      -7.328   8.128  67.103  1.00  0.00    -0.088 C  
BRANCH  20  26
HETATM   26  C   UNL     1     -10.735   6.845  68.501  1.00  0.00    -0.207 C  
HETATM   27  N   UNL     1     -11.522   6.552  67.304  1.00  0.00    -0.743 NA 
HETATM   28  H2  UNL     1     -11.093   5.791  66.779  1.00  0.00     0.000 HD 
HETATM   29  H1  UNL     1     -12.507   6.352  67.474  1.00  0.00     0.000 HD 
ENDBRANCH  20  26
ENDBRANCH  16  17
ENDBRANCH   8  16
BRANCH  10  30
HETATM   30  O   UNL     1      -9.675  11.045  68.040  1.00  0.00    -0.164 OA 
BRANCH  30  31
HETATM   31  C   UNL     1     -10.911  11.482  67.443  1.00  0.00    -0.265 C  
HETATM   32  O   UNL     1     -10.297  10.289  65.384  1.00  0.00    -0.269 OA 
HETATM   33  C   UNL     1     -10.677  14.041  66.028  1.00  0.00    -0.294 C  
HETATM   34  C   UNL     1     -10.965  11.464  65.872  1.00  0.00    -0.207 C  
HETATM   35  O   UNL     1     -11.255  12.759  67.958  1.00  0.00    -0.240 OA 
HETATM   36  O   UNL     1     -12.053  14.471  65.965  1.00  0.00    -0.364 OA 
HETATM   37  C   UNL     1     -10.457  12.755  65.151  1.00  0.00    -0.300 C  
HETATM   38  H   UNL     1     -12.268  14.659  65.058  1.00  0.00     0.000 HD 
HETATM   39  C   UNL     1      -9.833  15.223  65.546  1.00  0.00    -0.362 C  
HETATM   40  H   UNL     1     -10.330  10.279  64.435  1.00  0.00     0.000 HD 
HETATM   41  C   UNL     1     -10.333  13.740  67.481  1.00  0.00    -0.241 C  
BRANCH  37  42
HETATM   42  N   UNL     1     -11.093  12.992  63.823  1.00  0.00    -0.550 NA 
HETATM   43  H   UNL     1     -10.787  13.771  63.240  1.00  0.00     0.000 HD 
HETATM   44  C   UNL     1     -12.143  12.115  63.366  1.00  0.00    -0.507 C  
ENDBRANCH  37  42
ENDBRANCH  30  31
ENDBRANCH  10  30
ENDBRANCH   3   5
ENDBRANCH   2   3
TORSDOF 8
ENDMDL
MODEL      253
REMARK 921   NORMALIZED FREE ENERGY PREDICTED BY IDOCK:    1.48 KCAL/MOL
REMARK 922        TOTAL FREE ENERGY PREDICTED BY IDOCK:    1.42 KCAL/MOL
REMARK 923 INTER-LIGAND FREE ENERGY PREDICTED BY IDOCK:   -7.51 KCAL/MOL
REMARK 924 INTRA-LIGAND FREE ENERGY PREDICTED BY IDOCK:    8.93 KCAL/MOL
REMARK 927      BINDING AFFINITY PREDICTED BY RF-SCORE:    0.00 PKD
ROOT
HETATM    1  C   UNL     1      -5.406  12.743  71.151  1.00  0.00    -0.162 C  
HETATM    2  C   UNL     1      -5.929  14.082  70.650  1.00  0.00    -0.186 C  
ENDROOT
BRANCH   2   3
HETATM    3  N   UNL     1      -6.985  13.873  69.655  1.00  0.00    -0.331 NA 
HETATM    4  H   UNL     1      -7.741  13.321  70.060  1.00  0.00     0.000 HD 
BRANCH   3   5
HETATM    5  C   UNL     1      -7.533  15.111  69.034  1.00  0.00    -0.161 C  
HETATM    6  C   UNL     1      -6.693  16.344  69.402  1.00  0.00    -0.215 C  
HETATM    7  C   UNL     1      -7.222  17.614  68.729  1.00  0.00    -0.268 C  
HETATM    8  C   UNL     1      -8.664  17.926  69.215  1.00  0.00     0.290 C  
HETATM    9  N   UNL     1      -6.291  18.720  69.032  1.00  0.00    -0.245 NA 
HETATM   10  C   UNL     1      -9.055  15.294  69.297  1.00  0.00    -0.240 C  
HETATM   11  H2  UNL     1      -5.329  18.507  68.768  1.00  0.00     0.000 HD 
HETATM   12  H1  UNL     1      -6.643  19.566  68.584  1.00  0.00     0.000 HD 
HETATM   13  C   UNL     1      -9.607  16.708  69.027  1.00  0.00    -0.246 C  
HETATM   14  H   UNL     1     -11.351  16.074  69.767  1.00  0.00     0.000 HD 
HETATM   15  O   UNL     1     -10.774  16.819  69.882  1.00  0.00    -0.292 OA 
BRANCH   8  16
HETATM   16  O   UNL     1      -9.167  19.079  68.464  1.00  0.00    -0.338 OA 
BRANCH  16  17
HETATM   17  C   UNL     1      -9.266  18.863  67.038  1.00  0.00    -0.303 C  
HETATM   18  H1  UNL     1     -12.042  16.818  67.455  1.00  0.00     0.000 HD 
HETATM   19  O   UNL     1      -7.964  18.595  66.502  1.00  0.00    -0.259 OA 
HETATM   20  C   UNL     1      -7.626  17.270  66.337  1.00  0.00    -0.314 C  
HETATM   21  H2  UNL     1     -11.658  18.245  68.239  1.00  0.00     0.000 HD 
HETATM   22  N   UNL     1     -11.286  17.445  67.729  1.00  0.00     0.001 NA 
HETATM   23  C   UNL     1      -8.542  16.371  65.952  1.00  0.00    -0.073 C  
HETATM   24  C   UNL     1     -10.427  17.901  66.617  1.00  0.00    -0.316 C  
HETATM   25  C   UNL     1      -9.953  16.771  65.697  1.00  0.00    -0.163 C  
BRANCH  20  26
HETATM   26  C   UNL     1      -6.157  16.994  66.560  1.00  0.00    -0.156 C  
HETATM   27  N   UNL     1      -5.247  17.976  65.973  1.00  0.00    -0.170 NA 
HETATM   28  H2  UNL     1      -5.483  18.913  66.299  1.00  0.00     0.000 HD 
HETATM   29  H1  UNL     1      -4.255  17.790  66.124  1.00  0.00     0.000 HD 
ENDBRANCH  20  26
ENDBRANCH  16  17
ENDBRANCH   8  16
BRANCH  10  30
HETATM   30  O   UNL     1      -9.889  14.233  68.712  1.00  0.00    -0.227 OA 
BRANCH  30  31
HETATM   31  C   UNL     1      -9.795  14.042  67.288  1.00  0.00    -0.242 C  
HETATM   32  O   UNL     1     -12.195  14.534  67.099  1.00  0.00    -0.552 OA 
HETATM   33  C   UNL     1     -10.298  11.275  66.451  1.00  0.00    -0.245 C  
HETATM   34  C   UNL     1     -11.142  13.730  66.541  1.00  0.00    -0.306 C  
HETATM   35  O   UNL     1      -8.811  13.057  67.011  1.00  0.00    -0.213 OA 
HETATM   36  O   UNL     1      -9.690  11.246  65.143  1.00  0.00    -0.226 OA 
HETATM   37  C   UNL     1     -11.551  12.223  66.458  1.00  0.00    -0.377 C  
HETATM   38  H   UNL     1     -10.334  10.933  64.518  1.00  0.00     0.000 HD 
HETATM   39  C   UNL     1     -10.663   9.828  66.789  1.00  0.00    -0.143 C  
HETATM   40  H   UNL     1     -13.009  14.345  66.647  1.00  0.00     0.000 HD 
HETATM   41  C   UNL     1      -9.265  11.777  67.452  1.00  0.00    -0.174 C  
BRANCH  37  42
HETATM   42  N   UNL     1     -12.385  11.891  65.267  1.00  0.00    -0.245 NA 
HETATM   43  H   UNL     1     -12.990  11.070  65.279  1.00  0.00     0.000 HD 
HETATM   44  C   UNL     1     -12.332  12.734  64.098  1.00  0.00    -0.407 C  
ENDBRANCH  37  42
ENDBRANCH  30  31
ENDBRANCH  10  30
ENDBRANCH   3   5
ENDBRANCH   2   3
TORSDOF 8
ENDMDL
MODEL      254
REMARK 921   NORMALIZED FREE ENERGY PREDICTED BY IDOCK:    1.65 KCAL/MOL
REMARK 922        TOTAL FREE ENERGY PREDICTED BY IDOCK:    1.68 KCAL/MOL
REMARK 923 INTER-LIGAND FREE ENERGY PREDICTED BY IDOCK:   -7.11 KCAL/MOL
REMARK 924 INTRA-LIGAND FREE ENERGY PREDICTED BY IDOCK:    8.79 KCAL/MOL
REMARK 927      BINDING AFFINITY PREDICTED BY RF-SCORE:    0.00 PKD
ROOT
HETATM    1  C   UNL     1     -12.034  11.659  68.451  1.00  0.00    -0.266 C  
HETATM    2  C   UNL     1     -11.435  11.420  69.831  1.00  0.00    -0.273 C  
ENDROOT
BRANCH   2   3
HETATM    3  N   UNL     1     -10.115  10.795  69.709  1.00  0.00    -0.438 NA 
HETATM    4  H   UNL     1      -9.413  11.368  70.177  1.00  0.00     0.000 HD 
BRANCH   3   5
HETATM    5  C   UNL     1     -10.027   9.387  70.187  1.00  0.00    -0.229 C  
HETATM    6  C   UNL     1     -10.571   9.244  71.616  1.00  0.00    -0.360 C  
HETATM    7  C   UNL     1     -10.527   7.791  72.099  1.00  0.00    -0.231 C  
HETATM    8  C   UNL     1      -9.062   7.280  72.153  1.00  0.00    -0.132 C  
HETATM    9  N   UNL     1     -11.180   7.723  73.423  1.00  0.00    -0.520 NA 
HETATM   10  C   UNL     1      -8.610   8.774  69.996  1.00  0.00    -0.136 C  
HETATM   11  H2  UNL     1     -12.125   8.107  73.415  1.00  0.00     0.000 HD 
HETATM   12  H1  UNL     1     -11.151   6.756  73.744  1.00  0.00     0.000 HD 
HETATM   13  C   UNL     1      -8.334   7.486  70.798  1.00  0.00    -0.118 C  
HETATM   14  H   UNL     1      -6.449   7.588  70.144  1.00  0.00     0.000 HD 
HETATM   15  O   UNL     1      -6.894   7.461  70.974  1.00  0.00    -0.053 OA 
BRANCH   8  16
HETATM   16  O   UNL     1      -9.079   5.859  72.510  1.00  0.00    -0.137 OA 
BRANCH  16  17
HETATM   17  C   UNL     1      -9.876   5.034  71.629  1.00  0.00    -0.180 C  
HETATM   18  H1  UNL     1      -7.521   5.319  69.092  1.00  0.00     0.000 HD 
HETATM   19  O   UNL     1     -11.247   5.445  71.699  1.00  0.00    -0.131 OA 
HETATM   20  C   UNL     1     -11.681   6.314  70.722  1.00  0.00    -0.220 C  
HETATM   21  H2  UNL     1      -7.279   5.109  70.735  1.00  0.00     0.000 HD 
HETATM   22  N   UNL     1      -7.924   5.446  70.020  1.00  0.00    -0.080 NA 
HETATM   23  C   UNL     1     -11.232   6.212  69.464  1.00  0.00    -0.482 C  
HETATM   24  C   UNL     1      -9.257   4.838  70.205  1.00  0.00    -0.135 C  
HETATM   25  C   UNL     1     -10.246   5.163  69.081  1.00  0.00    -0.259 C  
BRANCH  20  26
HETATM   26  C   UNL     1     -12.725   7.291  71.211  1.00  0.00    -0.359 C  
HETATM   27  N   UNL     1     -13.789   6.704  72.023  1.00  0.00    -0.425 NA 
HETATM   28  H2  UNL     1     -13.389   6.193  72.811  1.00  0.00     0.000 HD 
HETATM   29  H1  UNL     1     -14.494   7.363  72.354  1.00  0.00     0.000 HD 
ENDBRANCH  20  26
ENDBRANCH  16  17
ENDBRANCH   8  16
BRANCH  10  30
HETATM   30  O   UNL     1      -8.193   8.672  68.589  1.00  0.00    -0.118 OA 
BRANCH  30  31
HETATM   31  C   UNL     1      -9.216   8.344  67.629  1.00  0.00    -0.134 C  
HETATM   32  O   UNL     1      -7.988   6.288  67.078  1.00  0.00    -0.106 OA 
HETATM   33  C   UNL     1      -8.667   9.390  64.944  1.00  0.00    -0.190 C  
HETATM   34  C   UNL     1      -8.809   7.321  66.508  1.00  0.00    -0.141 C  
HETATM   35  O   UNL     1      -9.738   9.541  67.072  1.00  0.00    -0.159 OA 
HETATM   36  O   UNL     1      -9.979   9.365  64.343  1.00  0.00    -0.257 OA 
HETATM   37  C   UNL     1      -8.158   7.930  65.223  1.00  0.00    -0.135 C  
HETATM   38  H   UNL     1      -9.926   8.881  63.527  1.00  0.00     0.000 HD 
HETATM   39  C   UNL     1      -7.761  10.144  63.969  1.00  0.00    -0.136 C  
HETATM   40  H   UNL     1      -7.742   5.670  66.400  1.00  0.00     0.000 HD 
HETATM   41  C   UNL     1      -8.751  10.166  66.251  1.00  0.00    -0.141 C  
BRANCH  37  42
HETATM   42  N   UNL     1      -8.387   7.120  63.992  1.00  0.00    -0.355 NA 
HETATM   43  H   UNL     1      -9.213   7.285  63.417  1.00  0.00     0.000 HD 
HETATM   44  C   UNL     1      -7.435   6.103  63.616  1.00  0.00    -0.075 C  
ENDBRANCH  37  42
ENDBRANCH  30  31
ENDBRANCH  10  30
ENDBRANCH   3   5
ENDBRANCH   2   3
TORSDOF 8
ENDMDL
MODEL      255
REMARK 921   NORMALIZED FREE ENERGY PREDICTED BY IDOCK:    1.65 KCAL/MOL
REMARK 922        TOTAL FREE ENERGY PREDICTED BY IDOCK:    1.68 KCAL/MOL
REMARK 923 INTER-LIGAND FREE ENERGY PREDICTED BY IDOCK:   -6.27 KCAL/MOL
REMARK 924 INTRA-LIGAND FREE ENERGY PREDICTED BY IDOCK:    7.96 KCAL/MOL
REMARK 927      BINDING AFFINITY PREDICTED BY RF-SCORE:    0.00 PKD
ROOT
HETATM    1  C   UNL     1      -6.340   7.598  67.967  1.00  0.00    -0.049 C  
HETATM    2  C   UNL     1      -7.195   6.956  66.883  1.00  0.00    -0.077 C  
ENDROOT
BRANCH   2   3
HETATM    3  N   UNL     1      -8.618   7.147  67.181  1.00  0.00    -0.120 NA 
HETATM    4  H   UNL     1      -9.186   6.603  66.532  1.00  0.00     0.000 HD 
BRANCH   3   5
HETATM    5  C   UNL     1      -9.023   6.854  68.583  1.00  0.00    -0.129 C  
HETATM    6  C   UNL     1      -9.264   5.352  68.796  1.00  0.00    -0.148 C  
HETATM    7  C   UNL     1      -9.636   5.035  70.248  1.00  0.00    -0.187 C  
HETATM    8  C   UNL     1     -10.968   5.735  70.633  1.00  0.00    -0.249 C  
HETATM    9  N   UNL     1      -9.726   3.568  70.393  1.00  0.00    -0.164 NA 
HETATM   10  C   UNL     1     -10.199   7.748  69.070  1.00  0.00    -0.208 C  
HETATM   11  H2  UNL     1      -8.876   3.090  70.092  1.00  0.00     0.000 HD 
HETATM   12  H1  UNL     1      -9.973   3.357  71.359  1.00  0.00     0.000 HD 
HETATM   13  C   UNL     1     -10.918   7.258  70.343  1.00  0.00    -0.252 C  
HETATM   14  H   UNL     1     -12.226   8.744  70.070  1.00  0.00     0.000 HD 
HETATM   15  O   UNL     1     -12.256   7.812  70.248  1.00  0.00     0.173 OA 
BRANCH   8  16
HETATM   16  O   UNL     1     -11.222   5.496  72.056  1.00  0.00    -0.235 OA 
BRANCH  16  17
HETATM   17  C   UNL     1     -10.241   6.080  72.943  1.00  0.00    -0.188 C  
HETATM   18  H1  UNL     1     -11.704   9.215  72.636  1.00  0.00     0.000 HD 
HETATM   19  O   UNL     1      -8.935   5.606  72.590  1.00  0.00    -0.132 OA 
HETATM   20  C   UNL     1      -8.183   6.420  71.772  1.00  0.00    -0.113 C  
HETATM   21  H2  UNL     1     -12.440   7.719  72.783  1.00  0.00     0.000 HD 
HETATM   22  N   UNL     1     -11.593   8.211  72.497  1.00  0.00    -0.399 NA 
HETATM   23  C   UNL     1      -8.237   7.753  71.894  1.00  0.00    -0.128 C  
HETATM   24  C   UNL     1     -10.411   7.622  73.156  1.00  0.00    -0.374 C  
HETATM   25  C   UNL     1      -9.114   8.399  72.910  1.00  0.00    -0.282 C  
BRANCH  20  26
HETATM   26  C   UNL     1      -7.286   5.656  70.826  1.00  0.00    -0.084 C  
HETATM   27  N   UNL     1      -5.869   5.657  71.181  1.00  0.00    -0.023 NA 
HETATM   28  H2  UNL     1      -5.745   5.318  72.135  1.00  0.00     0.000 HD 
HETATM   29  H1  UNL     1      -5.263   5.140  70.543  1.00  0.00     0.000 HD 
ENDBRANCH  20  26
ENDBRANCH  16  17
ENDBRANCH   8  16
BRANCH  10  30
HETATM   30  O   UNL     1      -9.874   9.182  69.112  1.00  0.00    -0.164 OA 
BRANCH  30  31
HETATM   31  C   UNL     1     -10.150   9.947  67.924  1.00  0.00    -0.173 C  
HETATM   32  O   UNL     1      -7.917  10.959  68.100  1.00  0.00    -0.108 OA 
HETATM   33  C   UNL     1     -11.373  12.556  68.478  1.00  0.00    -0.297 C  
HETATM   34  C   UNL     1      -9.273  11.234  67.711  1.00  0.00    -0.156 C  
HETATM   35  O   UNL     1     -11.535  10.252  67.872  1.00  0.00    -0.346 OA 
HETATM   36  O   UNL     1     -11.969  12.880  67.205  1.00  0.00    -0.372 OA 
HETATM   37  C   UNL     1      -9.805  12.548  68.370  1.00  0.00    -0.202 C  
HETATM   38  H   UNL     1     -11.660  13.739  66.938  1.00  0.00     0.000 HD 
HETATM   39  C   UNL     1     -11.880  13.603  69.471  1.00  0.00    -0.394 C  
HETATM   40  H   UNL     1      -7.387  11.736  67.971  1.00  0.00     0.000 HD 
HETATM   41  C   UNL     1     -11.868  11.180  68.905  1.00  0.00    -0.337 C  
BRANCH  37  42
HETATM   42  N   UNL     1      -9.388  13.790  67.659  1.00  0.00    -0.205 NA 
HETATM   43  H   UNL     1      -9.864  14.075  66.803  1.00  0.00     0.000 HD 
HETATM   44  C   UNL     1      -8.307  14.588  68.185  1.00  0.00    -0.147 C  
ENDBRANCH  37  42
ENDBRANCH  30  31
ENDBRANCH  10  30
ENDBRANCH   3   5
ENDBRANCH   2   3
TORSDOF 8
ENDMDL
MODEL      256
REMARK 921   NORMALIZED FREE ENERGY PREDICTED BY IDOCK:    1.72 KCAL/MOL
REMARK 922        TOTAL FREE ENERGY PREDICTED BY IDOCK:    1.78 KCAL/MOL
REMARK 923 INTER-LIGAND FREE ENERGY PREDICTED BY IDOCK:   -3.45 KCAL/MOL
REMARK 924 INTRA-LIGAND FREE ENERGY PREDICTED BY IDOCK:    5.24 KCAL/MOL
REMARK 927      BINDING AFFINITY PREDICTED BY RF-SCORE:    0.00 PKD
ROOT
HETATM    1  C   UNL     1     -10.723   4.364  65.551  1.00  0.00    -0.126 C  
HETATM    2  C   UNL     1      -9.303   3.841  65.380  1.00  0.00    -0.159 C  
ENDROOT
BRANCH   2   3
HETATM    3  N   UNL     1      -8.399   4.937  65.022  1.00  0.00    -0.129 NA 
HETATM    4  H   UNL     1      -8.678   5.343  64.129  1.00  0.00     0.000 HD 
BRANCH   3   5
HETATM    5  C   UNL     1      -8.255   6.008  66.046  1.00  0.00    -0.125 C  
HETATM    6  C   UNL     1      -9.435   6.991  66.002  1.00  0.00     0.031 C  
HETATM    7  C   UNL     1      -9.319   8.069  67.083  1.00  0.00    -0.149 C  
HETATM    8  C   UNL     1      -8.046   8.930  66.858  1.00  0.00    -0.109 C  
HETATM    9  N   UNL     1     -10.547   8.890  67.053  1.00  0.00    -0.265 NA 
HETATM   10  C   UNL     1      -6.864   6.704  65.999  1.00  0.00    -0.053 C  
HETATM   11  H2  UNL     1     -11.396   8.331  67.145  1.00  0.00     0.000 HD 
HETATM   12  H1  UNL     1     -10.470   9.608  67.772  1.00  0.00     0.000 HD 
HETATM   13  C   UNL     1      -6.773   8.050  66.746  1.00  0.00    -0.064 C  
HETATM   14  H   UNL     1      -4.922   8.230  66.015  1.00  0.00     0.000 HD 
HETATM   15  O   UNL     1      -5.701   8.769  66.084  1.00  0.00    -0.045 OA 
BRANCH   8  16
HETATM   16  O   UNL     1      -7.918   9.870  67.974  1.00  0.00    -0.099 OA 
BRANCH  16  17
HETATM   17  C   UNL     1      -7.111  11.034  67.683  1.00  0.00    -0.088 C  
HETATM   18  H1  UNL     1      -6.265  11.388  71.033  1.00  0.00     0.000 HD 
HETATM   19  O   UNL     1      -7.823  11.899  66.790  1.00  0.00    -0.146 OA 
HETATM   20  C   UNL     1      -8.517  12.942  67.363  1.00  0.00    -0.196 C  
HETATM   21  H2  UNL     1      -6.393   9.991  70.122  1.00  0.00     0.000 HD 
HETATM   22  N   UNL     1      -6.691  10.962  70.211  1.00  0.00    -0.258 NA 
HETATM   23  C   UNL     1      -8.027  13.586  68.431  1.00  0.00    -0.142 C  
HETATM   24  C   UNL     1      -6.457  11.688  68.946  1.00  0.00    -0.071 C  
HETATM   25  C   UNL     1      -6.725  13.194  69.038  1.00  0.00    -0.103 C  
BRANCH  20  26
HETATM   26  C   UNL     1      -9.788  13.293  66.627  1.00  0.00    -0.276 C  
HETATM   27  N   UNL     1     -10.240  12.293  65.661  1.00  0.00    -0.256 NA 
HETATM   28  H2  UNL     1     -10.334  11.384  66.114  1.00  0.00     0.000 HD 
HETATM   29  H1  UNL     1     -11.098  12.529  65.163  1.00  0.00     0.000 HD 
ENDBRANCH  20  26
ENDBRANCH  16  17
ENDBRANCH   8  16
BRANCH  10  30
HETATM   30  O   UNL     1      -5.741   5.804  66.301  1.00  0.00    -0.016 OA 
BRANCH  30  31
HETATM   31  C   UNL     1      -5.489   5.522  67.691  1.00  0.00    -0.012 C  
HETATM   32  O   UNL     1      -5.126   3.162  67.109  1.00  0.00    -0.007 OA 
HETATM   33  C   UNL     1      -7.904   4.780  69.183  1.00  0.00    -0.071 C  
HETATM   34  C   UNL     1      -5.653   4.022  68.133  1.00  0.00    -0.020 C  
HETATM   35  O   UNL     1      -6.277   6.386  68.496  1.00  0.00    -0.029 OA 
HETATM   36  O   UNL     1      -7.499   5.027  70.545  1.00  0.00    -0.060 OA 
HETATM   37  C   UNL     1      -7.089   3.585  68.568  1.00  0.00    -0.050 C  
HETATM   38  H   UNL     1      -7.652   4.238  71.052  1.00  0.00     0.000 HD 
HETATM   39  C   UNL     1      -9.407   4.495  69.225  1.00  0.00    -0.215 C  
HETATM   40  H   UNL     1      -5.224   2.256  67.376  1.00  0.00     0.000 HD 
HETATM   41  C   UNL     1      -7.657   6.044  68.370  1.00  0.00    -0.091 C  
BRANCH  37  42
HETATM   42  N   UNL     1      -7.104   2.465  69.554  1.00  0.00    -0.039 NA 
HETATM   43  H   UNL     1      -7.980   1.998  69.784  1.00  0.00     0.000 HD 
HETATM   44  C   UNL     1      -5.874   2.047  70.181  1.00  0.00    -0.018 C  
ENDBRANCH  37  42
ENDBRANCH  30  31
ENDBRANCH  10  30
ENDBRANCH   3   5
ENDBRANCH   2   3
TORSDOF 8
ENDMDL
MODEL      257
REMARK 921   NORMALIZED FREE ENERGY PREDICTED BY IDOCK:    1.72 KCAL/MOL
REMARK 922        TOTAL FREE ENERGY PREDICTED BY IDOCK:    1.79 KCAL/MOL
REMARK 923 INTER-LIGAND FREE ENERGY PREDICTED BY IDOCK:   -3.94 KCAL/MOL
REMARK 924 INTRA-LIGAND FREE ENERGY PREDICTED BY IDOCK:    5.73 KCAL/MOL
REMARK 927      BINDING AFFINITY PREDICTED BY RF-SCORE:    0.00 PKD
ROOT
HETATM    1  C   UNL     1     -11.133  16.685  66.481  1.00  0.00     0.263 C  
HETATM    2  C   UNL     1     -10.031  15.896  67.175  1.00  0.00    -0.240 C  
ENDROOT
BRANCH   2   3
HETATM    3  N   UNL     1      -9.022  15.471  66.201  1.00  0.00    -0.381 NA 
HETATM    4  H   UNL     1      -8.244  16.131  66.194  1.00  0.00     0.000 HD 
BRANCH   3   5
HETATM    5  C   UNL     1      -8.512  14.082  66.372  1.00  0.00     0.499 C  
HETATM    6  C   UNL     1      -9.641  13.049  66.245  1.00  0.00    -0.243 C  
HETATM    7  C   UNL     1      -9.119  11.615  66.373  1.00  0.00    -0.206 C  
HETATM    8  C   UNL     1      -8.495  11.387  67.777  1.00  0.00    -0.128 C  
HETATM    9  N   UNL     1     -10.240  10.689  66.114  1.00  0.00    -0.247 NA 
HETATM   10  C   UNL     1      -7.654  13.910  67.658  1.00  0.00    -0.178 C  
HETATM   11  H2  UNL     1     -10.695  10.863  65.218  1.00  0.00     0.000 HD 
HETATM   12  H1  UNL     1      -9.892   9.734  66.199  1.00  0.00     0.000 HD 
HETATM   13  C   UNL     1      -7.416  12.454  68.104  1.00  0.00    -0.118 C  
HETATM   14  H   UNL     1      -6.526  13.190  69.734  1.00  0.00     0.000 HD 
HETATM   15  O   UNL     1      -7.186  12.537  69.534  1.00  0.00     0.148 OA 
BRANCH   8  16
HETATM   16  O   UNL     1      -7.911  10.045  67.813  1.00  0.00    -0.104 OA 
BRANCH  16  17
HETATM   17  C   UNL     1      -6.785   9.861  66.924  1.00  0.00    -0.078 C  
HETATM   18  H1  UNL     1      -8.893   9.531  64.183  1.00  0.00     0.000 HD 
HETATM   19  O   UNL     1      -5.852   8.949  67.517  1.00  0.00    -0.042 OA 
HETATM   20  C   UNL     1      -5.943   7.631  67.124  1.00  0.00    -0.047 C  
HETATM   21  H2  UNL     1      -9.003  10.590  65.475  1.00  0.00     0.000 HD 
HETATM   22  N   UNL     1      -8.633   9.694  65.156  1.00  0.00    -0.147 NA 
HETATM   23  C   UNL     1      -6.251   7.312  65.860  1.00  0.00    -0.038 C  
HETATM   24  C   UNL     1      -7.185   9.611  65.431  1.00  0.00    -0.104 C  
HETATM   25  C   UNL     1      -6.513   8.367  64.841  1.00  0.00    -0.064 C  
BRANCH  20  26
HETATM   26  C   UNL     1      -5.596   6.654  68.222  1.00  0.00    -0.016 C  
HETATM   27  N   UNL     1      -5.383   5.277  67.780  1.00  0.00    -0.011 NA 
HETATM   28  H2  UNL     1      -4.674   5.248  67.047  1.00  0.00     0.000 HD 
HETATM   29  H1  UNL     1      -5.148   4.617  68.522  1.00  0.00     0.000 HD 
ENDBRANCH  20  26
ENDBRANCH  16  17
ENDBRANCH   8  16
BRANCH  10  30
HETATM   30  O   UNL     1      -6.424  14.717  67.662  1.00  0.00    -0.163 OA 
BRANCH  30  31
HETATM   31  C   UNL     1      -6.289  15.694  68.712  1.00  0.00    -0.104 C  
HETATM   32  O   UNL     1      -8.723  15.624  69.041  1.00  0.00    -0.202 OA 
HETATM   33  C   UNL     1      -6.499  18.461  67.759  1.00  0.00    -0.205 C  
HETATM   34  C   UNL     1      -7.586  16.503  69.074  1.00  0.00    -0.233 C  
HETATM   35  O   UNL     1      -5.207  16.562  68.409  1.00  0.00    -0.102 OA 
HETATM   36  O   UNL     1      -5.871  19.192  68.832  1.00  0.00    -0.206 OA 
HETATM   37  C   UNL     1      -7.841  17.804  68.247  1.00  0.00    -0.279 C  
HETATM   38  H   UNL     1      -6.471  19.868  69.127  1.00  0.00     0.000 HD 
HETATM   39  C   UNL     1      -6.723  19.464  66.626  1.00  0.00    -0.201 C  
HETATM   40  H   UNL     1      -9.507  16.113  69.260  1.00  0.00     0.000 HD 
HETATM   41  C   UNL     1      -5.538  17.379  67.286  1.00  0.00    -0.131 C  
BRANCH  37  42
HETATM   42  N   UNL     1      -8.619  18.842  68.982  1.00  0.00    -0.204 NA 
HETATM   43  H   UNL     1      -8.327  19.137  69.914  1.00  0.00     0.000 HD 
HETATM   44  C   UNL     1      -9.787  19.428  68.372  1.00  0.00    -0.428 C  
ENDBRANCH  37  42
ENDBRANCH  30  31
ENDBRANCH  10  30
ENDBRANCH   3   5
ENDBRANCH   2   3
TORSDOF 8
ENDMDL
MODEL      258
REMARK 921   NORMALIZED FREE ENERGY PREDICTED BY IDOCK:    1.83 KCAL/MOL
REMARK 922        TOTAL FREE ENERGY PREDICTED BY IDOCK:    1.94 KCAL/MOL
REMARK 923 INTER-LIGAND FREE ENERGY PREDICTED BY IDOCK:   -1.64 KCAL/MOL
REMARK 924 INTRA-LIGAND FREE ENERGY PREDICTED BY IDOCK:    3.58 KCAL/MOL
REMARK 927      BINDING AFFINITY PREDICTED BY RF-SCORE:    0.00 PKD
ROOT
HETATM    1  C   UNL     1      -7.502  15.930  66.610  1.00  0.00    -0.093 C  
HETATM    2  C   UNL     1      -7.330  14.741  67.546  1.00  0.00    -0.201 C  
ENDROOT
BRANCH   2   3
HETATM    3  N   UNL     1      -6.381  13.780  66.975  1.00  0.00    -0.258 NA 
HETATM    4  H   UNL     1      -5.525  13.764  67.528  1.00  0.00     0.000 HD 
BRANCH   3   5
HETATM    5  C   UNL     1      -6.901  12.396  66.798  1.00  0.00     0.310 C  
HETATM    6  C   UNL     1      -6.214  11.683  65.624  1.00  0.00     1.162 C  
HETATM    7  C   UNL     1      -6.709  10.242  65.464  1.00  0.00    -0.128 C  
HETATM    8  C   UNL     1      -8.228  10.222  65.139  1.00  0.00    -0.161 C  
HETATM    9  N   UNL     1      -5.912   9.595  64.401  1.00  0.00    -0.081 NA 
HETATM   10  C   UNL     1      -8.454  12.339  66.737  1.00  0.00    -0.119 C  
HETATM   11  H2  UNL     1      -4.908   9.648  64.574  1.00  0.00     0.000 HD 
HETATM   12  H1  UNL     1      -6.242   8.636  64.295  1.00  0.00     0.000 HD 
HETATM   13  C   UNL     1      -9.046  11.028  66.182  1.00  0.00    -0.192 C  
HETATM   14  H   UNL     1     -10.842  11.898  66.284  1.00  0.00     0.000 HD 
HETATM   15  O   UNL     1     -10.341  11.404  65.645  1.00  0.00    -0.240 OA 
BRANCH   8  16
HETATM   16  O   UNL     1      -8.676   8.828  65.106  1.00  0.00    -0.186 OA 
BRANCH  16  17
HETATM   17  C   UNL     1      -7.848   7.919  65.867  1.00  0.00    -0.101 C  
HETATM   18  H1  UNL     1     -10.355   5.515  65.881  1.00  0.00     0.000 HD 
HETATM   19  O   UNL     1      -7.212   8.630  66.936  1.00  0.00    -0.074 OA 
HETATM   20  C   UNL     1      -7.825   8.567  68.169  1.00  0.00    -0.103 C  
HETATM   21  H2  UNL     1      -9.872   6.525  64.638  1.00  0.00     0.000 HD 
HETATM   22  N   UNL     1      -9.899   6.397  65.649  1.00  0.00     0.485 NA 
HETATM   23  C   UNL     1      -8.428   7.443  68.578  1.00  0.00    -0.125 C  
HETATM   24  C   UNL     1      -8.549   6.564  66.222  1.00  0.00    -0.141 C  
HETATM   25  C   UNL     1      -8.464   6.230  67.715  1.00  0.00    -0.116 C  
BRANCH  20  26
HETATM   26  C   UNL     1      -7.669   9.832  68.980  1.00  0.00    -0.085 C  
HETATM   27  N   UNL     1      -8.174   9.755  70.349  1.00  0.00    -0.289 NA 
HETATM   28  H2  UNL     1      -7.747   8.969  70.838  1.00  0.00     0.000 HD 
HETATM   29  H1  UNL     1      -8.069  10.609  70.897  1.00  0.00     0.000 HD 
ENDBRANCH  20  26
ENDBRANCH  16  17
ENDBRANCH   8  16
BRANCH  10  30
HETATM   30  O   UNL     1      -9.112  12.784  67.976  1.00  0.00    -0.194 OA 
BRANCH  30  31
HETATM   31  C   UNL     1     -10.382  13.449  67.835  1.00  0.00    -0.238 C  
HETATM   32  O   UNL     1      -9.457  15.389  69.026  1.00  0.00    -0.206 OA 
HETATM   33  C   UNL     1     -12.210  12.948  70.075  1.00  0.00    -0.222 C  
HETATM   34  C   UNL     1     -10.661  14.626  68.838  1.00  0.00    -0.253 C  
HETATM   35  O   UNL     1     -11.424  12.484  67.869  1.00  0.00    -0.272 OA 
HETATM   36  O   UNL     1     -13.488  13.280  69.494  1.00  0.00     1.494 OA 
HETATM   37  C   UNL     1     -11.309  14.229  70.204  1.00  0.00    -0.129 C  
HETATM   38  H   UNL     1     -13.916  13.919  70.053  1.00  0.00     0.000 HD 
HETATM   39  C   UNL     1     -12.507  12.308  71.432  1.00  0.00    -0.212 C  
HETATM   40  H   UNL     1      -9.626  16.101  69.632  1.00  0.00     0.000 HD 
HETATM   41  C   UNL     1     -11.526  11.924  69.178  1.00  0.00    -0.296 C  
BRANCH  37  42
HETATM   42  N   UNL     1     -12.135  15.310  70.815  1.00  0.00    -0.319 NA 
HETATM   43  H   UNL     1     -13.149  15.212  70.868  1.00  0.00     0.000 HD 
HETATM   44  C   UNL     1     -11.494  16.495  71.331  1.00  0.00    -0.055 C  
ENDBRANCH  37  42
ENDBRANCH  30  31
ENDBRANCH  10  30
ENDBRANCH   3   5
ENDBRANCH   2   3
TORSDOF 8
ENDMDL
MODEL      259
REMARK 921   NORMALIZED FREE ENERGY PREDICTED BY IDOCK:    1.91 KCAL/MOL
REMARK 922        TOTAL FREE ENERGY PREDICTED BY IDOCK:    2.06 KCAL/MOL
REMARK 923 INTER-LIGAND FREE ENERGY PREDICTED BY IDOCK:   -5.56 KCAL/MOL
REMARK 924 INTRA-LIGAND FREE ENERGY PREDICTED BY IDOCK:    7.62 KCAL/MOL
REMARK 927      BINDING AFFINITY PREDICTED BY RF-SCORE:    0.00 PKD
ROOT
HETATM    1  C   UNL     1      -5.514   6.191  69.332  1.00  0.00    -0.012 C  
HETATM    2  C   UNL     1      -5.857   4.708  69.274  1.00  0.00    -0.017 C  
ENDROOT
BRANCH   2   3
HETATM    3  N   UNL     1      -7.298   4.529  69.075  1.00  0.00    -0.055 NA 
HETATM    4  H   UNL     1      -7.513   3.539  68.954  1.00  0.00     0.000 HD 
BRANCH   3   5
HETATM    5  C   UNL     1      -8.168   5.115  70.132  1.00  0.00    -0.086 C  
HETATM    6  C   UNL     1      -8.523   4.077  71.207  1.00  0.00    -0.100 C  
HETATM    7  C   UNL     1      -9.378   4.683  72.324  1.00  0.00    -0.128 C  
HETATM    8  C   UNL     1     -10.735   5.184  71.757  1.00  0.00    -0.133 C  
HETATM    9  N   UNL     1      -9.567   3.659  73.371  1.00  0.00    -0.107 NA 
HETATM   10  C   UNL     1      -9.405   5.857  69.551  1.00  0.00    -0.134 C  
HETATM   11  H2  UNL     1      -8.684   3.280  73.714  1.00  0.00     0.000 HD 
HETATM   12  H1  UNL     1     -10.137   4.062  74.114  1.00  0.00     0.000 HD 
HETATM   13  C   UNL     1     -10.533   6.151  70.560  1.00  0.00    -0.234 C  
HETATM   14  H   UNL     1     -11.614   6.829  69.022  1.00  0.00     0.000 HD 
HETATM   15  O   UNL     1     -11.737   6.238  69.755  1.00  0.00    -0.403 OA 
BRANCH   8  16
HETATM   16  O   UNL     1     -11.468   5.854  72.834  1.00  0.00    -0.256 OA 
BRANCH  16  17
HETATM   17  C   UNL     1     -10.897   7.116  73.248  1.00  0.00    -0.338 C  
HETATM   18  H1  UNL     1     -12.319   8.746  70.530  1.00  0.00     0.000 HD 
HETATM   19  O   UNL     1      -9.529   6.922  73.625  1.00  0.00    -0.155 OA 
HETATM   20  C   UNL     1      -8.579   7.193  72.665  1.00  0.00    -0.118 C  
HETATM   21  H2  UNL     1     -12.980   7.563  71.512  1.00  0.00     0.000 HD 
HETATM   22  N   UNL     1     -12.113   7.971  71.160  1.00  0.00    -0.291 NA 
HETATM   23  C   UNL     1      -8.742   8.209  71.807  1.00  0.00    -0.199 C  
HETATM   24  C   UNL     1     -11.213   8.306  72.281  1.00  0.00    -0.374 C  
HETATM   25  C   UNL     1      -9.955   9.072  71.857  1.00  0.00    -0.304 C  
BRANCH  20  26
HETATM   26  C   UNL     1      -7.366   6.296  72.751  1.00  0.00    -0.092 C  
HETATM   27  N   UNL     1      -6.089   6.994  72.881  1.00  0.00    -0.055 NA 
HETATM   28  H2  UNL     1      -6.114   7.628  73.679  1.00  0.00     0.000 HD 
HETATM   29  H1  UNL     1      -5.270   6.388  72.939  1.00  0.00     0.000 HD 
ENDBRANCH  20  26
ENDBRANCH  16  17
ENDBRANCH   8  16
BRANCH  10  30
HETATM   30  O   UNL     1      -9.062   7.022  68.721  1.00  0.00    -0.135 OA 
BRANCH  30  31
HETATM   31  C   UNL     1      -9.721   7.130  67.445  1.00  0.00    -0.148 C  
HETATM   32  O   UNL     1      -7.801   6.009  66.399  1.00  0.00    -0.101 OA 
HETATM   33  C   UNL     1      -9.064   9.599  66.003  1.00  0.00    -0.171 C  
HETATM   34  C   UNL     1      -8.798   7.021  66.179  1.00  0.00    -0.147 C  
HETATM   35  O   UNL     1     -10.498   8.317  67.417  1.00  0.00    -0.260 OA 
HETATM   36  O   UNL     1     -10.158   9.695  65.067  1.00  0.00    -0.379 OA 
HETATM   37  C   UNL     1      -8.160   8.356  65.674  1.00  0.00    -0.125 C  
HETATM   38  H   UNL     1      -9.798   9.781  64.191  1.00  0.00     0.000 HD 
HETATM   39  C   UNL     1      -8.296  10.918  65.904  1.00  0.00    -0.149 C  
HETATM   40  H   UNL     1      -7.243   5.943  65.633  1.00  0.00     0.000 HD 
HETATM   41  C   UNL     1      -9.642   9.459  67.406  1.00  0.00    -0.145 C  
BRANCH  37  42
HETATM   42  N   UNL     1      -7.875   8.371  64.210  1.00  0.00    -0.136 NA 
HETATM   43  H   UNL     1      -8.643   8.401  63.539  1.00  0.00     0.000 HD 
HETATM   44  C   UNL     1      -6.510   8.343  63.746  1.00  0.00    -0.072 C  
ENDBRANCH  37  42
ENDBRANCH  30  31
ENDBRANCH  10  30
ENDBRANCH   3   5
ENDBRANCH   2   3
TORSDOF 8
ENDMDL
MODEL      260
REMARK 921   NORMALIZED FREE ENERGY PREDICTED BY IDOCK:    2.14 KCAL/MOL
REMARK 922        TOTAL FREE ENERGY PREDICTED BY IDOCK:    2.41 KCAL/MOL
REMARK 923 INTER-LIGAND FREE ENERGY PREDICTED BY IDOCK:   -6.44 KCAL/MOL
REMARK 924 INTRA-LIGAND FREE ENERGY PREDICTED BY IDOCK:    8.84 KCAL/MOL
REMARK 927      BINDING AFFINITY PREDICTED BY RF-SCORE:    0.00 PKD
ROOT
HETATM    1  C   UNL     1     -10.957   6.047  69.996  1.00  0.00    -0.450 C  
HETATM    2  C   UNL     1      -9.712   5.751  70.821  1.00  0.00    -0.174 C  
ENDROOT
BRANCH   2   3
HETATM    3  N   UNL     1      -8.800   6.898  70.791  1.00  0.00    -0.149 NA 
HETATM    4  H   UNL     1      -7.968   6.698  71.346  1.00  0.00     0.000 HD 
BRANCH   3   5
HETATM    5  C   UNL     1      -8.407   7.368  69.434  1.00  0.00    -0.132 C  
HETATM    6  C   UNL     1      -7.516   6.341  68.719  1.00  0.00    -0.088 C  
HETATM    7  C   UNL     1      -7.146   6.795  67.304  1.00  0.00    -0.080 C  
HETATM    8  C   UNL     1      -6.317   8.108  67.354  1.00  0.00    -0.056 C  
HETATM    9  N   UNL     1      -6.400   5.702  66.647  1.00  0.00    -0.037 NA 
HETATM   10  C   UNL     1      -7.813   8.807  69.443  1.00  0.00    -0.095 C  
HETATM   11  H2  UNL     1      -6.910   4.818  66.655  1.00  0.00     0.000 HD 
HETATM   12  H1  UNL     1      -6.153   6.004  65.705  1.00  0.00     0.000 HD 
HETATM   13  C   UNL     1      -7.042   9.211  68.170  1.00  0.00    -0.078 C  
HETATM   14  H   UNL     1      -6.551  10.903  69.112  1.00  0.00     0.000 HD 
HETATM   15  O   UNL     1      -6.107  10.229  68.612  1.00  0.00    -0.047 OA 
BRANCH   8  16
HETATM   16  O   UNL     1      -6.084   8.562  65.981  1.00  0.00    -0.047 OA 
BRANCH  16  17
HETATM   17  C   UNL     1      -7.289   8.790  65.216  1.00  0.00    -0.085 C  
HETATM   18  H1  UNL     1      -7.787  11.863  66.757  1.00  0.00     0.000 HD 
HETATM   19  O   UNL     1      -8.083   7.596  65.206  1.00  0.00    -0.122 OA 
HETATM   20  C   UNL     1      -9.094   7.519  66.139  1.00  0.00    -0.137 C  
HETATM   21  H2  UNL     1      -6.361  11.174  66.218  1.00  0.00     0.000 HD 
HETATM   22  N   UNL     1      -7.312  10.988  66.533  1.00  0.00    -0.144 NA 
HETATM   23  C   UNL     1      -9.796   8.607  66.480  1.00  0.00    -0.348 C  
HETATM   24  C   UNL     1      -8.018  10.133  65.559  1.00  0.00    -0.146 C  
HETATM   25  C   UNL     1      -9.505   9.935  65.871  1.00  0.00    -0.272 C  
BRANCH  20  26
HETATM   26  C   UNL     1      -9.341   6.115  66.639  1.00  0.00    -0.146 C  
HETATM   27  N   UNL     1     -10.175   5.287  65.771  1.00  0.00    -0.422 NA 
HETATM   28  H2  UNL     1      -9.785   5.261  64.829  1.00  0.00     0.000 HD 
HETATM   29  H1  UNL     1     -10.342   4.339  66.109  1.00  0.00     0.000 HD 
ENDBRANCH  20  26
ENDBRANCH  16  17
ENDBRANCH   8  16
BRANCH  10  30
HETATM   30  O   UNL     1      -8.764   9.837  69.887  1.00  0.00    -0.192 OA 
BRANCH  30  31
HETATM   31  C   UNL     1      -9.951  10.015  69.090  1.00  0.00    -0.204 C  
HETATM   32  O   UNL     1      -9.235  12.316  68.604  1.00  0.00    -0.365 OA 
HETATM   33  C   UNL     1     -12.232  11.049  70.617  1.00  0.00    -0.385 C  
HETATM   34  C   UNL     1     -10.396  11.501  68.836  1.00  0.00    -0.169 C  
HETATM   35  O   UNL     1     -11.008   9.246  69.643  1.00  0.00    -0.234 OA 
HETATM   36  O   UNL     1     -13.344  10.683  69.773  1.00  0.00    -0.349 OA 
HETATM   37  C   UNL     1     -11.336  12.132  69.914  1.00  0.00    -0.031 C  
HETATM   38  H   UNL     1     -13.858  11.463  69.598  1.00  0.00     0.000 HD 
HETATM   39  C   UNL     1     -12.836  11.557  71.928  1.00  0.00    -0.372 C  
HETATM   40  H   UNL     1      -9.505  13.214  68.451  1.00  0.00     0.000 HD 
HETATM   41  C   UNL     1     -11.408   9.799  70.897  1.00  0.00    -0.365 C  
BRANCH  37  42
HETATM   42  N   UNL     1     -12.235  13.196  69.381  1.00  0.00    -0.206 NA 
HETATM   43  H   UNL     1     -13.185  12.965  69.089  1.00  0.00     0.000 HD 
HETATM   44  C   UNL     1     -11.757  14.552  69.278  1.00  0.00    -0.310 C  
ENDBRANCH  37  42
ENDBRANCH  30  31
ENDBRANCH  10  30
ENDBRANCH   3   5
ENDBRANCH   2   3
TORSDOF 8
ENDMDL
MODEL      261
REMARK 921   NORMALIZED FREE ENERGY PREDICTED BY IDOCK:    2.78 KCAL/MOL
REMARK 922        TOTAL FREE ENERGY PREDICTED BY IDOCK:    3.34 KCAL/MOL
REMARK 923 INTER-LIGAND FREE ENERGY PREDICTED BY IDOCK:   -0.71 KCAL/MOL
REMARK 924 INTRA-LIGAND FREE ENERGY PREDICTED BY IDOCK:    4.05 KCAL/MOL
REMARK 927      BINDING AFFINITY PREDICTED BY RF-SCORE:    0.00 PKD
ROOT
HETATM    1  C   UNL     1     -14.186  15.867  71.396  1.00  0.00     0.466 C  
HETATM    2  C   UNL     1     -13.282  14.642  71.376  1.00  0.00    -0.357 C  
ENDROOT
BRANCH   2   3
HETATM    3  N   UNL     1     -11.995  14.972  70.757  1.00  0.00    -0.293 NA 
HETATM    4  H   UNL     1     -11.277  15.072  71.475  1.00  0.00     0.000 HD 
BRANCH   3   5
HETATM    5  C   UNL     1     -11.532  14.030  69.701  1.00  0.00    -0.258 C  
HETATM    6  C   UNL     1     -12.179  12.646  69.860  1.00  0.00    -0.238 C  
HETATM    7  C   UNL     1     -11.745  11.684  68.750  1.00  0.00    -0.330 C  
HETATM    8  C   UNL     1     -10.211  11.442  68.809  1.00  0.00    -0.197 C  
HETATM    9  N   UNL     1     -12.504  10.426  68.904  1.00  0.00    -0.456 NA 
HETATM   10  C   UNL     1      -9.982  13.982  69.574  1.00  0.00     0.475 C  
HETATM   11  H2  UNL     1     -13.513  10.576  68.922  1.00  0.00     0.000 HD 
HETATM   12  H1  UNL     1     -12.215   9.786  68.166  1.00  0.00     0.000 HD 
HETATM   13  C   UNL     1      -9.421  12.777  68.793  1.00  0.00     0.124 C  
HETATM   14  H   UNL     1      -7.595  13.408  69.303  1.00  0.00     0.000 HD 
HETATM   15  O   UNL     1      -8.079  12.591  69.313  1.00  0.00     0.381 OA 
BRANCH   8  16
HETATM   16  O   UNL     1      -9.829  10.609  67.667  1.00  0.00    -0.163 OA 
BRANCH  16  17
HETATM   17  C   UNL     1      -9.007   9.470  68.009  1.00  0.00    -0.123 C  
HETATM   18  H1  UNL     1     -11.028   8.723  70.733  1.00  0.00     0.000 HD 
HETATM   19  O   UNL     1      -7.624   9.836  67.928  1.00  0.00    -0.086 OA 
HETATM   20  C   UNL     1      -7.013  10.203  69.107  1.00  0.00    -0.062 C  
HETATM   21  H2  UNL     1     -11.471   9.228  69.201  1.00  0.00     0.000 HD 
HETATM   22  N   UNL     1     -10.724   9.218  69.895  1.00  0.00    -0.227 NA 
HETATM   23  C   UNL     1      -7.323   9.593  70.259  1.00  0.00    -0.153 C  
HETATM   24  C   UNL     1      -9.474   8.709  69.295  1.00  0.00    -0.158 C  
HETATM   25  C   UNL     1      -8.340   8.506  70.306  1.00  0.00    -0.125 C  
BRANCH  20  26
HETATM   26  C   UNL     1      -5.956  11.268  68.928  1.00  0.00    -0.044 C  
HETATM   27  N   UNL     1      -5.164  11.560  70.121  1.00  0.00    -0.076 NA 
HETATM   28  H2  UNL     1      -4.744  10.705  70.483  1.00  0.00     0.000 HD 
HETATM   29  H1  UNL     1      -4.450  12.279  70.001  1.00  0.00     0.000 HD 
ENDBRANCH  20  26
ENDBRANCH  16  17
ENDBRANCH   8  16
BRANCH  10  30
HETATM   30  O   UNL     1      -9.381  15.260  69.163  1.00  0.00    -0.209 OA 
BRANCH  30  31
HETATM   31  C   UNL     1     -10.229  16.177  68.447  1.00  0.00    -0.240 C  
HETATM   32  O   UNL     1      -8.375  16.623  66.896  1.00  0.00    -0.176 OA 
HETATM   33  C   UNL     1     -10.060  18.933  69.439  1.00  0.00     0.105 C  
HETATM   34  C   UNL     1      -9.496  17.241  67.551  1.00  0.00    -0.245 C  
HETATM   35  O   UNL     1     -11.125  16.798  69.357  1.00  0.00    -0.252 OA 
HETATM   36  O   UNL     1     -11.283  19.506  68.933  1.00  0.00     0.623 OA 
HETATM   37  C   UNL     1      -9.086  18.573  68.259  1.00  0.00    -0.317 C  
HETATM   38  H   UNL     1     -11.067  20.291  68.442  1.00  0.00     0.000 HD 
HETATM   39  C   UNL     1      -9.459  19.970  70.390  1.00  0.00     1.105 C  
HETATM   40  H   UNL     1      -7.932  17.266  66.355  1.00  0.00     0.000 HD 
HETATM   41  C   UNL     1     -10.406  17.675  70.225  1.00  0.00     1.165 C  
BRANCH  37  42
HETATM   42  N   UNL     1      -9.023  19.747  67.342  1.00  0.00    -0.314 NA 
HETATM   43  H   UNL     1      -8.931  20.689  67.722  1.00  0.00     0.000 HD 
HETATM   44  C   UNL     1      -9.094  19.546  65.915  1.00  0.00    -0.052 C  
ENDBRANCH  37  42
ENDBRANCH  30  31
ENDBRANCH  10  30
ENDBRANCH   3   5
ENDBRANCH   2   3
TORSDOF 8
ENDMDL
MODEL      262
REMARK 921   NORMALIZED FREE ENERGY PREDICTED BY IDOCK:    3.61 KCAL/MOL
REMARK 922        TOTAL FREE ENERGY PREDICTED BY IDOCK:    4.56 KCAL/MOL
REMARK 923 INTER-LIGAND FREE ENERGY PREDICTED BY IDOCK:    2.31 KCAL/MOL
REMARK 924 INTRA-LIGAND FREE ENERGY PREDICTED BY IDOCK:    2.26 KCAL/MOL
REMARK 927      BINDING AFFINITY PREDICTED BY RF-SCORE:    0.00 PKD
ROOT
HETATM    1  C   UNL     1     -12.642   4.275  72.924  1.00  0.00     1.056 C  
HETATM    2  C   UNL     1     -11.777   3.828  71.753  1.00  0.00     3.277 C  
ENDROOT
BRANCH   2   3
HETATM    3  N   UNL     1     -11.326   4.991  70.983  1.00  0.00     0.678 NA 
HETATM    4  H   UNL     1     -12.044   5.715  70.992  1.00  0.00     0.000 HD 
BRANCH   3   5
HETATM    5  C   UNL     1     -10.017   5.565  71.399  1.00  0.00    -0.186 C  
HETATM    6  C   UNL     1     -10.202   6.859  72.207  1.00  0.00    -0.207 C  
HETATM    7  C   UNL     1      -8.862   7.432  72.679  1.00  0.00    -0.129 C  
HETATM    8  C   UNL     1      -7.977   7.817  71.463  1.00  0.00    -0.092 C  
HETATM    9  N   UNL     1      -9.137   8.595  73.548  1.00  0.00    -0.084 NA 
HETATM   10  C   UNL     1      -9.018   5.709  70.215  1.00  0.00    -0.139 C  
HETATM   11  H2  UNL     1      -9.762   8.369  74.321  1.00  0.00     0.000 HD 
HETATM   12  H1  UNL     1      -8.245   8.977  73.862  1.00  0.00     0.000 HD 
HETATM   13  C   UNL     1      -7.810   6.630  70.477  1.00  0.00    -0.106 C  
HETATM   14  H   UNL     1      -7.308   6.373  68.561  1.00  0.00     0.000 HD 
HETATM   15  O   UNL     1      -7.410   7.099  69.164  1.00  0.00    -0.087 OA 
BRANCH   8  16
HETATM   16  O   UNL     1      -6.670   8.253  71.961  1.00  0.00    -0.067 OA 
BRANCH  16  17
HETATM   17  C   UNL     1      -5.912   9.052  71.023  1.00  0.00    -0.050 C  
HETATM   18  H1  UNL     1      -4.733  11.085  73.581  1.00  0.00     0.000 HD 
HETATM   19  O   UNL     1      -6.723   9.344  69.878  1.00  0.00    -0.049 OA 
HETATM   20  C   UNL     1      -7.367  10.562  69.874  1.00  0.00    -0.108 C  
HETATM   21  H2  UNL     1      -4.935   9.424  73.564  1.00  0.00     0.000 HD 
HETATM   22  N   UNL     1      -5.235  10.308  73.153  1.00  0.00    -0.323 NA 
HETATM   23  C   UNL     1      -6.780  11.651  70.387  1.00  0.00     0.688 C  
HETATM   24  C   UNL     1      -5.140  10.245  71.681  1.00  0.00    -0.075 C  
HETATM   25  C   UNL     1      -5.418  11.582  70.985  1.00  0.00    -0.063 C  
BRANCH  20  26
HETATM   26  C   UNL     1      -8.712  10.525  69.186  1.00  0.00    -0.147 C  
HETATM   27  N   UNL     1      -9.848  10.250  70.063  1.00  0.00    -0.420 NA 
HETATM   28  H2  UNL     1      -9.866  10.917  70.835  1.00  0.00     0.000 HD 
HETATM   29  H1  UNL     1     -10.757  10.225  69.599  1.00  0.00     0.000 HD 
ENDBRANCH  20  26
ENDBRANCH  16  17
ENDBRANCH   8  16
BRANCH  10  30
HETATM   30  O   UNL     1      -8.637   4.426  69.603  1.00  0.00    -0.071 OA 
BRANCH  30  31
HETATM   31  C   UNL     1      -7.619   4.468  68.585  1.00  0.00    -0.064 C  
HETATM   32  O   UNL     1      -8.889   6.231  67.437  1.00  0.00    -0.109 OA 
HETATM   33  C   UNL     1      -8.135   2.641  66.349  1.00  0.00    -0.083 C  
HETATM   34  C   UNL     1      -8.044   5.091  67.207  1.00  0.00    -0.107 C  
HETATM   35  O   UNL     1      -7.069   3.170  68.418  1.00  0.00    -0.049 OA 
HETATM   36  O   UNL     1      -6.823   2.509  65.765  1.00  0.00    -0.041 OA 
HETATM   37  C   UNL     1      -8.677   4.106  66.171  1.00  0.00    -0.115 C  
HETATM   38  H   UNL     1      -6.883   2.721  64.840  1.00  0.00     0.000 HD 
HETATM   39  C   UNL     1      -9.022   1.606  65.654  1.00  0.00    -0.110 C  
HETATM   40  H   UNL     1      -9.146   6.607  66.604  1.00  0.00     0.000 HD 
HETATM   41  C   UNL     1      -8.039   2.303  67.831  1.00  0.00    -0.059 C  
BRANCH  37  42
HETATM   42  N   UNL     1      -8.462   4.505  64.751  1.00  0.00    -0.126 NA 
HETATM   43  H   UNL     1      -8.536   3.811  64.007  1.00  0.00     0.000 HD 
HETATM   44  C   UNL     1      -8.149   5.877  64.432  1.00  0.00    -0.128 C  
ENDBRANCH  37  42
ENDBRANCH  30  31
ENDBRANCH  10  30
ENDBRANCH   3   5
ENDBRANCH   2   3
TORSDOF 8
ENDMDL
MODEL      263
REMARK 921   NORMALIZED FREE ENERGY PREDICTED BY IDOCK:    3.75 KCAL/MOL
REMARK 922        TOTAL FREE ENERGY PREDICTED BY IDOCK:    4.76 KCAL/MOL
REMARK 923 INTER-LIGAND FREE ENERGY PREDICTED BY IDOCK:   -4.03 KCAL/MOL
REMARK 924 INTRA-LIGAND FREE ENERGY PREDICTED BY IDOCK:    8.80 KCAL/MOL
REMARK 927      BINDING AFFINITY PREDICTED BY RF-SCORE:    0.00 PKD
ROOT
HETATM    1  C   UNL     1      -5.722  12.372  70.552  1.00  0.00    -0.162 C  
HETATM    2  C   UNL     1      -5.419  13.809  70.152  1.00  0.00    -0.110 C  
ENDROOT
BRANCH   2   3
HETATM    3  N   UNL     1      -5.753  14.024  68.741  1.00  0.00    -0.082 NA 
HETATM    4  H   UNL     1      -5.812  13.129  68.256  1.00  0.00     0.000 HD 
BRANCH   3   5
HETATM    5  C   UNL     1      -6.984  14.823  68.490  1.00  0.00    -0.108 C  
HETATM    6  C   UNL     1      -7.040  16.067  69.389  1.00  0.00    -0.217 C  
HETATM    7  C   UNL     1      -8.280  16.920  69.104  1.00  0.00    -0.066 C  
HETATM    8  C   UNL     1      -9.574  16.119  69.412  1.00  0.00    -0.208 C  
HETATM    9  N   UNL     1      -8.192  18.151  69.916  1.00  0.00     1.262 NA 
HETATM   10  C   UNL     1      -8.280  13.964  68.535  1.00  0.00    -0.131 C  
HETATM   11  H2  UNL     1      -7.321  18.661  69.764  1.00  0.00     0.000 HD 
HETATM   12  H1  UNL     1      -9.017  18.719  69.726  1.00  0.00     0.000 HD 
HETATM   13  C   UNL     1      -9.595  14.758  68.667  1.00  0.00    -0.218 C  
HETATM   14  H   UNL     1     -10.535  13.003  68.840  1.00  0.00     0.000 HD 
HETATM   15  O   UNL     1     -10.522  13.836  69.296  1.00  0.00    -0.096 OA 
BRANCH   8  16
HETATM   16  O   UNL     1     -10.727  16.932  69.020  1.00  0.00    -0.328 OA 
BRANCH  16  17
HETATM   17  C   UNL     1     -10.758  17.284  67.618  1.00  0.00    -0.307 C  
HETATM   18  H1  UNL     1     -11.415  13.994  66.718  1.00  0.00     0.000 HD 
HETATM   19  O   UNL     1      -9.653  18.146  67.317  1.00  0.00    -0.272 OA 
HETATM   20  C   UNL     1      -8.528  17.546  66.793  1.00  0.00    -0.250 C  
HETATM   21  H2  UNL     1     -12.030  14.879  67.998  1.00  0.00     0.000 HD 
HETATM   22  N   UNL     1     -11.255  14.785  67.342  1.00  0.00    -0.328 NA 
HETATM   23  C   UNL     1      -8.632  16.518  65.942  1.00  0.00    -0.075 C  
HETATM   24  C   UNL     1     -11.003  16.070  66.660  1.00  0.00    -0.092 C  
HETATM   25  C   UNL     1      -9.963  15.983  65.539  1.00  0.00    -0.282 C  
BRANCH  20  26
HETATM   26  C   UNL     1      -7.241  18.212  67.221  1.00  0.00    -0.198 C  
HETATM   27  N   UNL     1      -6.097  17.967  66.346  1.00  0.00    -0.171 NA 
HETATM   28  H2  UNL     1      -6.325  18.227  65.387  1.00  0.00     0.000 HD 
HETATM   29  H1  UNL     1      -5.227  18.416  66.634  1.00  0.00     0.000 HD 
ENDBRANCH  20  26
ENDBRANCH  16  17
ENDBRANCH   8  16
BRANCH  10  30
HETATM   30  O   UNL     1      -8.340  12.927  67.493  1.00  0.00    -0.160 OA 
BRANCH  30  31
HETATM   31  C   UNL     1      -8.681  11.594  67.920  1.00  0.00    -0.154 C  
HETATM   32  O   UNL     1      -6.293  11.014  67.900  1.00  0.00    -0.056 OA 
HETATM   33  C   UNL     1      -9.148   9.744  65.691  1.00  0.00    -0.178 C  
HETATM   34  C   UNL     1      -7.605  10.483  67.645  1.00  0.00    -0.093 C  
HETATM   35  O   UNL     1      -9.943  11.237  67.377  1.00  0.00    -0.180 OA 
HETATM   36  O   UNL     1      -9.911   8.699  66.329  1.00  0.00    -0.286 OA 
HETATM   37  C   UNL     1      -7.680   9.780  66.251  1.00  0.00    -0.103 C  
HETATM   38  H   UNL     1      -9.482   7.868  66.160  1.00  0.00     0.000 HD 
HETATM   39  C   UNL     1      -9.189   9.453  64.190  1.00  0.00    -0.042 C  
HETATM   40  H   UNL     1      -5.643  10.342  67.734  1.00  0.00     0.000 HD 
HETATM   41  C   UNL     1      -9.836  11.076  65.962  1.00  0.00    -0.229 C  
BRANCH  37  42
HETATM   42  N   UNL     1      -7.155   8.384  66.252  1.00  0.00    -0.076 NA 
HETATM   43  H   UNL     1      -7.675   7.642  66.721  1.00  0.00     0.000 HD 
HETATM   44  C   UNL     1      -5.910   8.086  65.589  1.00  0.00    -0.037 C  
ENDBRANCH  37  42
ENDBRANCH  30  31
ENDBRANCH  10  30
ENDBRANCH   3   5
ENDBRANCH   2   3
TORSDOF 8
ENDMDL
MODEL      264
REMARK 921   NORMALIZED FREE ENERGY PREDICTED BY IDOCK:    3.82 KCAL/MOL
REMARK 922        TOTAL FREE ENERGY PREDICTED BY IDOCK:    4.87 KCAL/MOL
REMARK 923 INTER-LIGAND FREE ENERGY PREDICTED BY IDOCK:   -3.00 KCAL/MOL
REMARK 924 INTRA-LIGAND FREE ENERGY PREDICTED BY IDOCK:    7.87 KCAL/MOL
REMARK 927      BINDING AFFINITY PREDICTED BY RF-SCORE:    0.00 PKD
ROOT
HETATM    1  C   UNL     1      -8.752  19.396  66.211  1.00  0.00    -0.364 C  
HETATM    2  C   UNL     1      -9.055  18.095  65.481  1.00  0.00     1.054 C  
ENDROOT
BRANCH   2   3
HETATM    3  N   UNL     1      -8.163  17.031  65.951  1.00  0.00    -0.492 NA 
HETATM    4  H   UNL     1      -7.420  17.427  66.526  1.00  0.00     0.000 HD 
BRANCH   3   5
HETATM    5  C   UNL     1      -8.827  15.912  66.675  1.00  0.00    -0.281 C  
HETATM    6  C   UNL     1      -8.070  14.589  66.482  1.00  0.00     0.537 C  
HETATM    7  C   UNL     1      -8.720  13.443  67.262  1.00  0.00    -0.218 C  
HETATM    8  C   UNL     1     -10.162  13.182  66.746  1.00  0.00    -0.252 C  
HETATM    9  N   UNL     1      -7.865  12.246  67.124  1.00  0.00    -0.239 NA 
HETATM   10  C   UNL     1     -10.348  15.810  66.362  1.00  0.00    -0.299 C  
HETATM   11  H2  UNL     1      -6.900  12.418  67.409  1.00  0.00     0.000 HD 
HETATM   12  H1  UNL     1      -8.297  11.483  67.644  1.00  0.00     0.000 HD 
HETATM   13  C   UNL     1     -11.016  14.478  66.757  1.00  0.00    -0.316 C  
HETATM   14  H   UNL     1     -12.677  15.149  65.872  1.00  0.00     0.000 HD 
HETATM   15  O   UNL     1     -12.154  14.356  65.865  1.00  0.00    -0.384 OA 
BRANCH   8  16
HETATM   16  O   UNL     1     -10.779  12.159  67.592  1.00  0.00    -0.210 OA 
BRANCH  16  17
HETATM   17  C   UNL     1     -11.106  10.932  66.900  1.00  0.00    -0.167 C  
HETATM   18  H1  UNL     1      -8.499   9.254  68.467  1.00  0.00     0.000 HD 
HETATM   19  O   UNL     1     -11.354  11.214  65.517  1.00  0.00    -0.012 OA 
HETATM   20  C   UNL     1     -10.301  11.025  64.650  1.00  0.00    -0.345 C  
HETATM   21  H2  UNL     1      -9.568  10.372  69.107  1.00  0.00     0.000 HD 
HETATM   22  N   UNL     1      -9.125  10.031  68.254  1.00  0.00    -0.122 NA 
HETATM   23  C   UNL     1      -9.439  10.015  64.827  1.00  0.00    -0.366 C  
HETATM   24  C   UNL     1     -10.145   9.739  67.228  1.00  0.00    -0.207 C  
HETATM   25  C   UNL     1      -9.584   9.070  65.969  1.00  0.00    -0.342 C  
BRANCH  20  26
HETATM   26  C   UNL     1     -10.291  12.002  63.497  1.00  0.00    -0.461 C  
HETATM   27  N   UNL     1     -11.526  12.764  63.322  1.00  0.00    -0.782 NA 
HETATM   28  H2  UNL     1     -11.769  13.244  64.189  1.00  0.00     0.000 HD 
HETATM   29  H1  UNL     1     -11.519  13.424  62.544  1.00  0.00     0.000 HD 
ENDBRANCH  20  26
ENDBRANCH  16  17
ENDBRANCH   8  16
BRANCH  10  30
HETATM   30  O   UNL     1     -11.121  16.986  66.789  1.00  0.00     0.061 OA 
BRANCH  30  31
HETATM   31  C   UNL     1     -11.063  17.331  68.187  1.00  0.00    -0.070 C  
HETATM   32  O   UNL     1      -8.637  16.941  68.145  1.00  0.00    -0.208 OA 
HETATM   33  C   UNL     1     -11.401  15.024  69.967  1.00  0.00    -0.273 C  
HETATM   34  C   UNL     1      -9.804  16.815  68.974  1.00  0.00    -0.260 C  
HETATM   35  O   UNL     1     -12.268  16.929  68.820  1.00  0.00     0.722 OA 
HETATM   36  O   UNL     1     -11.784  15.658  71.205  1.00  0.00    -0.335 OA 
HETATM   37  C   UNL     1      -9.918  15.385  69.595  1.00  0.00    -0.264 C  
HETATM   38  H   UNL     1     -11.198  15.359  71.891  1.00  0.00     0.000 HD 
HETATM   39  C   UNL     1     -11.597  13.521  70.175  1.00  0.00    -0.190 C  
HETATM   40  H   UNL     1      -7.876  16.630  68.622  1.00  0.00     0.000 HD 
HETATM   41  C   UNL     1     -12.340  15.504  68.869  1.00  0.00     0.086 C  
BRANCH  37  42
HETATM   42  N   UNL     1      -9.078  15.189  70.812  1.00  0.00     0.864 NA 
HETATM   43  H   UNL     1      -9.506  15.207  71.737  1.00  0.00     0.000 HD 
HETATM   44  C   UNL     1      -7.659  14.973  70.675  1.00  0.00     1.133 C  
ENDBRANCH  37  42
ENDBRANCH  30  31
ENDBRANCH  10  30
ENDBRANCH   3   5
ENDBRANCH   2   3
TORSDOF 8
ENDMDL
MODEL      265
REMARK 921   NORMALIZED FREE ENERGY PREDICTED BY IDOCK:    4.09 KCAL/MOL
REMARK 922        TOTAL FREE ENERGY PREDICTED BY IDOCK:    5.27 KCAL/MOL
REMARK 923 INTER-LIGAND FREE ENERGY PREDICTED BY IDOCK:    0.52 KCAL/MOL
REMARK 924 INTRA-LIGAND FREE ENERGY PREDICTED BY IDOCK:    4.74 KCAL/MOL
REMARK 927      BINDING AFFINITY PREDICTED BY RF-SCORE:    0.00 PKD
ROOT
HETATM    1  C   UNL     1     -11.527   9.274  65.773  1.00  0.00     4.286 C  
HETATM    2  C   UNL     1     -10.829   9.137  67.120  1.00  0.00    -0.024 C  
ENDROOT
BRANCH   2   3
HETATM    3  N   UNL     1      -9.442   9.601  67.021  1.00  0.00    -0.150 NA 
HETATM    4  H   UNL     1      -9.218   9.830  66.053  1.00  0.00     0.000 HD 
BRANCH   3   5
HETATM    5  C   UNL     1      -9.084  10.740  67.911  1.00  0.00    -0.150 C  
HETATM    6  C   UNL     1     -10.179  11.817  67.914  1.00  0.00    -0.203 C  
HETATM    7  C   UNL     1      -9.841  12.971  68.862  1.00  0.00     0.147 C  
HETATM    8  C   UNL     1      -8.543  13.691  68.401  1.00  0.00    -0.151 C  
HETATM    9  N   UNL     1     -10.994  13.893  68.900  1.00  0.00    -0.258 NA 
HETATM   10  C   UNL     1      -7.661  11.301  67.627  1.00  0.00    -0.106 C  
HETATM   11  H2  UNL     1     -11.865  13.423  69.149  1.00  0.00     0.000 HD 
HETATM   12  H1  UNL     1     -10.769  14.661  69.532  1.00  0.00     0.000 HD 
HETATM   13  C   UNL     1      -7.368  12.693  68.223  1.00  0.00    -0.116 C  
HETATM   14  H   UNL     1      -5.619  12.642  67.258  1.00  0.00     0.000 HD 
HETATM   15  O   UNL     1      -6.338  13.253  67.368  1.00  0.00    -0.249 OA 
BRANCH   8  16
HETATM   16  O   UNL     1      -8.200  14.709  69.396  1.00  0.00    -0.071 OA 
BRANCH  16  17
HETATM   17  C   UNL     1      -8.473  16.066  68.978  1.00  0.00    -0.244 C  
HETATM   18  H1  UNL     1     -11.386  16.151  70.869  1.00  0.00     0.000 HD 
HETATM   19  O   UNL     1      -8.257  16.185  67.567  1.00  0.00    -0.143 OA 
HETATM   20  C   UNL     1      -9.369  16.072  66.761  1.00  0.00    -0.238 C  
HETATM   21  H2  UNL     1      -9.898  15.491  71.256  1.00  0.00     0.000 HD 
HETATM   22  N   UNL     1     -10.517  15.768  70.495  1.00  0.00    -0.170 NA 
HETATM   23  C   UNL     1     -10.551  16.568  67.149  1.00  0.00    -0.270 C  
HETATM   24  C   UNL     1      -9.806  16.654  69.552  1.00  0.00    -0.038 C  
HETATM   25  C   UNL     1     -10.706  17.250  68.464  1.00  0.00    -0.305 C  
BRANCH  20  26
HETATM   26  C   UNL     1      -9.079  15.422  65.428  1.00  0.00     0.662 C  
HETATM   27  N   UNL     1     -10.173  14.626  64.876  1.00  0.00    -0.454 NA 
HETATM   28  H2  UNL     1     -11.022  15.188  64.816  1.00  0.00     0.000 HD 
HETATM   29  H1  UNL     1      -9.978  14.186  63.977  1.00  0.00     0.000 HD 
ENDBRANCH  20  26
ENDBRANCH  16  17
ENDBRANCH   8  16
BRANCH  10  30
HETATM   30  O   UNL     1      -6.582  10.333  67.878  1.00  0.00    -0.061 OA 
BRANCH  30  31
HETATM   31  C   UNL     1      -6.184  10.143  69.249  1.00  0.00    -0.044 C  
HETATM   32  O   UNL     1      -5.207   7.975  68.627  1.00  0.00    -0.026 OA 
HETATM   33  C   UNL     1      -8.208   8.765  70.866  1.00  0.00    -0.161 C  
HETATM   34  C   UNL     1      -5.896   8.661  69.686  1.00  0.00    -0.029 C  
HETATM   35  O   UNL     1      -7.136  10.758  70.104  1.00  0.00    -0.173 OA 
HETATM   36  O   UNL     1      -7.813   9.125  72.205  1.00  0.00    -0.298 OA 
HETATM   37  C   UNL     1      -7.126   7.842  70.197  1.00  0.00    -0.050 C  
HETATM   38  H   UNL     1      -7.711   8.328  72.713  1.00  0.00     0.000 HD 
HETATM   39  C   UNL     1      -9.566   8.071  70.989  1.00  0.00    -0.184 C  
HETATM   40  H   UNL     1      -5.034   7.080  68.891  1.00  0.00     0.000 HD 
HETATM   41  C   UNL     1      -8.371  10.042  70.052  1.00  0.00    -0.111 C  
BRANCH  37  42
HETATM   42  N   UNL     1      -6.772   6.770  71.172  1.00  0.00    -0.056 NA 
HETATM   43  H   UNL     1      -6.972   5.794  70.954  1.00  0.00     0.000 HD 
HETATM   44  C   UNL     1      -6.146   7.119  72.423  1.00  0.00    -0.041 C  
ENDBRANCH  37  42
ENDBRANCH  30  31
ENDBRANCH  10  30
ENDBRANCH   3   5
ENDBRANCH   2   3
TORSDOF 8
ENDMDL
MODEL      266
REMARK 921   NORMALIZED FREE ENERGY PREDICTED BY IDOCK:    4.72 KCAL/MOL
REMARK 922        TOTAL FREE ENERGY PREDICTED BY IDOCK:    6.18 KCAL/MOL
REMARK 923 INTER-LIGAND FREE ENERGY PREDICTED BY IDOCK:   -3.42 KCAL/MOL
REMARK 924 INTRA-LIGAND FREE ENERGY PREDICTED BY IDOCK:    9.60 KCAL/MOL
REMARK 927      BINDING AFFINITY PREDICTED BY RF-SCORE:    0.00 PKD
ROOT
HETATM    1  C   UNL     1      -9.770   5.202  64.730  1.00  0.00     0.367 C  
HETATM    2  C   UNL     1      -8.450   4.458  64.582  1.00  0.00    -0.125 C  
ENDROOT
BRANCH   2   3
HETATM    3  N   UNL     1      -7.325   5.388  64.717  1.00  0.00    -0.065 NA 
HETATM    4  H   UNL     1      -7.045   5.734  63.799  1.00  0.00     0.000 HD 
BRANCH   3   5
HETATM    5  C   UNL     1      -7.549   6.531  65.646  1.00  0.00    -0.086 C  
HETATM    6  C   UNL     1      -8.640   7.476  65.121  1.00  0.00     0.021 C  
HETATM    7  C   UNL     1      -8.909   8.629  66.093  1.00  0.00    -0.171 C  
HETATM    8  C   UNL     1      -7.638   9.506  66.263  1.00  0.00    -0.097 C  
HETATM    9  N   UNL     1     -10.050   9.413  65.577  1.00  0.00    -0.350 NA 
HETATM   10  C   UNL     1      -6.229   7.258  66.034  1.00  0.00    -0.041 C  
HETATM   11  H2  UNL     1     -10.877   8.840  65.408  1.00  0.00     0.000 HD 
HETATM   12  H1  UNL     1     -10.230  10.180  66.223  1.00  0.00     0.000 HD 
HETATM   13  C   UNL     1      -6.405   8.654  66.666  1.00  0.00    -0.059 C  
HETATM   14  H   UNL     1      -4.416   8.833  66.613  1.00  0.00     0.000 HD 
HETATM   15  O   UNL     1      -5.171   9.354  66.366  1.00  0.00    -0.042 OA 
BRANCH   8  16
HETATM   16  O   UNL     1      -7.909  10.523  67.281  1.00  0.00    -0.105 OA 
BRANCH  16  17
HETATM   17  C   UNL     1      -7.687  11.882  66.839  1.00  0.00    -0.106 C  
HETATM   18  H1  UNL     1      -4.901  12.183  68.892  1.00  0.00     0.000 HD 
HETATM   19  O   UNL     1      -8.932  12.590  66.824  1.00  0.00    -0.209 OA 
HETATM   20  C   UNL     1      -9.220  13.356  67.932  1.00  0.00    -0.216 C  
HETATM   21  H2  UNL     1      -5.386  10.881  67.959  1.00  0.00     0.000 HD 
HETATM   22  N   UNL     1      -5.694  11.725  68.443  1.00  0.00    -0.049 NA 
HETATM   23  C   UNL     1      -8.252  14.021  68.576  1.00  0.00    -0.136 C  
HETATM   24  C   UNL     1      -6.470  12.586  67.529  1.00  0.00    -0.153 C  
HETATM   25  C   UNL     1      -6.836  13.950  68.123  1.00  0.00    -0.122 C  
BRANCH  20  26
HETATM   26  C   UNL     1     -10.695  13.406  68.259  1.00  0.00    -0.258 C  
HETATM   27  N   UNL     1     -11.009  13.654  69.665  1.00  0.00    -0.461 NA 
HETATM   28  H2  UNL     1     -10.549  14.507  69.982  1.00  0.00     0.000 HD 
HETATM   29  H1  UNL     1     -12.004  13.688  69.886  1.00  0.00     0.000 HD 
ENDBRANCH  20  26
ENDBRANCH  16  17
ENDBRANCH   8  16
BRANCH  10  30
HETATM   30  O   UNL     1      -5.281   6.411  66.774  1.00  0.00    -0.011 OA 
BRANCH  30  31
HETATM   31  C   UNL     1      -5.693   5.959  68.078  1.00  0.00    -0.012 C  
HETATM   32  O   UNL     1      -7.155   4.302  67.004  1.00  0.00    -0.065 OA 
HETATM   33  C   UNL     1      -8.051   7.370  69.106  1.00  0.00    -0.120 C  
HETATM   34  C   UNL     1      -7.053   5.175  68.141  1.00  0.00    -0.062 C  
HETATM   35  O   UNL     1      -5.688   7.057  68.978  1.00  0.00    -0.017 OA 
HETATM   36  O   UNL     1      -7.958   7.111  70.522  1.00  0.00    -0.102 OA 
HETATM   37  C   UNL     1      -8.342   6.042  68.317  1.00  0.00    -0.113 C  
HETATM   38  H   UNL     1      -8.781   6.736  70.814  1.00  0.00     0.000 HD 
HETATM   39  C   UNL     1      -9.164   8.405  68.930  1.00  0.00    -0.147 C  
HETATM   40  H   UNL     1      -7.977   3.828  67.042  1.00  0.00     0.000 HD 
HETATM   41  C   UNL     1      -6.731   7.970  68.638  1.00  0.00    -0.062 C  
BRANCH  37  42
HETATM   42  N   UNL     1      -9.456   5.332  69.009  1.00  0.00    -0.126 NA 
HETATM   43  H   UNL     1      -9.252   4.650  69.740  1.00  0.00     0.000 HD 
HETATM   44  C   UNL     1     -10.822   5.612  68.640  1.00  0.00    -0.120 C  
ENDBRANCH  37  42
ENDBRANCH  30  31
ENDBRANCH  10  30
ENDBRANCH   3   5
ENDBRANCH   2   3
TORSDOF 8
ENDMDL
MODEL      267
REMARK 921   NORMALIZED FREE ENERGY PREDICTED BY IDOCK:    4.76 KCAL/MOL
REMARK 922        TOTAL FREE ENERGY PREDICTED BY IDOCK:    6.25 KCAL/MOL
REMARK 923 INTER-LIGAND FREE ENERGY PREDICTED BY IDOCK:   -3.37 KCAL/MOL
REMARK 924 INTRA-LIGAND FREE ENERGY PREDICTED BY IDOCK:    9.62 KCAL/MOL
REMARK 927      BINDING AFFINITY PREDICTED BY RF-SCORE:    0.00 PKD
ROOT
HETATM    1  C   UNL     1     -11.056   5.260  68.386  1.00  0.00     0.718 C  
HETATM    2  C   UNL     1     -10.231   5.186  69.664  1.00  0.00    -0.267 C  
ENDROOT
BRANCH   2   3
HETATM    3  N   UNL     1      -8.883   5.709  69.427  1.00  0.00    -0.111 NA 
HETATM    4  H   UNL     1      -8.260   5.426  70.184  1.00  0.00     0.000 HD 
BRANCH   3   5
HETATM    5  C   UNL     1      -8.280   5.356  68.112  1.00  0.00    -0.099 C  
HETATM    6  C   UNL     1      -7.735   3.920  68.110  1.00  0.00    -0.066 C  
HETATM    7  C   UNL     1      -7.156   3.532  66.747  1.00  0.00    -0.059 C  
HETATM    8  C   UNL     1      -5.948   4.442  66.390  1.00  0.00    -0.027 C  
HETATM    9  N   UNL     1      -6.773   2.106  66.795  1.00  0.00    -0.038 NA 
HETATM   10  C   UNL     1      -7.251   6.413  67.618  1.00  0.00    -0.086 C  
HETATM   11  H2  UNL     1      -7.543   1.502  67.081  1.00  0.00     0.000 HD 
HETATM   12  H1  UNL     1      -6.387   1.848  65.887  1.00  0.00     0.000 HD 
HETATM   13  C   UNL     1      -6.319   5.946  66.482  1.00  0.00    -0.038 C  
HETATM   14  H   UNL     1      -5.355   7.686  66.675  1.00  0.00     0.000 HD 
HETATM   15  O   UNL     1      -5.129   6.765  66.619  1.00  0.00    -0.015 OA 
BRANCH   8  16
HETATM   16  O   UNL     1      -5.502   4.109  65.036  1.00  0.00    -0.012 OA 
BRANCH  16  17
HETATM   17  C   UNL     1      -6.520   4.257  64.019  1.00  0.00    -0.041 C  
HETATM   18  H1  UNL     1      -6.325   7.720  64.210  1.00  0.00     0.000 HD 
HETATM   19  O   UNL     1      -7.599   3.353  64.288  1.00  0.00    -0.073 OA 
HETATM   20  C   UNL     1      -8.681   3.869  64.967  1.00  0.00    -0.116 C  
HETATM   21  H2  UNL     1      -5.090   6.592  64.249  1.00  0.00     0.000 HD 
HETATM   22  N   UNL     1      -6.083   6.751  64.418  1.00  0.00    -0.035 NA 
HETATM   23  C   UNL     1      -9.096   5.123  64.745  1.00  0.00    -0.006 C  
HETATM   24  C   UNL     1      -6.891   5.745  63.701  1.00  0.00    -0.041 C  
HETATM   25  C   UNL     1      -8.400   6.003  63.765  1.00  0.00     0.044 C  
BRANCH  20  26
HETATM   26  C   UNL     1      -9.345   2.868  65.884  1.00  0.00    -0.051 C  
HETATM   27  N   UNL     1      -9.735   1.611  65.248  1.00  0.00    -0.323 NA 
HETATM   28  H2  UNL     1      -8.932   1.186  64.786  1.00  0.00     0.000 HD 
HETATM   29  H1  UNL     1     -10.183   0.935  65.867  1.00  0.00     0.000 HD 
ENDBRANCH  20  26
ENDBRANCH  16  17
ENDBRANCH   8  16
BRANCH  10  30
HETATM   30  O   UNL     1      -7.837   7.739  67.368  1.00  0.00    -0.113 OA 
BRANCH  30  31
HETATM   31  C   UNL     1      -9.265   7.797  67.189  1.00  0.00    -0.146 C  
HETATM   32  O   UNL     1      -8.910   8.400  64.834  1.00  0.00    -0.394 OA 
HETATM   33  C   UNL     1     -10.393  10.457  67.699  1.00  0.00    -0.219 C  
HETATM   34  C   UNL     1      -9.774   8.631  65.959  1.00  0.00    -0.168 C  
HETATM   35  O   UNL     1      -9.872   8.234  68.396  1.00  0.00    -0.162 OA 
HETATM   36  O   UNL     1     -11.783  10.149  67.932  1.00  0.00    -0.646 OA 
HETATM   37  C   UNL     1     -10.001  10.157  66.207  1.00  0.00    -0.242 C  
HETATM   38  H   UNL     1     -12.311  10.682  67.347  1.00  0.00     0.000 HD 
HETATM   39  C   UNL     1     -10.211  11.932  68.061  1.00  0.00    -0.199 C  
HETATM   40  H   UNL     1      -9.218   8.904  64.090  1.00  0.00     0.000 HD 
HETATM   41  C   UNL     1      -9.547   9.604  68.635  1.00  0.00    -0.150 C  
BRANCH  37  42
HETATM   42  N   UNL     1     -11.044  10.761  65.328  1.00  0.00     0.122 NA 
HETATM   43  H   UNL     1     -11.992  10.384  65.325  1.00  0.00     0.000 HD 
HETATM   44  C   UNL     1     -10.708  11.881  64.483  1.00  0.00    -0.312 C  
ENDBRANCH  37  42
ENDBRANCH  30  31
ENDBRANCH  10  30
ENDBRANCH   3   5
ENDBRANCH   2   3
TORSDOF 8
ENDMDL
MODEL      268
REMARK 921   NORMALIZED FREE ENERGY PREDICTED BY IDOCK:    5.17 KCAL/MOL
REMARK 922        TOTAL FREE ENERGY PREDICTED BY IDOCK:    6.85 KCAL/MOL
REMARK 923 INTER-LIGAND FREE ENERGY PREDICTED BY IDOCK:   -3.13 KCAL/MOL
REMARK 924 INTRA-LIGAND FREE ENERGY PREDICTED BY IDOCK:    9.97 KCAL/MOL
REMARK 927      BINDING AFFINITY PREDICTED BY RF-SCORE:    0.00 PKD
ROOT
HETATM    1  C   UNL     1     -11.714   5.787  69.244  1.00  0.00     1.275 C  
HETATM    2  C   UNL     1     -11.314   5.668  70.709  1.00  0.00     0.106 C  
ENDROOT
BRANCH   2   3
HETATM    3  N   UNL     1     -10.033   6.342  70.941  1.00  0.00    -0.184 NA 
HETATM    4  H   UNL     1      -9.669   6.092  71.860  1.00  0.00     0.000 HD 
BRANCH   3   5
HETATM    5  C   UNL     1      -8.992   6.112  69.901  1.00  0.00    -0.139 C  
HETATM    6  C   UNL     1      -8.370   4.714  70.027  1.00  0.00    -0.075 C  
HETATM    7  C   UNL     1      -7.331   4.452  68.932  1.00  0.00    -0.056 C  
HETATM    8  C   UNL     1      -6.149   5.452  69.054  1.00  0.00    -0.025 C  
HETATM    9  N   UNL     1      -6.878   3.050  69.050  1.00  0.00    -0.040 NA 
HETATM   10  C   UNL     1      -7.941   7.258  69.839  1.00  0.00    -0.122 C  
HETATM   11  H2  UNL     1      -7.651   2.384  69.026  1.00  0.00     0.000 HD 
HETATM   12  H1  UNL     1      -6.187   2.876  68.321  1.00  0.00     0.000 HD 
HETATM   13  C   UNL     1      -6.643   6.922  69.076  1.00  0.00    -0.048 C  
HETATM   14  H   UNL     1      -5.942   8.698  69.665  1.00  0.00     0.000 HD 
HETATM   15  O   UNL     1      -5.640   7.798  69.651  1.00  0.00    -0.023 OA 
BRANCH   8  16
HETATM   16  O   UNL     1      -5.241   5.236  67.925  1.00  0.00    -0.003 OA 
BRANCH  16  17
HETATM   17  C   UNL     1      -5.881   5.286  66.629  1.00  0.00    -0.018 C  
HETATM   18  H1  UNL     1      -6.479   8.691  66.960  1.00  0.00     0.000 HD 
HETATM   19  O   UNL     1      -6.778   4.176  66.496  1.00  0.00    -0.048 OA 
HETATM   20  C   UNL     1      -8.104   4.415  66.783  1.00  0.00    -0.102 C  
HETATM   21  H2  UNL     1      -5.118   7.815  67.385  1.00  0.00     0.000 HD 
HETATM   22  N   UNL     1      -6.123   7.769  67.213  1.00  0.00    -0.048 NA 
HETATM   23  C   UNL     1      -8.674   5.585  66.465  1.00  0.00    -0.119 C  
HETATM   24  C   UNL     1      -6.428   6.701  66.242  1.00  0.00    -0.043 C  
HETATM   25  C   UNL     1      -7.895   6.666  65.800  1.00  0.00    -0.105 C  
BRANCH  20  26
HETATM   26  C   UNL     1      -8.807   3.228  67.397  1.00  0.00    -0.134 C  
HETATM   27  N   UNL     1      -8.653   1.971  66.667  1.00  0.00    -0.105 NA 
HETATM   28  H2  UNL     1      -7.664   1.762  66.531  1.00  0.00     0.000 HD 
HETATM   29  H1  UNL     1      -9.128   1.169  67.082  1.00  0.00     0.000 HD 
ENDBRANCH  20  26
ENDBRANCH  16  17
ENDBRANCH   8  16
BRANCH  10  30
HETATM   30  O   UNL     1      -8.507   8.561  69.459  1.00  0.00    -0.123 OA 
BRANCH  30  31
HETATM   31  C   UNL     1      -9.784   8.547  68.793  1.00  0.00    -0.164 C  
HETATM   32  O   UNL     1      -8.706   9.457  66.781  1.00  0.00    -0.126 OA 
HETATM   33  C   UNL     1     -11.289  11.045  69.114  1.00  0.00    -0.280 C  
HETATM   34  C   UNL     1      -9.923   9.491  67.544  1.00  0.00    -0.186 C  
HETATM   35  O   UNL     1     -10.811   8.793  69.742  1.00  0.00    -0.235 OA 
HETATM   36  O   UNL     1     -12.634  10.622  68.811  1.00  0.00    -0.733 OA 
HETATM   37  C   UNL     1     -10.379  10.957  67.836  1.00  0.00    -0.187 C  
HETATM   38  H   UNL     1     -12.981  11.186  68.130  1.00  0.00     0.000 HD 
HETATM   39  C   UNL     1     -11.397  12.474  69.651  1.00  0.00    -0.182 C  
HETATM   40  H   UNL     1      -8.790  10.027  66.026  1.00  0.00     0.000 HD 
HETATM   41  C   UNL     1     -10.733  10.141  70.206  1.00  0.00    -0.293 C  
BRANCH  37  42
HETATM   42  N   UNL     1     -11.113  11.595  66.705  1.00  0.00    -0.298 NA 
HETATM   43  H   UNL     1     -11.958  11.161  66.334  1.00  0.00     0.000 HD 
HETATM   44  C   UNL     1     -10.624  12.828  66.138  1.00  0.00    -0.266 C  
ENDBRANCH  37  42
ENDBRANCH  30  31
ENDBRANCH  10  30
ENDBRANCH   3   5
ENDBRANCH   2   3
TORSDOF 8
ENDMDL
MODEL      269
REMARK 921   NORMALIZED FREE ENERGY PREDICTED BY IDOCK:    5.24 KCAL/MOL
REMARK 922        TOTAL FREE ENERGY PREDICTED BY IDOCK:    6.96 KCAL/MOL
REMARK 923 INTER-LIGAND FREE ENERGY PREDICTED BY IDOCK:   -4.53 KCAL/MOL
REMARK 924 INTRA-LIGAND FREE ENERGY PREDICTED BY IDOCK:   11.48 KCAL/MOL
REMARK 927      BINDING AFFINITY PREDICTED BY RF-SCORE:    0.00 PKD
ROOT
HETATM    1  C   UNL     1      -5.644  12.587  70.684  1.00  0.00    -0.175 C  
HETATM    2  C   UNL     1      -6.880  13.327  70.189  1.00  0.00     0.545 C  
ENDROOT
BRANCH   2   3
HETATM    3  N   UNL     1      -7.088  13.066  68.761  1.00  0.00    -0.103 NA 
HETATM    4  H   UNL     1      -6.811  12.110  68.537  1.00  0.00     0.000 HD 
BRANCH   3   5
HETATM    5  C   UNL     1      -8.465  13.329  68.257  1.00  0.00    -0.160 C  
HETATM    6  C   UNL     1      -9.005  14.671  68.774  1.00  0.00    -0.173 C  
HETATM    7  C   UNL     1     -10.402  14.973  68.222  1.00  0.00    -0.236 C  
HETATM    8  C   UNL     1     -11.418  13.898  68.697  1.00  0.00    -0.298 C  
HETATM    9  N   UNL     1     -10.791  16.328  68.663  1.00  0.00    -0.303 NA 
HETATM   10  C   UNL     1      -9.433  12.135  68.496  1.00  0.00    -0.122 C  
HETATM   11  H2  UNL     1     -10.105  17.037  68.405  1.00  0.00     0.000 HD 
HETATM   12  H1  UNL     1     -11.721  16.529  68.296  1.00  0.00     0.000 HD 
HETATM   13  C   UNL     1     -10.933  12.463  68.359  1.00  0.00    -0.241 C  
HETATM   14  H   UNL     1     -11.308  10.602  68.981  1.00  0.00     0.000 HD 
HETATM   15  O   UNL     1     -11.604  11.480  69.187  1.00  0.00    -0.258 OA 
BRANCH   8  16
HETATM   16  O   UNL     1     -12.707  14.164  68.057  1.00  0.00     0.314 OA 
BRANCH  16  17
HETATM   17  C   UNL     1     -12.625  14.417  66.635  1.00  0.00     0.113 C  
HETATM   18  H1  UNL     1     -11.839  11.093  66.004  1.00  0.00     0.000 HD 
HETATM   19  O   UNL     1     -11.888  15.624  66.405  1.00  0.00     0.290 OA 
HETATM   20  C   UNL     1     -10.549  15.484  66.115  1.00  0.00    -0.315 C  
HETATM   21  H2  UNL     1     -12.951  11.726  67.083  1.00  0.00     0.000 HD 
HETATM   22  N   UNL     1     -12.096  11.910  66.557  1.00  0.00    -0.464 NA 
HETATM   23  C   UNL     1     -10.113  14.459  65.371  1.00  0.00    -0.388 C  
HETATM   24  C   UNL     1     -12.230  13.162  65.786  1.00  0.00    -0.456 C  
HETATM   25  C   UNL     1     -11.056  13.436  64.841  1.00  0.00    -0.348 C  
BRANCH  20  26
HETATM   26  C   UNL     1      -9.699  16.613  66.649  1.00  0.00    -0.266 C  
HETATM   27  N   UNL     1      -8.354  16.696  66.083  1.00  0.00    -0.398 NA 
HETATM   28  H2  UNL     1      -8.403  16.744  65.065  1.00  0.00     0.000 HD 
HETATM   29  H1  UNL     1      -7.780  17.458  66.444  1.00  0.00     0.000 HD 
ENDBRANCH  20  26
ENDBRANCH  16  17
ENDBRANCH   8  16
BRANCH  10  30
HETATM   30  O   UNL     1      -9.048  10.908  67.781  1.00  0.00    -0.146 OA 
BRANCH  30  31
HETATM   31  C   UNL     1      -9.186   9.667  68.498  1.00  0.00    -0.137 C  
HETATM   32  O   UNL     1      -6.737   9.495  68.603  1.00  0.00    -0.052 OA 
HETATM   33  C   UNL     1      -9.274   7.316  66.745  1.00  0.00    -0.155 C  
HETATM   34  C   UNL     1      -7.937   8.714  68.478  1.00  0.00    -0.116 C  
HETATM   35  O   UNL     1     -10.355   8.995  68.052  1.00  0.00    -0.206 OA 
HETATM   36  O   UNL     1      -9.881   6.329  67.603  1.00  0.00    -0.116 OA 
HETATM   37  C   UNL     1      -7.851   7.716  67.278  1.00  0.00    -0.117 C  
HETATM   38  H   UNL     1      -9.319   5.563  67.625  1.00  0.00     0.000 HD 
HETATM   39  C   UNL     1      -9.216   6.696  65.347  1.00  0.00     0.353 C  
HETATM   40  H   UNL     1      -5.982   8.919  68.591  1.00  0.00     0.000 HD 
HETATM   41  C   UNL     1     -10.175   8.544  66.710  1.00  0.00    -0.300 C  
BRANCH  37  42
HETATM   42  N   UNL     1      -7.110   6.460  67.593  1.00  0.00    -0.081 NA 
HETATM   43  H   UNL     1      -7.598   5.668  68.011  1.00  0.00     0.000 HD 
HETATM   44  C   UNL     1      -5.700   6.369  67.304  1.00  0.00    -0.013 C  
ENDBRANCH  37  42
ENDBRANCH  30  31
ENDBRANCH  10  30
ENDBRANCH   3   5
ENDBRANCH   2   3
TORSDOF 8
ENDMDL
MODEL      270
REMARK 921   NORMALIZED FREE ENERGY PREDICTED BY IDOCK:    5.65 KCAL/MOL
REMARK 922        TOTAL FREE ENERGY PREDICTED BY IDOCK:    7.55 KCAL/MOL
REMARK 923 INTER-LIGAND FREE ENERGY PREDICTED BY IDOCK:    3.02 KCAL/MOL
REMARK 924 INTRA-LIGAND FREE ENERGY PREDICTED BY IDOCK:    4.53 KCAL/MOL
REMARK 927      BINDING AFFINITY PREDICTED BY RF-SCORE:    0.00 PKD
ROOT
HETATM    1  C   UNL     1     -11.615   5.727  68.866  1.00  0.00     1.022 C  
HETATM    2  C   UNL     1     -11.285   5.486  67.399  1.00  0.00     0.765 C  
ENDROOT
BRANCH   2   3
HETATM    3  N   UNL     1     -11.175   6.763  66.688  1.00  0.00    -0.626 NA 
HETATM    4  H   UNL     1     -11.997   6.908  66.102  1.00  0.00     0.000 HD 
BRANCH   3   5
HETATM    5  C   UNL     1     -10.944   7.956  67.548  1.00  0.00     0.065 C  
HETATM    6  C   UNL     1     -11.477   9.237  66.887  1.00  0.00     1.825 C  
HETATM    7  C   UNL     1     -11.287  10.463  67.785  1.00  0.00    -0.128 C  
HETATM    8  C   UNL     1      -9.776  10.718  68.042  1.00  0.00    -0.162 C  
HETATM    9  N   UNL     1     -11.935  11.619  67.133  1.00  0.00    -0.574 NA 
HETATM   10  C   UNL     1      -9.471   8.074  68.033  1.00  0.00    -0.146 C  
HETATM   11  H2  UNL     1     -12.915  11.445  66.908  1.00  0.00     0.000 HD 
HETATM   12  H1  UNL     1     -11.808  12.435  67.730  1.00  0.00     0.000 HD 
HETATM   13  C   UNL     1      -9.067   9.453  68.592  1.00  0.00    -0.132 C  
HETATM   14  H   UNL     1      -7.199   8.756  68.722  1.00  0.00     0.000 HD 
HETATM   15  O   UNL     1      -7.633   9.530  68.386  1.00  0.00    -0.081 OA 
BRANCH   8  16
HETATM   16  O   UNL     1      -9.649  11.827  68.991  1.00  0.00    -0.020 OA 
BRANCH  16  17
HETATM   17  C   UNL     1      -8.284  12.180  69.314  1.00  0.00     0.642 C  
HETATM   18  H1  UNL     1      -9.205  15.460  69.992  1.00  0.00     0.000 HD 
HETATM   19  O   UNL     1      -7.401  11.628  68.330  1.00  0.00    -0.081 OA 
HETATM   20  C   UNL     1      -7.017  12.467  67.306  1.00  0.00    -0.112 C  
HETATM   21  H2  UNL     1     -10.003  14.041  70.379  1.00  0.00     0.000 HD 
HETATM   22  N   UNL     1      -9.333  14.478  69.746  1.00  0.00     0.430 NA 
HETATM   23  C   UNL     1      -6.797  13.769  67.532  1.00  0.00    -0.148 C  
HETATM   24  C   UNL     1      -8.088  13.687  69.691  1.00  0.00     1.077 C  
HETATM   25  C   UNL     1      -6.964  14.354  68.891  1.00  0.00    -0.105 C  
BRANCH  20  26
HETATM   26  C   UNL     1      -6.817  11.752  65.990  1.00  0.00     0.756 C  
HETATM   27  N   UNL     1      -7.952  10.946  65.545  1.00  0.00    -0.346 NA 
HETATM   28  H2  UNL     1      -8.797  11.516  65.511  1.00  0.00     0.000 HD 
HETATM   29  H1  UNL     1      -7.817  10.463  64.656  1.00  0.00     0.000 HD 
ENDBRANCH  20  26
ENDBRANCH  16  17
ENDBRANCH   8  16
BRANCH  10  30
HETATM   30  O   UNL     1      -9.039   6.960  68.891  1.00  0.00    -0.135 OA 
BRANCH  30  31
HETATM   31  C   UNL     1      -7.681   6.995  69.370  1.00  0.00    -0.108 C  
HETATM   32  O   UNL     1      -7.589   4.546  69.186  1.00  0.00    -0.055 OA 
HETATM   33  C   UNL     1      -7.473   6.782  72.289  1.00  0.00    -0.092 C  
HETATM   34  C   UNL     1      -7.126   5.655  69.975  1.00  0.00    -0.067 C  
HETATM   35  O   UNL     1      -7.534   8.074  70.282  1.00  0.00    -0.069 OA 
HETATM   36  O   UNL     1      -6.155   7.315  72.532  1.00  0.00    -0.041 OA 
HETATM   37  C   UNL     1      -7.387   5.426  71.499  1.00  0.00    -0.085 C  
HETATM   38  H   UNL     1      -5.662   6.678  73.037  1.00  0.00     0.000 HD 
HETATM   39  C   UNL     1      -8.129   6.613  73.660  1.00  0.00    -0.110 C  
HETATM   40  H   UNL     1      -7.254   3.737  69.551  1.00  0.00     0.000 HD 
HETATM   41  C   UNL     1      -8.263   7.802  71.478  1.00  0.00    -0.105 C  
BRANCH  37  42
HETATM   42  N   UNL     1      -6.361   4.573  72.163  1.00  0.00    -0.021 NA 
HETATM   43  H   UNL     1      -5.551   5.001  72.611  1.00  0.00     0.000 HD 
HETATM   44  C   UNL     1      -6.518   3.139  72.170  1.00  0.00    -0.015 C  
ENDBRANCH  37  42
ENDBRANCH  30  31
ENDBRANCH  10  30
ENDBRANCH   3   5
ENDBRANCH   2   3
TORSDOF 8
ENDMDL
MODEL      271
REMARK 921   NORMALIZED FREE ENERGY PREDICTED BY IDOCK:    5.90 KCAL/MOL
REMARK 922        TOTAL FREE ENERGY PREDICTED BY IDOCK:    7.92 KCAL/MOL
REMARK 923 INTER-LIGAND FREE ENERGY PREDICTED BY IDOCK:   -3.83 KCAL/MOL
REMARK 924 INTRA-LIGAND FREE ENERGY PREDICTED BY IDOCK:   11.75 KCAL/MOL
REMARK 927      BINDING AFFINITY PREDICTED BY RF-SCORE:    0.00 PKD
ROOT
HETATM    1  C   UNL     1     -10.919  13.624  64.293  1.00  0.00    -0.317 C  
HETATM    2  C   UNL     1     -10.769  13.009  65.678  1.00  0.00    -0.275 C  
ENDROOT
BRANCH   2   3
HETATM    3  N   UNL     1     -11.106  11.583  65.639  1.00  0.00    -0.246 NA 
HETATM    4  H   UNL     1     -11.042  11.236  64.682  1.00  0.00     0.000 HD 
BRANCH   3   5
HETATM    5  C   UNL     1     -10.313  10.713  66.552  1.00  0.00    -0.241 C  
HETATM    6  C   UNL     1     -10.749   9.244  66.446  1.00  0.00     0.119 C  
HETATM    7  C   UNL     1      -9.907   8.335  67.347  1.00  0.00    -0.188 C  
HETATM    8  C   UNL     1     -10.094   8.724  68.839  1.00  0.00    -0.198 C  
HETATM    9  N   UNL     1     -10.304   6.935  67.091  1.00  0.00    -0.237 NA 
HETATM   10  C   UNL     1     -10.277  11.248  68.012  1.00  0.00    -0.183 C  
HETATM   11  H2  UNL     1     -10.238   6.681  66.105  1.00  0.00     0.000 HD 
HETATM   12  H1  UNL     1      -9.744   6.330  67.691  1.00  0.00     0.000 HD 
HETATM   13  C   UNL     1      -9.816  10.232  69.076  1.00  0.00    -0.207 C  
HETATM   14  H   UNL     1     -10.259  11.607  70.456  1.00  0.00     0.000 HD 
HETATM   15  O   UNL     1     -10.429  10.684  70.310  1.00  0.00    -0.075 OA 
BRANCH   8  16
HETATM   16  O   UNL     1      -9.189   7.905  69.648  1.00  0.00    -0.152 OA 
BRANCH  16  17
HETATM   17  C   UNL     1      -8.892   8.457  70.951  1.00  0.00    -0.159 C  
HETATM   18  H1  UNL     1      -5.551   7.551  70.666  1.00  0.00     0.000 HD 
HETATM   19  O   UNL     1      -9.905   8.057  71.883  1.00  0.00    -0.168 OA 
HETATM   20  C   UNL     1      -9.627   6.954  72.661  1.00  0.00    -0.145 C  
HETATM   21  H2  UNL     1      -6.571   8.190  69.504  1.00  0.00     0.000 HD 
HETATM   22  N   UNL     1      -6.522   7.666  70.378  1.00  0.00    -0.038 NA 
HETATM   23  C   UNL     1      -8.387   6.729  73.113  1.00  0.00    -0.125 C  
HETATM   24  C   UNL     1      -7.400   8.280  71.394  1.00  0.00    -0.083 C  
HETATM   25  C   UNL     1      -7.267   7.655  72.786  1.00  0.00    -0.087 C  
BRANCH  20  26
HETATM   26  C   UNL     1     -10.849   6.124  72.980  1.00  0.00    -0.257 C  
HETATM   27  N   UNL     1     -12.125   6.822  72.841  1.00  0.00    -0.272 NA 
HETATM   28  H2  UNL     1     -12.207   7.223  71.906  1.00  0.00     0.000 HD 
HETATM   29  H1  UNL     1     -12.950   6.262  73.056  1.00  0.00     0.000 HD 
ENDBRANCH  20  26
ENDBRANCH  16  17
ENDBRANCH   8  16
BRANCH  10  30
HETATM   30  O   UNL     1      -9.618  12.556  68.148  1.00  0.00    -0.206 OA 
BRANCH  30  31
HETATM   31  C   UNL     1      -8.192  12.591  67.951  1.00  0.00    -0.165 C  
HETATM   32  O   UNL     1      -8.568  12.952  65.549  1.00  0.00     0.459 OA 
HETATM   33  C   UNL     1      -7.034   9.958  67.372  1.00  0.00    -0.083 C  
HETATM   34  C   UNL     1      -7.689  12.311  66.488  1.00  0.00     0.319 C  
HETATM   35  O   UNL     1      -7.568  11.724  68.886  1.00  0.00    -0.121 OA 
HETATM   36  O   UNL     1      -5.645  10.167  67.697  1.00  0.00    -0.042 OA 
HETATM   37  C   UNL     1      -7.446  10.811  66.118  1.00  0.00    -0.129 C  
HETATM   38  H   UNL     1      -5.119   9.912  66.947  1.00  0.00     0.000 HD 
HETATM   39  C   UNL     1      -7.199   8.456  67.130  1.00  0.00    -0.084 C  
HETATM   40  H   UNL     1      -8.263  12.782  64.665  1.00  0.00     0.000 HD 
HETATM   41  C   UNL     1      -7.877  10.366  68.573  1.00  0.00    -0.107 C  
BRANCH  37  42
HETATM   42  N   UNL     1      -6.407  10.612  65.067  1.00  0.00    -0.344 NA 
HETATM   43  H   UNL     1      -5.431  10.477  65.330  1.00  0.00     0.000 HD 
HETATM   44  C   UNL     1      -6.788  10.611  63.675  1.00  0.00     0.207 C  
ENDBRANCH  37  42
ENDBRANCH  30  31
ENDBRANCH  10  30
ENDBRANCH   3   5
ENDBRANCH   2   3
TORSDOF 8
ENDMDL
MODEL      272
REMARK 921   NORMALIZED FREE ENERGY PREDICTED BY IDOCK:    5.91 KCAL/MOL
REMARK 922        TOTAL FREE ENERGY PREDICTED BY IDOCK:    7.93 KCAL/MOL
REMARK 923 INTER-LIGAND FREE ENERGY PREDICTED BY IDOCK:   -1.54 KCAL/MOL
REMARK 924 INTRA-LIGAND FREE ENERGY PREDICTED BY IDOCK:    9.47 KCAL/MOL
REMARK 927      BINDING AFFINITY PREDICTED BY RF-SCORE:    0.00 PKD
ROOT
HETATM    1  C   UNL     1     -10.698  12.310  63.268  1.00  0.00    -0.335 C  
HETATM    2  C   UNL     1     -11.738  11.531  64.062  1.00  0.00    -0.134 C  
ENDROOT
BRANCH   2   3
HETATM    3  N   UNL     1     -11.211  11.185  65.385  1.00  0.00    -0.003 NA 
HETATM    4  H   UNL     1     -10.529  10.431  65.304  1.00  0.00     0.000 HD 
BRANCH   3   5
HETATM    5  C   UNL     1     -10.629  12.317  66.158  1.00  0.00    -0.249 C  
HETATM    6  C   UNL     1      -9.887  13.301  65.241  1.00  0.00    -0.097 C  
HETATM    7  C   UNL     1      -9.325  14.493  66.021  1.00  0.00    -0.160 C  
HETATM    8  C   UNL     1      -8.277  14.016  67.064  1.00  0.00    -0.053 C  
HETATM    9  N   UNL     1      -8.741  15.445  65.054  1.00  0.00     1.624 NA 
HETATM   10  C   UNL     1      -9.785  11.844  67.376  1.00  0.00    -0.184 C  
HETATM   11  H2  UNL     1      -9.403  15.726  64.330  1.00  0.00     0.000 HD 
HETATM   12  H1  UNL     1      -8.367  16.239  65.573  1.00  0.00     0.000 HD 
HETATM   13  C   UNL     1      -8.852  12.909  67.987  1.00  0.00    -0.195 C  
HETATM   14  H   UNL     1      -8.137  11.473  69.178  1.00  0.00     0.000 HD 
HETATM   15  O   UNL     1      -7.785  12.151  68.613  1.00  0.00    -0.125 OA 
BRANCH   8  16
HETATM   16  O   UNL     1      -7.853  15.171  67.857  1.00  0.00    -0.120 OA 
BRANCH  16  17
HETATM   17  C   UNL     1      -8.817  15.600  68.847  1.00  0.00    -0.222 C  
HETATM   18  H1  UNL     1     -11.453  14.966  66.675  1.00  0.00     0.000 HD 
HETATM   19  O   UNL     1      -8.366  16.815  69.459  1.00  0.00     0.068 OA 
HETATM   20  C   UNL     1      -8.874  17.989  68.948  1.00  0.00    -0.121 C  
HETATM   21  H2  UNL     1     -10.065  14.069  66.936  1.00  0.00     0.000 HD 
HETATM   22  N   UNL     1     -10.486  14.996  66.997  1.00  0.00    -0.273 NA 
HETATM   23  C   UNL     1     -10.143  18.060  68.524  1.00  0.00    -0.399 C  
HETATM   24  C   UNL     1     -10.302  15.554  68.352  1.00  0.00    -0.230 C  
HETATM   25  C   UNL     1     -11.043  16.875  68.583  1.00  0.00    -0.194 C  
BRANCH  20  26
HETATM   26  C   UNL     1      -7.893  19.137  68.996  1.00  0.00    -0.259 C  
HETATM   27  N   UNL     1      -6.491  18.748  69.130  1.00  0.00    -0.269 NA 
HETATM   28  H2  UNL     1      -6.234  18.097  68.388  1.00  0.00     0.000 HD 
HETATM   29  H1  UNL     1      -5.829  19.523  69.163  1.00  0.00     0.000 HD 
ENDBRANCH  20  26
ENDBRANCH  16  17
ENDBRANCH   8  16
BRANCH  10  30
HETATM   30  O   UNL     1     -10.564  11.117  68.390  1.00  0.00    -0.175 OA 
BRANCH  30  31
HETATM   31  C   UNL     1     -10.018   9.870  68.860  1.00  0.00    -0.181 C  
HETATM   32  O   UNL     1     -11.131   8.720  66.995  1.00  0.00    -0.255 OA 
HETATM   33  C   UNL     1     -11.768   8.478  70.760  1.00  0.00    -0.205 C  
HETATM   34  C   UNL     1     -10.749   8.567  68.372  1.00  0.00    -0.032 C  
HETATM   35  O   UNL     1      -9.917   9.906  70.276  1.00  0.00    -0.254 OA 
HETATM   36  O   UNL     1     -10.843   7.586  71.416  1.00  0.00    -0.228 OA 
HETATM   37  C   UNL     1     -11.947   8.079  69.250  1.00  0.00     1.669 C  
HETATM   38  H   UNL     1     -11.184   6.701  71.355  1.00  0.00     0.000 HD 
HETATM   39  C   UNL     1     -13.080   8.390  71.542  1.00  0.00    -0.316 C  
HETATM   40  H   UNL     1     -11.572   7.933  66.700  1.00  0.00     0.000 HD 
HETATM   41  C   UNL     1     -11.221   9.896  70.857  1.00  0.00    -0.360 C  
BRANCH  37  42
HETATM   42  N   UNL     1     -12.177   6.607  69.189  1.00  0.00     0.480 NA 
HETATM   43  H   UNL     1     -13.015   6.201  69.605  1.00  0.00     0.000 HD 
HETATM   44  C   UNL     1     -11.209   5.757  68.539  1.00  0.00     0.244 C  
ENDBRANCH  37  42
ENDBRANCH  30  31
ENDBRANCH  10  30
ENDBRANCH   3   5
ENDBRANCH   2   3
TORSDOF 8
ENDMDL
MODEL      273
REMARK 921   NORMALIZED FREE ENERGY PREDICTED BY IDOCK:    6.47 KCAL/MOL
REMARK 922        TOTAL FREE ENERGY PREDICTED BY IDOCK:    8.76 KCAL/MOL
REMARK 923 INTER-LIGAND FREE ENERGY PREDICTED BY IDOCK:   -7.69 KCAL/MOL
REMARK 924 INTRA-LIGAND FREE ENERGY PREDICTED BY IDOCK:   16.45 KCAL/MOL
REMARK 927      BINDING AFFINITY PREDICTED BY RF-SCORE:    0.00 PKD
ROOT
HETATM    1  C   UNL     1     -10.435  12.460  63.344  1.00  0.00    -0.353 C  
HETATM    2  C   UNL     1     -10.899  11.108  63.868  1.00  0.00    -0.274 C  
ENDROOT
BRANCH   2   3
HETATM    3  N   UNL     1     -10.076  10.697  65.010  1.00  0.00    -0.306 NA 
HETATM    4  H   UNL     1      -9.195  10.302  64.681  1.00  0.00     0.000 HD 
BRANCH   3   5
HETATM    5  C   UNL     1      -9.813  11.757  66.023  1.00  0.00    -0.232 C  
HETATM    6  C   UNL     1      -9.795  13.153  65.384  1.00  0.00    -0.123 C  
HETATM    7  C   UNL     1      -9.572  14.253  66.426  1.00  0.00    -0.298 C  
HETATM    8  C   UNL     1      -8.186  14.083  67.108  1.00  0.00    -0.125 C  
HETATM    9  N   UNL     1      -9.693  15.562  65.751  1.00  0.00    -0.347 NA 
HETATM   10  C   UNL     1      -8.563  11.456  66.898  1.00  0.00    -0.154 C  
HETATM   11  H2  UNL     1     -10.577  15.667  65.252  1.00  0.00     0.000 HD 
HETATM   12  H1  UNL     1      -9.544  16.294  66.445  1.00  0.00     0.000 HD 
HETATM   13  C   UNL     1      -8.007  12.656  67.690  1.00  0.00    -0.169 C  
HETATM   14  H   UNL     1      -6.493  11.477  68.245  1.00  0.00     0.000 HD 
HETATM   15  O   UNL     1      -6.603  12.350  67.889  1.00  0.00    -0.075 OA 
BRANCH   8  16
HETATM   16  O   UNL     1      -8.066  15.085  68.169  1.00  0.00    -0.124 OA 
BRANCH  16  17
HETATM   17  C   UNL     1      -9.170  15.098  69.103  1.00  0.00    -0.215 C  
HETATM   18  H1  UNL     1     -10.701  12.448  67.462  1.00  0.00     0.000 HD 
HETATM   19  O   UNL     1      -9.595  16.449  69.322  1.00  0.00    -0.249 OA 
HETATM   20  C   UNL     1     -10.665  16.888  68.574  1.00  0.00    -0.359 C  
HETATM   21  H2  UNL     1      -9.080  12.678  67.807  1.00  0.00     0.000 HD 
HETATM   22  N   UNL     1      -9.978  13.139  67.663  1.00  0.00    -0.215 NA 
HETATM   23  C   UNL     1     -11.680  16.065  68.279  1.00  0.00    -0.136 C  
HETATM   24  C   UNL     1     -10.279  14.038  68.795  1.00  0.00    -0.197 C  
HETATM   25  C   UNL     1     -11.683  14.650  68.743  1.00  0.00    -0.357 C  
BRANCH  20  26
HETATM   26  C   UNL     1     -10.584  18.354  68.215  1.00  0.00    -0.209 C  
HETATM   27  N   UNL     1      -9.258  18.952  68.353  1.00  0.00    -0.333 NA 
HETATM   28  H2  UNL     1      -8.574  18.420  67.816  1.00  0.00     0.000 HD 
HETATM   29  H1  UNL     1      -9.203  19.942  68.111  1.00  0.00     0.000 HD 
ENDBRANCH  20  26
ENDBRANCH  16  17
ENDBRANCH   8  16
BRANCH  10  30
HETATM   30  O   UNL     1      -8.690  10.240  67.716  1.00  0.00    -0.121 OA 
BRANCH  30  31
HETATM   31  C   UNL     1     -10.026   9.827  68.064  1.00  0.00    -0.158 C  
HETATM   32  O   UNL     1      -9.512  10.282  70.424  1.00  0.00    -0.306 OA 
HETATM   33  C   UNL     1     -10.237   6.963  68.664  1.00  0.00    -0.173 C  
HETATM   34  C   UNL     1     -10.249   9.401  69.560  1.00  0.00    -0.209 C  
HETATM   35  O   UNL     1     -10.452   8.812  67.169  1.00  0.00    -0.282 OA 
HETATM   36  O   UNL     1     -11.651   6.729  68.497  1.00  0.00    -0.534 OA 
HETATM   37  C   UNL     1      -9.972   7.900  69.898  1.00  0.00    -0.192 C  
HETATM   38  H   UNL     1     -11.984   6.321  69.288  1.00  0.00     0.000 HD 
HETATM   39  C   UNL     1      -9.589   5.588  68.831  1.00  0.00    -0.178 C  
HETATM   40  H   UNL     1      -9.648  10.025  71.328  1.00  0.00     0.000 HD 
HETATM   41  C   UNL     1      -9.704   7.617  67.396  1.00  0.00    -0.161 C  
BRANCH  37  42
HETATM   42  N   UNL     1     -10.773   7.384  71.046  1.00  0.00    -0.229 NA 
HETATM   43  H   UNL     1     -10.580   6.459  71.429  1.00  0.00     0.000 HD 
HETATM   44  C   UNL     1     -11.820   8.198  71.612  1.00  0.00    -0.292 C  
ENDBRANCH  37  42
ENDBRANCH  30  31
ENDBRANCH  10  30
ENDBRANCH   3   5
ENDBRANCH   2   3
TORSDOF 8
ENDMDL
MODEL      274
REMARK 921   NORMALIZED FREE ENERGY PREDICTED BY IDOCK:    8.87 KCAL/MOL
REMARK 922        TOTAL FREE ENERGY PREDICTED BY IDOCK:   12.28 KCAL/MOL
REMARK 923 INTER-LIGAND FREE ENERGY PREDICTED BY IDOCK:    0.22 KCAL/MOL
REMARK 924 INTRA-LIGAND FREE ENERGY PREDICTED BY IDOCK:   12.06 KCAL/MOL
REMARK 927      BINDING AFFINITY PREDICTED BY RF-SCORE:    0.00 PKD
ROOT
HETATM    1  C   UNL     1     -10.455   5.890  68.218  1.00  0.00    -0.293 C  
HETATM    2  C   UNL     1      -9.544   5.597  69.402  1.00  0.00    -0.143 C  
ENDROOT
BRANCH   2   3
HETATM    3  N   UNL     1      -8.268   6.302  69.246  1.00  0.00    -0.113 NA 
HETATM    4  H   UNL     1      -7.520   5.776  69.697  1.00  0.00     0.000 HD 
BRANCH   3   5
HETATM    5  C   UNL     1      -7.886   6.632  67.845  1.00  0.00    -0.112 C  
HETATM    6  C   UNL     1      -7.120   5.477  67.184  1.00  0.00    -0.074 C  
HETATM    7  C   UNL     1      -6.764   5.789  65.728  1.00  0.00    -0.051 C  
HETATM    8  C   UNL     1      -5.819   7.020  65.651  1.00  0.00    -0.036 C  
HETATM    9  N   UNL     1      -6.145   4.586  65.134  1.00  0.00    -0.022 NA 
HETATM   10  C   UNL     1      -7.166   8.006  67.725  1.00  0.00    -0.091 C  
HETATM   11  H2  UNL     1      -6.731   3.757  65.226  1.00  0.00     0.000 HD 
HETATM   12  H1  UNL     1      -5.908   4.794  64.165  1.00  0.00     0.000 HD 
HETATM   13  C   UNL     1      -6.411   8.243  66.402  1.00  0.00    -0.050 C  
HETATM   14  H   UNL     1      -5.734   9.947  67.194  1.00  0.00     0.000 HD 
HETATM   15  O   UNL     1      -5.372   9.199  66.734  1.00  0.00    -0.038 OA 
BRANCH   8  16
HETATM   16  O   UNL     1      -5.599   7.347  64.240  1.00  0.00    -0.033 OA 
BRANCH  16  17
HETATM   17  C   UNL     1      -6.789   7.761  63.531  1.00  0.00    -0.063 C  
HETATM   18  H1  UNL     1      -6.475  11.007  64.729  1.00  0.00     0.000 HD 
HETATM   19  O   UNL     1      -7.819   6.781  63.712  1.00  0.00    -0.117 OA 
HETATM   20  C   UNL     1      -8.737   7.027  64.709  1.00  0.00     0.351 C  
HETATM   21  H2  UNL     1      -5.284   9.965  64.185  1.00  0.00     0.000 HD 
HETATM   22  N   UNL     1      -6.222  10.030  64.580  1.00  0.00    -0.117 NA 
HETATM   23  C   UNL     1      -9.156   8.274  64.964  1.00  0.00     0.252 C  
HETATM   24  C   UNL     1      -7.178   9.261  63.759  1.00  0.00    -0.095 C  
HETATM   25  C   UNL     1      -8.639   9.434  64.186  1.00  0.00    -0.216 C  
BRANCH  20  26
HETATM   26  C   UNL     1      -9.236   5.772  65.386  1.00  0.00     0.096 C  
HETATM   27  N   UNL     1      -9.721   4.732  64.481  1.00  0.00    -0.362 NA 
HETATM   28  H2  UNL     1      -9.003   4.500  63.795  1.00  0.00     0.000 HD 
HETATM   29  H1  UNL     1     -10.058   3.884  64.937  1.00  0.00     0.000 HD 
ENDBRANCH  20  26
ENDBRANCH  16  17
ENDBRANCH   8  16
BRANCH  10  30
HETATM   30  O   UNL     1      -8.003   9.150  68.118  1.00  0.00    -0.099 OA 
BRANCH  30  31
HETATM   31  C   UNL     1      -8.946   8.931  69.185  1.00  0.00    -0.140 C  
HETATM   32  O   UNL     1     -10.680   8.462  67.509  1.00  0.00    -0.430 OA 
HETATM   33  C   UNL     1     -10.380  11.362  69.986  1.00  0.00     0.929 C  
HETATM   34  C   UNL     1     -10.465   9.052  68.802  1.00  0.00    -0.206 C  
HETATM   35  O   UNL     1      -8.620   9.775  70.279  1.00  0.00    -0.202 OA 
HETATM   36  O   UNL     1     -10.849  11.009  71.303  1.00  0.00     0.910 OA 
HETATM   37  C   UNL     1     -11.086  10.484  68.891  1.00  0.00    -0.261 C  
HETATM   38  H   UNL     1     -11.789  11.148  71.335  1.00  0.00     0.000 HD 
HETATM   39  C   UNL     1     -10.672  12.853  69.810  1.00  0.00     0.595 C  
HETATM   40  H   UNL     1     -11.598   8.535  67.277  1.00  0.00     0.000 HD 
HETATM   41  C   UNL     1      -8.874  11.137  69.935  1.00  0.00     1.272 C  
BRANCH  37  42
HETATM   42  N   UNL     1     -12.551  10.487  69.174  1.00  0.00    -0.603 NA 
HETATM   43  H   UNL     1     -13.221  10.439  68.407  1.00  0.00     0.000 HD 
HETATM   44  C   UNL     1     -13.016  10.560  70.538  1.00  0.00    -0.219 C  
ENDBRANCH  37  42
ENDBRANCH  30  31
ENDBRANCH  10  30
ENDBRANCH   3   5
ENDBRANCH   2   3
TORSDOF 8
ENDMDL
MODEL      275
REMARK 921   NORMALIZED FREE ENERGY PREDICTED BY IDOCK:   11.87 KCAL/MOL
REMARK 922        TOTAL FREE ENERGY PREDICTED BY IDOCK:   16.67 KCAL/MOL
REMARK 923 INTER-LIGAND FREE ENERGY PREDICTED BY IDOCK:   -2.72 KCAL/MOL
REMARK 924 INTRA-LIGAND FREE ENERGY PREDICTED BY IDOCK:   19.40 KCAL/MOL
REMARK 927      BINDING AFFINITY PREDICTED BY RF-SCORE:    0.00 PKD
ROOT
HETATM    1  C   UNL     1     -10.974  13.706  64.236  1.00  0.00    -0.317 C  
HETATM    2  C   UNL     1     -10.744  12.824  65.456  1.00  0.00    -0.278 C  
ENDROOT
BRANCH   2   3
HETATM    3  N   UNL     1     -10.864  11.410  65.089  1.00  0.00    -0.269 NA 
HETATM    4  H   UNL     1     -10.866  11.312  64.074  1.00  0.00     0.000 HD 
BRANCH   3   5
HETATM    5  C   UNL     1      -9.844  10.505  65.688  1.00  0.00    -0.252 C  
HETATM    6  C   UNL     1      -9.813   9.144  64.976  1.00  0.00     0.436 C  
HETATM    7  C   UNL     1      -8.735   8.223  65.555  1.00  0.00    -0.140 C  
HETATM    8  C   UNL     1      -9.029   7.912  67.048  1.00  0.00    -0.128 C  
HETATM    9  N   UNL     1      -8.689   6.994  64.737  1.00  0.00    -0.339 NA 
HETATM   10  C   UNL     1      -9.969  10.396  67.235  1.00  0.00    -0.188 C  
HETATM   11  H2  UNL     1      -8.550   7.186  63.745  1.00  0.00     0.000 HD 
HETATM   12  H1  UNL     1      -7.971   6.381  65.122  1.00  0.00     0.000 HD 
HETATM   13  C   UNL     1      -9.220   9.210  67.876  1.00  0.00    -0.133 C  
HETATM   14  H   UNL     1     -10.058   9.734  69.613  1.00  0.00     0.000 HD 
HETATM   15  O   UNL     1      -9.940   8.939  69.106  1.00  0.00    -0.179 OA 
BRANCH   8  16
HETATM   16  O   UNL     1      -7.917   7.125  67.585  1.00  0.00    -0.111 OA 
BRANCH  16  17
HETATM   17  C   UNL     1      -7.724   7.263  69.011  1.00  0.00    -0.112 C  
HETATM   18  H1  UNL     1      -4.300   7.671  68.593  1.00  0.00     0.000 HD 
HETATM   19  O   UNL     1      -8.481   6.257  69.697  1.00  0.00    -0.126 OA 
HETATM   20  C   UNL     1      -7.802   5.114  70.058  1.00  0.00    -0.078 C  
HETATM   21  H2  UNL     1      -5.554   8.292  67.676  1.00  0.00     0.000 HD 
HETATM   22  N   UNL     1      -5.274   7.549  68.315  1.00  0.00    -0.024 NA 
HETATM   23  C   UNL     1      -6.528   5.172  70.464  1.00  0.00    -0.034 C  
HETATM   24  C   UNL     1      -6.229   7.451  69.437  1.00  0.00    -0.031 C  
HETATM   25  C   UNL     1      -5.799   6.469  70.532  1.00  0.00    -0.023 C  
BRANCH  20  26
HETATM   26  C   UNL     1      -8.659   3.870  70.011  1.00  0.00    -0.065 C  
HETATM   27  N   UNL     1      -9.236   3.467  71.292  1.00  0.00    -0.113 NA 
HETATM   28  H2  UNL     1      -9.761   4.241  71.700  1.00  0.00     0.000 HD 
HETATM   29  H1  UNL     1      -9.815   2.628  71.260  1.00  0.00     0.000 HD 
ENDBRANCH  20  26
ENDBRANCH  16  17
ENDBRANCH   8  16
BRANCH  10  30
HETATM   30  O   UNL     1      -9.738  11.666  67.939  1.00  0.00    -0.170 OA 
BRANCH  30  31
HETATM   31  C   UNL     1      -8.374  12.118  68.036  1.00  0.00    -0.167 C  
HETATM   32  O   UNL     1      -7.886  10.993  65.907  1.00  0.00    -0.283 OA 
HETATM   33  C   UNL     1      -6.621  10.226  69.435  1.00  0.00    -0.058 C  
HETATM   34  C   UNL     1      -7.319  11.321  67.186  1.00  0.00    -0.130 C  
HETATM   35  O   UNL     1      -7.996  12.177  69.403  1.00  0.00     0.378 OA 
HETATM   36  O   UNL     1      -5.517  11.072  69.817  1.00  0.00    -0.045 OA 
HETATM   37  C   UNL     1      -6.684  10.069  67.873  1.00  0.00    -0.067 C  
HETATM   38  H   UNL     1      -4.712  10.678  69.500  1.00  0.00     0.000 HD 
HETATM   39  C   UNL     1      -6.404   8.888  70.144  1.00  0.00    -0.042 C  
HETATM   40  H   UNL     1      -7.249  10.511  65.393  1.00  0.00     0.000 HD 
HETATM   41  C   UNL     1      -7.910  10.858  69.943  1.00  0.00     0.433 C  
BRANCH  37  42
HETATM   42  N   UNL     1      -5.311   9.748  67.388  1.00  0.00    -0.036 NA 
HETATM   43  H   UNL     1      -4.496  10.059  67.916  1.00  0.00     0.000 HD 
HETATM   44  C   UNL     1      -5.139   8.997  66.169  1.00  0.00    -0.032 C  
ENDBRANCH  37  42
ENDBRANCH  30  31
ENDBRANCH  10  30
ENDBRANCH   3   5
ENDBRANCH   2   3
TORSDOF 8
ENDMDL
MODEL      276
REMARK 921   NORMALIZED FREE ENERGY PREDICTED BY IDOCK:   13.62 KCAL/MOL
REMARK 922        TOTAL FREE ENERGY PREDICTED BY IDOCK:   19.25 KCAL/MOL
REMARK 923 INTER-LIGAND FREE ENERGY PREDICTED BY IDOCK:    6.35 KCAL/MOL
REMARK 924 INTRA-LIGAND FREE ENERGY PREDICTED BY IDOCK:   12.90 KCAL/MOL
REMARK 927      BINDING AFFINITY PREDICTED BY RF-SCORE:    0.00 PKD
ROOT
HETATM    1  C   UNL     1     -14.081  12.645  65.818  1.00  0.00     6.817 C  
HETATM    2  C   UNL     1     -12.562  12.667  65.918  1.00  0.00     0.238 C  
ENDROOT
BRANCH   2   3
HETATM    3  N   UNL     1     -12.030  11.302  65.855  1.00  0.00     0.310 NA 
HETATM    4  H   UNL     1     -11.583  11.144  64.952  1.00  0.00     0.000 HD 
BRANCH   3   5
HETATM    5  C   UNL     1     -11.103  10.925  66.957  1.00  0.00    -0.202 C  
HETATM    6  C   UNL     1     -11.430  11.686  68.251  1.00  0.00    -0.369 C  
HETATM    7  C   UNL     1     -10.511  11.269  69.404  1.00  0.00    -0.050 C  
HETATM    8  C   UNL     1      -9.033  11.614  69.073  1.00  0.00     0.210 C  
HETATM    9  N   UNL     1     -10.971  11.949  70.632  1.00  0.00     0.888 NA 
HETATM   10  C   UNL     1      -9.606  11.015  66.543  1.00  0.00    -0.195 C  
HETATM   11  H2  UNL     1     -11.956  11.775  70.832  1.00  0.00     0.000 HD 
HETATM   12  H1  UNL     1     -10.359  11.672  71.399  1.00  0.00     0.000 HD 
HETATM   13  C   UNL     1      -8.597  11.017  67.709  1.00  0.00    -0.130 C  
HETATM   14  H   UNL     1      -7.165  11.341  66.354  1.00  0.00     0.000 HD 
HETATM   15  O   UNL     1      -7.432  11.707  67.189  1.00  0.00    -0.131 OA 
BRANCH   8  16
HETATM   16  O   UNL     1      -8.184  11.098  70.149  1.00  0.00     0.833 OA 
BRANCH  16  17
HETATM   17  C   UNL     1      -7.204  10.126  69.720  1.00  0.00    -0.141 C  
HETATM   18  H1  UNL     1      -9.661   8.187  68.214  1.00  0.00     0.000 HD 
HETATM   19  O   UNL     1      -6.305   9.844  70.801  1.00  0.00    -0.094 OA 
HETATM   20  C   UNL     1      -6.583   8.728  71.559  1.00  0.00    -0.080 C  
HETATM   21  H2  UNL     1      -9.496   9.852  68.231  1.00  0.00     0.000 HD 
HETATM   22  N   UNL     1      -9.265   8.984  68.713  1.00  0.00    -0.133 NA 
HETATM   23  C   UNL     1      -7.078   7.620  70.993  1.00  0.00    -0.054 C  
HETATM   24  C   UNL     1      -7.811   8.903  68.954  1.00  0.00    -0.096 C  
HETATM   25  C   UNL     1      -7.353   7.559  69.530  1.00  0.00    -0.084 C  
BRANCH  20  26
HETATM   26  C   UNL     1      -6.205   8.883  73.014  1.00  0.00     0.027 C  
HETATM   27  N   UNL     1      -6.629   7.788  73.884  1.00  0.00    -0.084 NA 
HETATM   28  H2  UNL     1      -6.283   6.899  73.523  1.00  0.00     0.000 HD 
HETATM   29  H1  UNL     1      -6.374   7.893  74.866  1.00  0.00     0.000 HD 
ENDBRANCH  20  26
ENDBRANCH  16  17
ENDBRANCH   8  16
BRANCH  10  30
HETATM   30  O   UNL     1      -9.233  10.087  65.465  1.00  0.00    -0.170 OA 
BRANCH  30  31
HETATM   31  C   UNL     1      -7.843   9.721  65.373  1.00  0.00    -0.122 C  
HETATM   32  O   UNL     1      -8.206   9.071  63.031  1.00  0.00    -0.163 OA 
HETATM   33  C   UNL     1      -7.331   6.918  66.070  1.00  0.00    -0.075 C  
HETATM   34  C   UNL     1      -7.464   8.729  64.214  1.00  0.00    -0.108 C  
HETATM   35  O   UNL     1      -7.401   9.237  66.632  1.00  0.00    -0.085 OA 
HETATM   36  O   UNL     1      -5.920   6.940  66.370  1.00  0.00    -0.031 OA 
HETATM   37  C   UNL     1      -7.579   7.206  64.545  1.00  0.00    -0.107 C  
HETATM   38  H   UNL     1      -5.491   6.276  65.843  1.00  0.00     0.000 HD 
HETATM   39  C   UNL     1      -7.839   5.537  66.489  1.00  0.00    -0.101 C  
HETATM   40  H   UNL     1      -7.977   8.471  62.331  1.00  0.00     0.000 HD 
HETATM   41  C   UNL     1      -8.020   7.982  66.915  1.00  0.00    -0.104 C  
BRANCH  37  42
HETATM   42  N   UNL     1      -6.648   6.347  63.759  1.00  0.00    -0.029 NA 
HETATM   43  H   UNL     1      -6.665   5.334  63.874  1.00  0.00     0.000 HD 
HETATM   44  C   UNL     1      -5.721   6.955  62.836  1.00  0.00    -0.039 C  
ENDBRANCH  37  42
ENDBRANCH  30  31
ENDBRANCH  10  30
ENDBRANCH   3   5
ENDBRANCH   2   3
TORSDOF 8
ENDMDL
MODEL      277
REMARK 921   NORMALIZED FREE ENERGY PREDICTED BY IDOCK:   15.25 KCAL/MOL
REMARK 922        TOTAL FREE ENERGY PREDICTED BY IDOCK:   21.65 KCAL/MOL
REMARK 923 INTER-LIGAND FREE ENERGY PREDICTED BY IDOCK:   11.92 KCAL/MOL
REMARK 924 INTRA-LIGAND FREE ENERGY PREDICTED BY IDOCK:    9.73 KCAL/MOL
REMARK 927      BINDING AFFINITY PREDICTED BY RF-SCORE:    0.00 PKD
ROOT
HETATM    1  C   UNL     1      -7.114  20.890  71.160  1.00  0.00     2.354 C  
HETATM    2  C   UNL     1      -7.172  19.369  71.190  1.00  0.00     1.853 C  
ENDROOT
BRANCH   2   3
HETATM    3  N   UNL     1      -6.784  18.822  69.887  1.00  0.00     0.001 NA 
HETATM    4  H   UNL     1      -5.820  18.488  69.921  1.00  0.00     0.000 HD 
BRANCH   3   5
HETATM    5  C   UNL     1      -7.674  17.756  69.349  1.00  0.00     0.254 C  
HETATM    6  C   UNL     1      -8.958  18.347  68.748  1.00  0.00    -0.253 C  
HETATM    7  C   UNL     1      -9.859  17.261  68.151  1.00  0.00    -0.290 C  
HETATM    8  C   UNL     1     -10.325  16.273  69.255  1.00  0.00    -0.277 C  
HETATM    9  N   UNL     1     -11.002  17.921  67.488  1.00  0.00    -0.215 NA 
HETATM   10  C   UNL     1      -7.934  16.615  70.374  1.00  0.00     2.686 C  
HETATM   11  H2  UNL     1     -10.710  18.613  66.797  1.00  0.00     0.000 HD 
HETATM   12  H1  UNL     1     -11.601  17.199  67.090  1.00  0.00     0.000 HD 
HETATM   13  C   UNL     1      -9.124  15.691  70.046  1.00  0.00     0.328 C  
HETATM   14  H   UNL     1      -8.818  14.814  71.815  1.00  0.00     0.000 HD 
HETATM   15  O   UNL     1      -9.553  15.170  71.331  1.00  0.00     1.643 OA 
BRANCH   8  16
HETATM   16  O   UNL     1     -11.087  15.195  68.620  1.00  0.00    -0.247 OA 
BRANCH  16  17
HETATM   17  C   UNL     1     -11.221  14.004  69.430  1.00  0.00    -0.237 C  
HETATM   18  H1  UNL     1     -13.568  12.678  67.239  1.00  0.00     0.000 HD 
HETATM   19  O   UNL     1     -11.318  14.373  70.811  1.00  0.00    -0.163 OA 
HETATM   20  C   UNL     1     -12.587  14.464  71.338  1.00  0.00    -0.354 C  
HETATM   21  H2  UNL     1     -12.161  13.515  66.894  1.00  0.00     0.000 HD 
HETATM   22  N   UNL     1     -12.884  13.346  67.594  1.00  0.00     0.902 NA 
HETATM   23  C   UNL     1     -13.550  13.614  70.959  1.00  0.00     0.064 C  
HETATM   24  C   UNL     1     -12.272  12.978  68.886  1.00  0.00    -0.035 C  
HETATM   25  C   UNL     1     -13.285  12.549  69.952  1.00  0.00     1.508 C  
BRANCH  20  26
HETATM   26  C   UNL     1     -12.722  15.537  72.394  1.00  0.00    -0.397 C  
HETATM   27  N   UNL     1     -11.722  16.601  72.325  1.00  0.00    -0.531 NA 
HETATM   28  H2  UNL     1     -11.719  17.021  71.396  1.00  0.00     0.000 HD 
HETATM   29  H1  UNL     1     -11.813  17.325  73.038  1.00  0.00     0.000 HD 
ENDBRANCH  20  26
ENDBRANCH  16  17
ENDBRANCH   8  16
BRANCH  10  30
HETATM   30  O   UNL     1      -6.722  15.873  70.755  1.00  0.00     0.670 OA 
BRANCH  30  31
HETATM   31  C   UNL     1      -5.952  15.292  69.685  1.00  0.00    -0.123 C  
HETATM   32  O   UNL     1      -7.030  16.843  68.113  1.00  0.00    -0.155 OA 
HETATM   33  C   UNL     1      -7.296  13.035  68.378  1.00  0.00    -0.116 C  
HETATM   34  C   UNL     1      -6.512  15.507  68.233  1.00  0.00    -0.118 C  
HETATM   35  O   UNL     1      -5.736  13.915  69.957  1.00  0.00    -0.109 OA 
HETATM   36  O   UNL     1      -6.191  12.363  67.738  1.00  0.00    -0.081 OA 
HETATM   37  C   UNL     1      -7.540  14.444  67.726  1.00  0.00    -0.164 C  
HETATM   38  H   UNL     1      -6.396  12.260  66.816  1.00  0.00     0.000 HD 
HETATM   39  C   UNL     1      -8.506  12.111  68.232  1.00  0.00    -0.176 C  
HETATM   40  H   UNL     1      -7.369  16.973  67.236  1.00  0.00     0.000 HD 
HETATM   41  C   UNL     1      -6.968  13.201  69.856  1.00  0.00     0.484 C  
BRANCH  37  42
HETATM   42  N   UNL     1      -7.545  14.270  66.245  1.00  0.00     0.912 NA 
HETATM   43  H   UNL     1      -6.939  14.845  65.660  1.00  0.00     0.000 HD 
HETATM   44  C   UNL     1      -8.410  13.286  65.643  1.00  0.00     2.299 C  
ENDBRANCH  37  42
ENDBRANCH  30  31
ENDBRANCH  10  30
ENDBRANCH   3   5
ENDBRANCH   2   3
TORSDOF 8
ENDMDL
MODEL      278
REMARK 921   NORMALIZED FREE ENERGY PREDICTED BY IDOCK:   17.01 KCAL/MOL
REMARK 922        TOTAL FREE ENERGY PREDICTED BY IDOCK:   24.22 KCAL/MOL
REMARK 923 INTER-LIGAND FREE ENERGY PREDICTED BY IDOCK:   12.88 KCAL/MOL
REMARK 924 INTRA-LIGAND FREE ENERGY PREDICTED BY IDOCK:   11.34 KCAL/MOL
REMARK 927      BINDING AFFINITY PREDICTED BY RF-SCORE:    0.00 PKD
ROOT
HETATM    1  C   UNL     1     -14.357  16.329  71.358  1.00  0.00     2.255 C  
HETATM    2  C   UNL     1     -13.788  14.930  71.548  1.00  0.00    -0.467 C  
ENDROOT
BRANCH   2   3
HETATM    3  N   UNL     1     -12.419  14.865  71.027  1.00  0.00    -0.305 NA 
HETATM    4  H   UNL     1     -11.751  14.906  71.796  1.00  0.00     0.000 HD 
BRANCH   3   5
HETATM    5  C   UNL     1     -12.122  13.695  70.154  1.00  0.00    -0.361 C  
HETATM    6  C   UNL     1     -13.259  12.663  70.190  1.00  0.00     1.108 C  
HETATM    7  C   UNL     1     -12.982  11.479  69.259  1.00  0.00     1.322 C  
HETATM    8  C   UNL     1     -11.706  10.717  69.713  1.00  0.00    -0.310 C  
HETATM    9  N   UNL     1     -14.172  10.603  69.258  1.00  0.00     4.186 NA 
HETATM   10  C   UNL     1     -10.717  13.084  70.426  1.00  0.00     2.060 C  
HETATM   11  H2  UNL     1     -15.027  11.103  69.015  1.00  0.00     0.000 HD 
HETATM   12  H1  UNL     1     -13.988   9.815  68.638  1.00  0.00     0.000 HD 
HETATM   13  C   UNL     1     -10.490  11.670  69.853  1.00  0.00     0.786 C  
HETATM   14  H   UNL     1      -8.724  11.670  70.787  1.00  0.00     0.000 HD 
HETATM   15  O   UNL     1      -9.469  11.086  70.701  1.00  0.00     1.957 OA 
BRANCH   8  16
HETATM   16  O   UNL     1     -11.420   9.667  68.733  1.00  0.00     0.056 OA 
BRANCH  16  17
HETATM   17  C   UNL     1     -10.240   8.885  69.025  1.00  0.00    -0.206 C  
HETATM   18  H1  UNL     1     -10.501   9.603  72.414  1.00  0.00     0.000 HD 
HETATM   19  O   UNL     1      -9.216   9.187  68.069  1.00  0.00    -0.134 OA 
HETATM   20  C   UNL     1      -8.277  10.122  68.446  1.00  0.00    -0.112 C  
HETATM   21  H2  UNL     1     -11.712   9.238  71.318  1.00  0.00     0.000 HD 
HETATM   22  N   UNL     1     -10.766   9.603  71.429  1.00  0.00    -0.276 NA 
HETATM   23  C   UNL     1      -7.842  10.185  69.711  1.00  0.00    -0.175 C  
HETATM   24  C   UNL     1      -9.833   8.885  70.537  1.00  0.00    -0.200 C  
HETATM   25  C   UNL     1      -8.362   9.256  70.752  1.00  0.00    -0.230 C  
BRANCH  20  26
HETATM   26  C   UNL     1      -7.776  10.965  67.296  1.00  0.00    -0.112 C  
HETATM   27  N   UNL     1      -6.656  11.847  67.618  1.00  0.00    -0.087 NA 
HETATM   28  H2  UNL     1      -5.888  11.308  68.020  1.00  0.00     0.000 HD 
HETATM   29  H1  UNL     1      -6.317  12.416  66.842  1.00  0.00     0.000 HD 
ENDBRANCH  20  26
ENDBRANCH  16  17
ENDBRANCH   8  16
BRANCH  10  30
HETATM   30  O   UNL     1      -9.605  14.003  70.138  1.00  0.00     1.359 OA 
BRANCH  30  31
HETATM   31  C   UNL     1      -9.885  15.108  69.259  1.00  0.00    -0.230 C  
HETATM   32  O   UNL     1     -10.005  13.534  67.376  1.00  0.00    -0.228 OA 
HETATM   33  C   UNL     1      -7.473  16.310  68.098  1.00  0.00    -0.144 C  
HETATM   34  C   UNL     1      -9.601  14.866  67.732  1.00  0.00    -0.208 C  
HETATM   35  O   UNL     1      -9.213  16.266  69.732  1.00  0.00     0.022 OA 
HETATM   36  O   UNL     1      -7.954  17.608  67.694  1.00  0.00    -0.203 OA 
HETATM   37  C   UNL     1      -8.150  15.177  67.243  1.00  0.00    -0.201 C  
HETATM   38  H   UNL     1      -7.748  17.733  66.775  1.00  0.00     0.000 HD 
HETATM   39  C   UNL     1      -5.954  16.339  67.923  1.00  0.00    -0.142 C  
HETATM   40  H   UNL     1      -9.834  13.388  66.453  1.00  0.00     0.000 HD 
HETATM   41  C   UNL     1      -7.803  16.110  69.571  1.00  0.00    -0.002 C  
BRANCH  37  42
HETATM   42  N   UNL     1      -8.071  15.577  65.808  1.00  0.00     0.674 NA 
HETATM   43  H   UNL     1      -7.200  15.948  65.427  1.00  0.00     0.000 HD 
HETATM   44  C   UNL     1      -9.230  15.438  64.961  1.00  0.00     1.431 C  
ENDBRANCH  37  42
ENDBRANCH  30  31
ENDBRANCH  10  30
ENDBRANCH   3   5
ENDBRANCH   2   3
TORSDOF 8
ENDMDL
MODEL      279
REMARK 921   NORMALIZED FREE ENERGY PREDICTED BY IDOCK:   18.21 KCAL/MOL
REMARK 922        TOTAL FREE ENERGY PREDICTED BY IDOCK:   25.98 KCAL/MOL
REMARK 923 INTER-LIGAND FREE ENERGY PREDICTED BY IDOCK:   22.35 KCAL/MOL
REMARK 924 INTRA-LIGAND FREE ENERGY PREDICTED BY IDOCK:    3.63 KCAL/MOL
REMARK 927      BINDING AFFINITY PREDICTED BY RF-SCORE:    0.00 PKD
ROOT
HETATM    1  C   UNL     1     -12.242  19.676  72.737  1.00  0.00    14.701 C  
HETATM    2  C   UNL     1     -11.699  18.286  72.434  1.00  0.00     4.454 C  
ENDROOT
BRANCH   2   3
HETATM    3  N   UNL     1     -11.597  18.087  70.985  1.00  0.00     3.233 NA 
HETATM    4  H   UNL     1     -12.132  18.804  70.495  1.00  0.00     0.000 HD 
BRANCH   3   5
HETATM    5  C   UNL     1     -10.211  18.027  70.444  1.00  0.00     1.702 C  
HETATM    6  C   UNL     1      -9.876  19.277  69.617  1.00  0.00     0.096 C  
HETATM    7  C   UNL     1      -8.436  19.245  69.095  1.00  0.00    -0.120 C  
HETATM    8  C   UNL     1      -8.231  18.039  68.137  1.00  0.00    -0.271 C  
HETATM    9  N   UNL     1      -8.158  20.531  68.423  1.00  0.00     0.205 NA 
HETATM   10  C   UNL     1      -9.912  16.692  69.702  1.00  0.00    -0.005 C  
HETATM   11  H2  UNL     1      -8.341  21.336  69.023  1.00  0.00     0.000 HD 
HETATM   12  H1  UNL     1      -7.200  20.510  68.076  1.00  0.00     0.000 HD 
HETATM   13  C   UNL     1      -8.662  16.704  68.799  1.00  0.00    -0.260 C  
HETATM   14  H   UNL     1      -9.184  14.870  68.202  1.00  0.00     0.000 HD 
HETATM   15  O   UNL     1      -8.920  15.688  67.797  1.00  0.00    -0.175 OA 
BRANCH   8  16
HETATM   16  O   UNL     1      -6.819  17.986  67.754  1.00  0.00    -0.194 OA 
BRANCH  16  17
HETATM   17  C   UNL     1      -6.565  18.304  66.367  1.00  0.00    -0.211 C  
HETATM   18  H1  UNL     1      -4.535  20.977  67.263  1.00  0.00     0.000 HD 
HETATM   19  O   UNL     1      -7.795  18.254  65.632  1.00  0.00    -0.515 OA 
HETATM   20  C   UNL     1      -8.446  19.452  65.436  1.00  0.00     0.911 C  
HETATM   21  H2  UNL     1      -4.637  19.455  67.950  1.00  0.00     0.000 HD 
HETATM   22  N   UNL     1      -5.129  20.158  67.399  1.00  0.00    -0.164 NA 
HETATM   23  C   UNL     1      -7.757  20.580  65.219  1.00  0.00     0.372 C  
HETATM   24  C   UNL     1      -5.655  19.561  66.156  1.00  0.00    -0.158 C  
HETATM   25  C   UNL     1      -6.268  20.579  65.190  1.00  0.00    -0.304 C  
BRANCH  20  26
HETATM   26  C   UNL     1      -9.951  19.320  65.423  1.00  0.00     0.690 C  
HETATM   27  N   UNL     1     -10.641  19.985  66.526  1.00  0.00    -0.416 NA 
HETATM   28  H2  UNL     1     -10.374  20.969  66.565  1.00  0.00     0.000 HD 
HETATM   29  H1  UNL     1     -11.657  19.896  66.517  1.00  0.00     0.000 HD 
ENDBRANCH  20  26
ENDBRANCH  16  17
ENDBRANCH   8  16
BRANCH  10  30
HETATM   30  O   UNL     1      -9.980  15.505  70.569  1.00  0.00    -0.030 OA 
BRANCH  30  31
HETATM   31  C   UNL     1     -10.705  14.369  70.060  1.00  0.00     0.158 C  
HETATM   32  O   UNL     1      -8.602  13.482  69.147  1.00  0.00    -0.320 OA 
HETATM   33  C   UNL     1     -11.719  14.762  67.335  1.00  0.00    -0.350 C  
HETATM   34  C   UNL     1     -10.014  13.575  68.893  1.00  0.00     0.021 C  
HETATM   35  O   UNL     1     -12.019  14.771  69.704  1.00  0.00    -0.290 OA 
HETATM   36  O   UNL     1     -12.758  13.764  67.259  1.00  0.00    -0.280 OA 
HETATM   37  C   UNL     1     -10.305  14.085  67.445  1.00  0.00    -0.259 C  
HETATM   38  H   UNL     1     -12.600  13.224  66.493  1.00  0.00     0.000 HD 
HETATM   39  C   UNL     1     -11.855  15.622  66.077  1.00  0.00     0.601 C  
HETATM   40  H   UNL     1      -8.185  13.002  68.442  1.00  0.00     0.000 HD 
HETATM   41  C   UNL     1     -11.973  15.628  68.563  1.00  0.00    -0.127 C  
BRANCH  37  42
HETATM   42  N   UNL     1     -10.225  13.020  66.404  1.00  0.00    -0.273 NA 
HETATM   43  H   UNL     1     -11.016  12.853  65.780  1.00  0.00     0.000 HD 
HETATM   44  C   UNL     1      -9.027  12.227  66.281  1.00  0.00    -0.067 C  
ENDBRANCH  37  42
ENDBRANCH  30  31
ENDBRANCH  10  30
ENDBRANCH   3   5
ENDBRANCH   2   3
TORSDOF 8
ENDMDL
MODEL      280
REMARK 921   NORMALIZED FREE ENERGY PREDICTED BY IDOCK:   25.47 KCAL/MOL
REMARK 922        TOTAL FREE ENERGY PREDICTED BY IDOCK:   36.64 KCAL/MOL
REMARK 923 INTER-LIGAND FREE ENERGY PREDICTED BY IDOCK:   17.04 KCAL/MOL
REMARK 924 INTRA-LIGAND FREE ENERGY PREDICTED BY IDOCK:   19.60 KCAL/MOL
REMARK 927      BINDING AFFINITY PREDICTED BY RF-SCORE:    0.00 PKD
ROOT
HETATM    1  C   UNL     1     -11.952  14.162  74.514  1.00  0.00     2.690 C  
HETATM    2  C   UNL     1     -11.755  15.241  73.458  1.00  0.00    -0.154 C  
ENDROOT
BRANCH   2   3
HETATM    3  N   UNL     1     -12.607  14.975  72.296  1.00  0.00    -0.324 NA 
HETATM    4  H   UNL     1     -12.353  15.595  71.527  1.00  0.00     0.000 HD 
BRANCH   3   5
HETATM    5  C   UNL     1     -12.624  13.562  71.826  1.00  0.00    -0.168 C  
HETATM    6  C   UNL     1     -12.267  12.588  72.959  1.00  0.00     4.407 C  
HETATM    7  C   UNL     1     -12.329  11.129  72.497  1.00  0.00     2.239 C  
HETATM    8  C   UNL     1     -11.287  10.870  71.374  1.00  0.00     1.172 C  
HETATM    9  N   UNL     1     -12.097  10.262  73.670  1.00  0.00     6.502 NA 
HETATM   10  C   UNL     1     -11.786  13.346  70.533  1.00  0.00    -0.158 C  
HETATM   11  H2  UNL     1     -12.740  10.458  74.437  1.00  0.00     0.000 HD 
HETATM   12  H1  UNL     1     -12.138   9.291  73.362  1.00  0.00     0.000 HD 
HETATM   13  C   UNL     1     -11.442  11.879  70.206  1.00  0.00     0.066 C  
HETATM   14  H   UNL     1     -10.321  12.569  68.703  1.00  0.00     0.000 HD 
HETATM   15  O   UNL     1     -10.226  11.951  69.418  1.00  0.00     0.125 OA 
BRANCH   8  16
HETATM   16  O   UNL     1     -11.460   9.499  70.889  1.00  0.00    -0.283 OA 
BRANCH  16  17
HETATM   17  C   UNL     1     -10.517   9.106  69.865  1.00  0.00    -0.223 C  
HETATM   18  H1  UNL     1     -12.705  10.097  67.355  1.00  0.00     0.000 HD 
HETATM   19  O   UNL     1      -9.966   7.824  70.188  1.00  0.00    -0.184 OA 
HETATM   20  C   UNL     1     -10.553   6.731  69.590  1.00  0.00    -0.233 C  
HETATM   21  H2  UNL     1     -12.364  10.847  68.811  1.00  0.00     0.000 HD 
HETATM   22  N   UNL     1     -12.364   9.961  68.307  1.00  0.00     1.817 NA 
HETATM   23  C   UNL     1     -11.008   6.799  68.332  1.00  0.00    -0.257 C  
HETATM   24  C   UNL     1     -11.040   9.315  68.403  1.00  0.00     0.122 C  
HETATM   25  C   UNL     1     -10.901   8.056  67.541  1.00  0.00    -0.132 C  
BRANCH  20  26
HETATM   26  C   UNL     1     -10.549   5.497  70.462  1.00  0.00    -0.269 C  
HETATM   27  N   UNL     1      -9.347   5.317  71.274  1.00  0.00    -0.145 NA 
HETATM   28  H2  UNL     1      -9.177   6.149  71.840  1.00  0.00     0.000 HD 
HETATM   29  H1  UNL     1      -9.343   4.484  71.863  1.00  0.00     0.000 HD 
ENDBRANCH  20  26
ENDBRANCH  16  17
ENDBRANCH   8  16
BRANCH  10  30
HETATM   30  O   UNL     1     -12.293  14.088  69.368  1.00  0.00    -0.333 OA 
BRANCH  30  31
HETATM   31  C   UNL     1     -11.702  13.778  68.092  1.00  0.00    -0.357 C  
HETATM   32  O   UNL     1     -10.065  12.347  69.237  1.00  0.00    -0.389 OA 
HETATM   33  C   UNL     1      -9.552  15.622  67.327  1.00  0.00    -0.217 C  
HETATM   34  C   UNL     1     -10.225  13.244  68.125  1.00  0.00    -0.243 C  
HETATM   35  O   UNL     1     -11.826  14.901  67.232  1.00  0.00    -0.345 OA 
HETATM   36  O   UNL     1      -9.481  15.419  65.901  1.00  0.00    -0.327 OA 
HETATM   37  C   UNL     1      -9.099  14.327  68.095  1.00  0.00    -0.193 C  
HETATM   38  H   UNL     1      -8.583  15.207  65.671  1.00  0.00     0.000 HD 
HETATM   39  C   UNL     1      -8.656  16.823  67.637  1.00  0.00    -0.211 C  
HETATM   40  H   UNL     1      -9.172  12.023  69.257  1.00  0.00     0.000 HD 
HETATM   41  C   UNL     1     -10.990  15.962  67.695  1.00  0.00    -0.298 C  
BRANCH  37  42
HETATM   42  N   UNL     1      -7.824  13.854  67.482  1.00  0.00    -0.173 NA 
HETATM   43  H   UNL     1      -7.088  13.461  68.070  1.00  0.00     0.000 HD 
HETATM   44  C   UNL     1      -7.635  13.953  66.056  1.00  0.00     3.516 C  
ENDBRANCH  37  42
ENDBRANCH  30  31
ENDBRANCH  10  30
ENDBRANCH   3   5
ENDBRANCH   2   3
TORSDOF 8
ENDMDL
MODEL      281
REMARK 921   NORMALIZED FREE ENERGY PREDICTED BY IDOCK:   27.03 KCAL/MOL
REMARK 922        TOTAL FREE ENERGY PREDICTED BY IDOCK:   38.92 KCAL/MOL
REMARK 923 INTER-LIGAND FREE ENERGY PREDICTED BY IDOCK:   17.81 KCAL/MOL
REMARK 924 INTRA-LIGAND FREE ENERGY PREDICTED BY IDOCK:   21.11 KCAL/MOL
REMARK 927      BINDING AFFINITY PREDICTED BY RF-SCORE:    0.00 PKD
ROOT
HETATM    1  C   UNL     1     -11.952  14.162  74.514  1.00  0.00     2.690 C  
HETATM    2  C   UNL     1     -11.755  15.241  73.458  1.00  0.00    -0.154 C  
ENDROOT
BRANCH   2   3
HETATM    3  N   UNL     1     -12.607  14.975  72.296  1.00  0.00    -0.324 NA 
HETATM    4  H   UNL     1     -12.353  15.595  71.527  1.00  0.00     0.000 HD 
BRANCH   3   5
HETATM    5  C   UNL     1     -12.624  13.562  71.826  1.00  0.00    -0.168 C  
HETATM    6  C   UNL     1     -12.267  12.588  72.959  1.00  0.00     4.407 C  
HETATM    7  C   UNL     1     -12.329  11.129  72.497  1.00  0.00     2.239 C  
HETATM    8  C   UNL     1     -11.287  10.870  71.374  1.00  0.00     1.172 C  
HETATM    9  N   UNL     1     -12.097  10.262  73.670  1.00  0.00     6.502 NA 
HETATM   10  C   UNL     1     -11.786  13.346  70.533  1.00  0.00    -0.158 C  
HETATM   11  H2  UNL     1     -12.740  10.458  74.437  1.00  0.00     0.000 HD 
HETATM   12  H1  UNL     1     -12.138   9.291  73.362  1.00  0.00     0.000 HD 
HETATM   13  C   UNL     1     -11.442  11.879  70.206  1.00  0.00     0.066 C  
HETATM   14  H   UNL     1     -10.321  12.569  68.703  1.00  0.00     0.000 HD 
HETATM   15  O   UNL     1     -10.226  11.951  69.418  1.00  0.00     0.125 OA 
BRANCH   8  16
HETATM   16  O   UNL     1     -11.460   9.499  70.889  1.00  0.00    -0.283 OA 
BRANCH  16  17
HETATM   17  C   UNL     1     -11.024   8.479  71.818  1.00  0.00    -0.306 C  
HETATM   18  H1  UNL     1      -7.858   8.412  70.390  1.00  0.00     0.000 HD 
HETATM   19  O   UNL     1     -12.034   7.469  71.928  1.00  0.00    -0.283 OA 
HETATM   20  C   UNL     1     -11.873   6.347  71.145  1.00  0.00    -0.263 C  
HETATM   21  H2  UNL     1      -8.838   9.729  70.717  1.00  0.00     0.000 HD 
HETATM   22  N   UNL     1      -8.818   8.725  70.536  1.00  0.00    -0.160 NA 
HETATM   23  C   UNL     1     -10.654   5.840  70.916  1.00  0.00    -0.329 C  
HETATM   24  C   UNL     1      -9.551   7.999  71.592  1.00  0.00    -0.167 C  
HETATM   25  C   UNL     1      -9.436   6.475  71.490  1.00  0.00    -0.162 C  
BRANCH  20  26
HETATM   26  C   UNL     1     -13.180   5.754  70.672  1.00  0.00     4.453 C  
HETATM   27  N   UNL     1     -14.271   5.808  71.642  1.00  0.00     1.619 NA 
HETATM   28  H2  UNL     1     -14.414   6.767  71.958  1.00  0.00     0.000 HD 
HETATM   29  H1  UNL     1     -15.154   5.408  71.323  1.00  0.00     0.000 HD 
ENDBRANCH  20  26
ENDBRANCH  16  17
ENDBRANCH   8  16
BRANCH  10  30
HETATM   30  O   UNL     1     -12.293  14.088  69.368  1.00  0.00    -0.333 OA 
BRANCH  30  31
HETATM   31  C   UNL     1     -11.702  13.778  68.092  1.00  0.00    -0.357 C  
HETATM   32  O   UNL     1     -11.727  11.397  68.699  1.00  0.00    -0.295 OA 
HETATM   33  C   UNL     1      -8.769  13.758  68.142  1.00  0.00    -0.183 C  
HETATM   34  C   UNL     1     -10.971  12.391  67.987  1.00  0.00    -0.225 C  
HETATM   35  O   UNL     1     -10.849  14.842  67.698  1.00  0.00    -0.272 OA 
HETATM   36  O   UNL     1      -8.447  13.914  66.745  1.00  0.00    -0.417 OA 
HETATM   37  C   UNL     1      -9.464  12.373  68.400  1.00  0.00    -0.169 C  
HETATM   38  H   UNL     1      -7.864  13.208  66.490  1.00  0.00     0.000 HD 
HETATM   39  C   UNL     1      -7.450  13.896  68.906  1.00  0.00    -0.080 C  
HETATM   40  H   UNL     1     -11.286  10.558  68.635  1.00  0.00     0.000 HD 
HETATM   41  C   UNL     1      -9.704  14.889  68.551  1.00  0.00    -0.215 C  
BRANCH  37  42
HETATM   42  N   UNL     1      -8.663  11.322  67.709  1.00  0.00    -0.131 NA 
HETATM   43  H   UNL     1      -8.537  10.406  68.142  1.00  0.00     0.000 HD 
HETATM   44  C   UNL     1      -8.066  11.604  66.427  1.00  0.00    -0.023 C  
ENDBRANCH  37  42
ENDBRANCH  30  31
ENDBRANCH  10  30
ENDBRANCH   3   5
ENDBRANCH   2   3
TORSDOF 8
ENDMDL
MODEL      282
REMARK 921   NORMALIZED FREE ENERGY PREDICTED BY IDOCK:   28.61 KCAL/MOL
REMARK 922        TOTAL FREE ENERGY PREDICTED BY IDOCK:   41.25 KCAL/MOL
REMARK 923 INTER-LIGAND FREE ENERGY PREDICTED BY IDOCK:   31.86 KCAL/MOL
REMARK 924 INTRA-LIGAND FREE ENERGY PREDICTED BY IDOCK:    9.39 KCAL/MOL
REMARK 927      BINDING AFFINITY PREDICTED BY RF-SCORE:    0.00 PKD
ROOT
HETATM    1  C   UNL     1     -11.213   8.734  65.968  1.00  0.00     3.079 C  
HETATM    2  C   UNL     1     -10.754   8.502  67.401  1.00  0.00    -0.145 C  
ENDROOT
BRANCH   2   3
HETATM    3  N   UNL     1      -9.324   8.797  67.529  1.00  0.00    -0.135 NA 
HETATM    4  H   UNL     1      -8.992   9.285  66.696  1.00  0.00     0.000 HD 
BRANCH   3   5
HETATM    5  C   UNL     1      -8.934   9.553  68.751  1.00  0.00    -0.133 C  
HETATM    6  C   UNL     1      -9.842  10.771  68.974  1.00  0.00    -0.208 C  
HETATM    7  C   UNL     1      -9.477  11.527  70.255  1.00  0.00     3.097 C  
HETATM    8  C   UNL     1      -8.033  12.090  70.161  1.00  0.00     2.858 C  
HETATM    9  N   UNL     1     -10.472  12.600  70.459  1.00  0.00     2.320 NA 
HETATM   10  C   UNL     1      -7.416   9.893  68.789  1.00  0.00    -0.079 C  
HETATM   11  H2  UNL     1     -11.431  12.251  70.468  1.00  0.00     0.000 HD 
HETATM   12  H1  UNL     1     -10.229  13.103  71.311  1.00  0.00     0.000 HD 
HETATM   13  C   UNL     1      -7.008  10.981  69.803  1.00  0.00    -0.090 C  
HETATM   14  H   UNL     1      -5.164  10.876  69.042  1.00  0.00     0.000 HD 
HETATM   15  O   UNL     1      -5.791  11.555  69.262  1.00  0.00    -0.052 OA 
BRANCH   8  16
HETATM   16  O   UNL     1      -7.691  12.705  71.446  1.00  0.00     6.674 OA 
BRANCH  16  17
HETATM   17  C   UNL     1      -7.567  14.145  71.403  1.00  0.00     3.951 C  
HETATM   18  H1  UNL     1     -10.910  14.541  72.260  1.00  0.00     0.000 HD 
HETATM   19  O   UNL     1      -6.839  14.528  70.230  1.00  0.00    -0.120 OA 
HETATM   20  C   UNL     1      -7.586  14.898  69.133  1.00  0.00    -0.160 C  
HETATM   21  H2  UNL     1      -9.793  13.446  72.855  1.00  0.00     0.000 HD 
HETATM   22  N   UNL     1     -10.041  14.044  72.066  1.00  0.00     5.681 NA 
HETATM   23  C   UNL     1      -8.729  15.580  69.281  1.00  0.00    -0.260 C  
HETATM   24  C   UNL     1      -8.901  14.908  71.701  1.00  0.00     4.728 C  
HETATM   25  C   UNL     1      -9.235  15.953  70.631  1.00  0.00     1.884 C  
BRANCH  20  26
HETATM   26  C   UNL     1      -6.944  14.523  67.817  1.00  0.00    -0.179 C  
HETATM   27  N   UNL     1      -7.879  14.162  66.754  1.00  0.00    -0.246 NA 
HETATM   28  H2  UNL     1      -8.558  14.910  66.613  1.00  0.00     0.000 HD 
HETATM   29  H1  UNL     1      -7.446  13.909  65.865  1.00  0.00     0.000 HD 
ENDBRANCH  20  26
ENDBRANCH  16  17
ENDBRANCH   8  16
BRANCH  10  30
HETATM   30  O   UNL     1      -6.544   8.710  68.839  1.00  0.00    -0.051 OA 
BRANCH  30  31
HETATM   31  C   UNL     1      -6.698   7.835  69.973  1.00  0.00    -0.045 C  
HETATM   32  O   UNL     1      -7.302   6.012  68.439  1.00  0.00    -0.081 OA 
HETATM   33  C   UNL     1      -9.420   7.816  71.066  1.00  0.00    -0.155 C  
HETATM   34  C   UNL     1      -7.577   6.552  69.743  1.00  0.00    -0.097 C  
HETATM   35  O   UNL     1      -7.161   8.585  71.085  1.00  0.00    -0.058 OA 
HETATM   36  O   UNL     1      -9.203   7.299  72.395  1.00  0.00    -0.133 OA 
HETATM   37  C   UNL     1      -9.112   6.717  69.986  1.00  0.00    -0.151 C  
HETATM   38  H   UNL     1      -9.775   6.551  72.524  1.00  0.00     0.000 HD 
HETATM   39  C   UNL     1     -10.876   8.283  71.018  1.00  0.00    -0.269 C  
HETATM   40  H   UNL     1      -7.833   5.237  68.301  1.00  0.00     0.000 HD 
HETATM   41  C   UNL     1      -8.503   9.014  70.858  1.00  0.00    -0.208 C  
BRANCH  37  42
HETATM   42  N   UNL     1      -9.793   5.458  70.405  1.00  0.00    -0.190 NA 
HETATM   43  H   UNL     1      -9.279   4.747  70.926  1.00  0.00     0.000 HD 
HETATM   44  C   UNL     1     -11.180   5.248  70.071  1.00  0.00     0.831 C  
ENDBRANCH  37  42
ENDBRANCH  30  31
ENDBRANCH  10  30
ENDBRANCH   3   5
ENDBRANCH   2   3
TORSDOF 8
ENDMDL
MODEL      283
REMARK 921   NORMALIZED FREE ENERGY PREDICTED BY IDOCK:   31.50 KCAL/MOL
REMARK 922        TOTAL FREE ENERGY PREDICTED BY IDOCK:   45.50 KCAL/MOL
REMARK 923 INTER-LIGAND FREE ENERGY PREDICTED BY IDOCK:   37.74 KCAL/MOL
REMARK 924 INTRA-LIGAND FREE ENERGY PREDICTED BY IDOCK:    7.76 KCAL/MOL
REMARK 927      BINDING AFFINITY PREDICTED BY RF-SCORE:    0.00 PKD
ROOT
HETATM    1  C   UNL     1     -11.984   6.582  65.484  1.00  0.00     6.168 C  
HETATM    2  C   UNL     1     -11.174   7.871  65.448  1.00  0.00     7.134 C  
ENDROOT
BRANCH   2   3
HETATM    3  N   UNL     1     -12.063   9.032  65.552  1.00  0.00     8.135 NA 
HETATM    4  H   UNL     1     -12.494   9.060  66.476  1.00  0.00     0.000 HD 
BRANCH   3   5
HETATM    5  C   UNL     1     -11.437  10.347  65.241  1.00  0.00     1.801 C  
HETATM    6  C   UNL     1     -10.220  10.186  64.318  1.00  0.00     0.162 C  
HETATM    7  C   UNL     1      -9.598  11.538  63.955  1.00  0.00    -0.193 C  
HETATM    8  C   UNL     1      -9.069  12.252  65.229  1.00  0.00     0.444 C  
HETATM    9  N   UNL     1      -8.521  11.303  62.971  1.00  0.00    -0.445 NA 
HETATM   10  C   UNL     1     -11.144  11.190  66.515  1.00  0.00    -0.167 C  
HETATM   11  H2  UNL     1      -8.843  10.786  62.152  1.00  0.00     0.000 HD 
HETATM   12  H1  UNL     1      -8.107  12.203  62.730  1.00  0.00     0.000 HD 
HETATM   13  C   UNL     1     -10.168  12.368  66.318  1.00  0.00    -0.238 C  
HETATM   14  H   UNL     1     -10.253  12.655  68.293  1.00  0.00     0.000 HD 
HETATM   15  O   UNL     1      -9.580  12.585  67.627  1.00  0.00    -0.181 OA 
BRANCH   8  16
HETATM   16  O   UNL     1      -8.588  13.582  64.848  1.00  0.00     2.707 OA 
BRANCH  16  17
HETATM   17  C   UNL     1      -7.644  14.163  65.778  1.00  0.00     5.000 C  
HETATM   18  H1  UNL     1      -6.548  11.016  66.760  1.00  0.00     0.000 HD 
HETATM   19  O   UNL     1      -8.282  15.215  66.512  1.00  0.00    -0.150 OA 
HETATM   20  C   UNL     1      -8.784  14.886  67.752  1.00  0.00    -0.167 C  
HETATM   21  H2  UNL     1      -6.929  11.568  65.227  1.00  0.00     0.000 HD 
HETATM   22  N   UNL     1      -7.081  11.703  66.226  1.00  0.00     0.134 NA 
HETATM   23  C   UNL     1      -8.142  14.015  68.542  1.00  0.00    -0.139 C  
HETATM   24  C   UNL     1      -6.826  13.109  66.597  1.00  0.00     1.500 C  
HETATM   25  C   UNL     1      -6.873  13.369  68.107  1.00  0.00    -0.117 C  
BRANCH  20  26
HETATM   26  C   UNL     1     -10.037  15.649  68.113  1.00  0.00    -0.222 C  
HETATM   27  N   UNL     1     -10.205  16.925  67.420  1.00  0.00    -0.291 NA 
HETATM   28  H2  UNL     1     -10.156  16.787  66.411  1.00  0.00     0.000 HD 
HETATM   29  H1  UNL     1     -11.051  17.440  67.663  1.00  0.00     0.000 HD 
ENDBRANCH  20  26
ENDBRANCH  16  17
ENDBRANCH   8  16
BRANCH  10  30
HETATM   30  O   UNL     1     -12.351  11.567  67.267  1.00  0.00    -0.030 OA 
BRANCH  30  31
HETATM   31  C   UNL     1     -12.164  11.978  68.634  1.00  0.00     0.120 C  
HETATM   32  O   UNL     1     -10.083  10.674  68.705  1.00  0.00    -0.174 OA 
HETATM   33  C   UNL     1     -13.378  10.143  70.575  1.00  0.00     0.069 C  
HETATM   34  C   UNL     1     -11.208  11.082  69.501  1.00  0.00    -0.279 C  
HETATM   35  O   UNL     1     -13.432  12.132  69.255  1.00  0.00     2.365 OA 
HETATM   36  O   UNL     1     -13.484  10.978  71.746  1.00  0.00    -0.313 OA 
HETATM   37  C   UNL     1     -11.871   9.866  70.226  1.00  0.00    -0.184 C  
HETATM   38  H   UNL     1     -13.062  10.533  72.472  1.00  0.00     0.000 HD 
HETATM   39  C   UNL     1     -14.146   8.858  70.891  1.00  0.00     0.155 C  
HETATM   40  H   UNL     1      -9.505  10.132  69.229  1.00  0.00     0.000 HD 
HETATM   41  C   UNL     1     -14.055  10.857  69.412  1.00  0.00     5.823 C  
BRANCH  37  42
HETATM   42  N   UNL     1     -11.176   9.462  71.482  1.00  0.00    -0.378 NA 
HETATM   43  H   UNL     1     -11.678   9.471  72.370  1.00  0.00     0.000 HD 
HETATM   44  C   UNL     1      -9.793   9.057  71.436  1.00  0.00    -0.311 C  
ENDBRANCH  37  42
ENDBRANCH  30  31
ENDBRANCH  10  30
ENDBRANCH   3   5
ENDBRANCH   2   3
TORSDOF 8
ENDMDL
MODEL      284
REMARK 921   NORMALIZED FREE ENERGY PREDICTED BY IDOCK:   53.03 KCAL/MOL
REMARK 922        TOTAL FREE ENERGY PREDICTED BY IDOCK:   77.09 KCAL/MOL
REMARK 923 INTER-LIGAND FREE ENERGY PREDICTED BY IDOCK:   36.16 KCAL/MOL
REMARK 924 INTRA-LIGAND FREE ENERGY PREDICTED BY IDOCK:   40.93 KCAL/MOL
REMARK 927      BINDING AFFINITY PREDICTED BY RF-SCORE:    0.00 PKD
ROOT
HETATM    1  C   UNL     1     -11.961  19.914  71.816  1.00  0.00    13.935 C  
HETATM    2  C   UNL     1     -11.455  18.482  71.714  1.00  0.00     5.202 C  
ENDROOT
BRANCH   2   3
HETATM    3  N   UNL     1     -11.604  17.988  70.342  1.00  0.00     3.133 NA 
HETATM    4  H   UNL     1     -12.301  18.543  69.845  1.00  0.00     0.000 HD 
BRANCH   3   5
HETATM    5  C   UNL     1     -10.347  17.917  69.547  1.00  0.00     0.256 C  
HETATM    6  C   UNL     1     -10.461  18.722  68.244  1.00  0.00    -0.321 C  
HETATM    7  C   UNL     1      -9.156  18.693  67.441  1.00  0.00    -0.279 C  
HETATM    8  C   UNL     1      -8.815  17.240  67.011  1.00  0.00    -0.228 C  
HETATM    9  N   UNL     1      -9.309  19.587  66.276  1.00  0.00    -0.369 NA 
HETATM   10  C   UNL     1      -9.850  16.458  69.336  1.00  0.00    -0.186 C  
HETATM   11  H2  UNL     1      -9.587  20.533  66.540  1.00  0.00     0.000 HD 
HETATM   12  H1  UNL     1      -8.441  19.568  65.742  1.00  0.00     0.000 HD 
HETATM   13  C   UNL     1      -8.797  16.273  68.225  1.00  0.00    -0.188 C  
HETATM   14  H   UNL     1      -8.942  14.305  68.536  1.00  0.00     0.000 HD 
HETATM   15  O   UNL     1      -8.952  14.896  67.793  1.00  0.00    -0.171 OA 
BRANCH   8  16
HETATM   16  O   UNL     1      -7.509  17.248  66.348  1.00  0.00    -0.245 OA 
BRANCH  16  17
HETATM   17  C   UNL     1      -7.312  18.351  65.433  1.00  0.00     0.313 C  
HETATM   18  H1  UNL     1      -4.641  19.538  67.309  1.00  0.00     0.000 HD 
HETATM   19  O   UNL     1      -8.579  18.938  65.113  1.00  0.00     0.846 OA 
HETATM   20  C   UNL     1      -8.946  20.049  65.841  1.00  0.00    -0.102 C  
HETATM   21  H2  UNL     1      -5.035  17.959  66.920  1.00  0.00     0.000 HD 
HETATM   22  N   UNL     1      -5.395  18.906  67.041  1.00  0.00    -0.146 NA 
HETATM   23  C   UNL     1      -8.034  20.954  66.217  1.00  0.00     0.394 C  
HETATM   24  C   UNL     1      -6.155  19.321  65.845  1.00  0.00    -0.188 C  
HETATM   25  C   UNL     1      -6.595  20.789  65.870  1.00  0.00    -0.223 C  
BRANCH  20  26
HETATM   26  C   UNL     1     -10.436  20.144  66.078  1.00  0.00    -0.337 C  
HETATM   27  N   UNL     1     -11.257  20.124  64.870  1.00  0.00     0.215 NA 
HETATM   28  H2  UNL     1     -11.042  19.298  64.312  1.00  0.00     0.000 HD 
HETATM   29  H1  UNL     1     -12.263  20.188  65.030  1.00  0.00     0.000 HD 
ENDBRANCH  20  26
ENDBRANCH  16  17
ENDBRANCH   8  16
BRANCH  10  30
HETATM   30  O   UNL     1      -9.491  15.768  70.585  1.00  0.00     0.773 OA 
BRANCH  30  31
HETATM   31  C   UNL     1     -10.527  15.635  71.576  1.00  0.00     0.929 C  
HETATM   32  O   UNL     1     -10.073  13.221  71.674  1.00  0.00     6.963 OA 
HETATM   33  C   UNL     1     -13.171  15.088  70.427  1.00  0.00    -0.110 C  
HETATM   34  C   UNL     1     -11.128  14.194  71.759  1.00  0.00     2.062 C  
HETATM   35  O   UNL     1     -11.546  16.590  71.322  1.00  0.00    -0.350 OA 
HETATM   36  O   UNL     1     -14.048  15.476  71.505  1.00  0.00    -0.488 OA 
HETATM   37  C   UNL     1     -12.327  13.824  70.826  1.00  0.00    -0.379 C  
HETATM   38  H   UNL     1     -14.629  14.748  71.696  1.00  0.00     0.000 HD 
HETATM   39  C   UNL     1     -14.067  14.828  69.214  1.00  0.00     5.538 C  
HETATM   40  H   UNL     1     -10.436  12.351  71.785  1.00  0.00     0.000 HD 
HETATM   41  C   UNL     1     -12.240  16.254  70.121  1.00  0.00     0.376 C  
BRANCH  37  42
HETATM   42  N   UNL     1     -13.258  12.818  71.414  1.00  0.00    -0.234 NA 
HETATM   43  H   UNL     1     -13.205  11.841  71.125  1.00  0.00     0.000 HD 
HETATM   44  C   UNL     1     -14.234  13.231  72.392  1.00  0.00    -0.234 C  
ENDBRANCH  37  42
ENDBRANCH  30  31
ENDBRANCH  10  30
ENDBRANCH   3   5
ENDBRANCH   2   3
TORSDOF 8
ENDMDL
MODEL      285
REMARK 921   NORMALIZED FREE ENERGY PREDICTED BY IDOCK:   53.95 KCAL/MOL
REMARK 922        TOTAL FREE ENERGY PREDICTED BY IDOCK:   78.44 KCAL/MOL
REMARK 923 INTER-LIGAND FREE ENERGY PREDICTED BY IDOCK:   77.23 KCAL/MOL
REMARK 924 INTRA-LIGAND FREE ENERGY PREDICTED BY IDOCK:    1.21 KCAL/MOL
REMARK 927      BINDING AFFINITY PREDICTED BY RF-SCORE:    0.00 PKD
ROOT
HETATM    1  C   UNL     1      -5.353   9.942  68.192  1.00  0.00    -0.039 C  
HETATM    2  C   UNL     1      -6.554  10.049  67.262  1.00  0.00    -0.069 C  
ENDROOT
BRANCH   2   3
HETATM    3  N   UNL     1      -6.390  11.187  66.352  1.00  0.00    -0.207 NA 
HETATM    4  H   UNL     1      -5.699  10.964  65.636  1.00  0.00     0.000 HD 
BRANCH   3   5
HETATM    5  C   UNL     1      -7.642  11.683  65.717  1.00  0.00     0.681 C  
HETATM    6  C   UNL     1      -7.363  12.862  64.772  1.00  0.00     8.794 C  
HETATM    7  C   UNL     1      -8.639  13.349  64.078  1.00  0.00     6.408 C  
HETATM    8  C   UNL     1      -9.659  13.879  65.123  1.00  0.00     0.242 C  
HETATM    9  N   UNL     1      -8.265  14.392  63.101  1.00  0.00    14.551 NA 
HETATM   10  C   UNL     1      -8.770  11.967  66.750  1.00  0.00    -0.192 C  
HETATM   11  H2  UNL     1      -7.555  14.075  62.440  1.00  0.00     0.000 HD 
HETATM   12  H1  UNL     1      -9.114  14.716  62.638  1.00  0.00     0.000 HD 
HETATM   13  C   UNL     1      -9.939  12.829  66.232  1.00  0.00    -0.264 C  
HETATM   14  H   UNL     1     -10.658  12.819  68.095  1.00  0.00     0.000 HD 
HETATM   15  O   UNL     1     -10.487  13.461  67.417  1.00  0.00    -0.241 OA 
BRANCH   8  16
HETATM   16  O   UNL     1     -10.899  14.227  64.426  1.00  0.00    -0.329 OA 
BRANCH  16  17
HETATM   17  C   UNL     1     -11.903  14.840  65.267  1.00  0.00    -0.276 C  
HETATM   18  H1  UNL     1     -14.460  13.451  63.370  1.00  0.00     0.000 HD 
HETATM   19  O   UNL     1     -11.546  16.204  65.521  1.00  0.00     0.251 OA 
HETATM   20  C   UNL     1     -12.129  17.155  64.713  1.00  0.00     3.075 C  
HETATM   21  H2  UNL     1     -13.015  12.760  63.857  1.00  0.00     0.000 HD 
HETATM   22  N   UNL     1     -13.501  13.636  63.665  1.00  0.00     1.684 NA 
HETATM   23  C   UNL     1     -13.394  17.017  64.294  1.00  0.00     7.941 C  
HETATM   24  C   UNL     1     -13.374  14.554  64.814  1.00  0.00     1.114 C  
HETATM   25  C   UNL     1     -14.209  15.832  64.681  1.00  0.00     4.599 C  
BRANCH  20  26
HETATM   26  C   UNL     1     -11.232  18.340  64.439  1.00  0.00     3.981 C  
HETATM   27  N   UNL     1     -10.149  18.090  63.491  1.00  0.00     9.940 NA 
HETATM   28  H2  UNL     1     -10.525  17.724  62.616  1.00  0.00     0.000 HD 
HETATM   29  H1  UNL     1      -9.543  18.889  63.306  1.00  0.00     0.000 HD 
ENDBRANCH  20  26
ENDBRANCH  16  17
ENDBRANCH   8  16
BRANCH  10  30
HETATM   30  O   UNL     1      -9.221  10.771  67.478  1.00  0.00    -0.143 OA 
BRANCH  30  31
HETATM   31  C   UNL     1     -10.640  10.622  67.669  1.00  0.00    -0.246 C  
HETATM   32  O   UNL     1     -10.256  10.385  70.084  1.00  0.00    -0.429 OA 
HETATM   33  C   UNL     1     -11.542   7.833  67.540  1.00  0.00     1.648 C  
HETATM   34  C   UNL     1     -11.090   9.929  69.006  1.00  0.00    -0.146 C  
HETATM   35  O   UNL     1     -11.200   9.972  66.537  1.00  0.00     0.202 OA 
HETATM   36  O   UNL     1     -12.951   7.989  67.272  1.00  0.00     8.974 OA 
HETATM   37  C   UNL     1     -11.188   8.369  68.975  1.00  0.00     0.411 C  
HETATM   38  H   UNL     1     -13.438   7.502  67.927  1.00  0.00     0.000 HD 
HETATM   39  C   UNL     1     -11.237   6.341  67.387  1.00  0.00    -0.242 C  
HETATM   40  H   UNL     1     -10.528   9.966  70.892  1.00  0.00     0.000 HD 
HETATM   41  C   UNL     1     -10.762   8.613  66.491  1.00  0.00     0.292 C  
BRANCH  37  42
HETATM   42  N   UNL     1     -12.185   7.810  69.932  1.00  0.00     0.161 NA 
HETATM   43  H   UNL     1     -11.871   7.311  70.765  1.00  0.00     0.000 HD 
HETATM   44  C   UNL     1     -13.595   7.977  69.677  1.00  0.00     5.103 C  
ENDBRANCH  37  42
ENDBRANCH  30  31
ENDBRANCH  10  30
ENDBRANCH   3   5
ENDBRANCH   2   3
TORSDOF 8
ENDMDL
