MODEL        1
REMARK 921   NORMALIZED FREE ENERGY PREDICTED BY IDOCK:   -8.60 KCAL/MOL
REMARK 922        TOTAL FREE ENERGY PREDICTED BY IDOCK:  -12.75 KCAL/MOL
REMARK 923 INTER-LIGAND FREE ENERGY PREDICTED BY IDOCK:  -11.11 KCAL/MOL
REMARK 924 INTRA-LIGAND FREE ENERGY PREDICTED BY IDOCK:   -1.64 KCAL/MOL
REMARK 927      BINDING AFFINITY PREDICTED BY RF-SCORE:    0.00 PKD
ROOT
HETATM    1  C   UNL     1     -12.641  13.340  65.224  1.00  0.00    -0.470 C  
HETATM    2  N   UNL     1     -11.362  13.228  65.944  1.00  0.00    -0.305 N  
HETATM    3  O   UNL     1     -10.859  15.320  65.249  1.00  0.00    -0.351 OA 
HETATM    4  C   UNL     1     -10.589  14.386  66.023  1.00  0.00    -0.302 C  
ENDROOT
BRANCH   2   5
HETATM    5  C   UNL     1     -11.294  12.132  66.826  1.00  0.00    -0.342 A  
HETATM    6  C   UNL     1     -10.654  10.004  67.660  1.00  0.00    -0.323 A  
HETATM    7  C   UNL     1     -12.035  12.247  68.014  1.00  0.00    -0.187 A  
HETATM    8  C   UNL     1     -10.567  10.949  66.597  1.00  0.00    -0.305 A  
HETATM    9  C   UNL     1     -11.311  10.243  68.877  1.00  0.00    -0.173 A  
HETATM   10  N   UNL     1     -12.038  11.358  69.022  1.00  0.00    -0.421 NA 
BRANCH   9  11
HETATM   11  N   UNL     1     -11.207   9.385  69.953  1.00  0.00    -0.201 NA 
HETATM   12  C   UNL     1     -10.685   8.020  69.762  1.00  0.00    -0.231 C  
HETATM   13  C   UNL     1     -12.734   8.538  71.734  1.00  0.00    -0.349 C  
HETATM   14  C   UNL     1     -11.630   6.935  70.338  1.00  0.00    -0.335 C  
HETATM   15  N   UNL     1     -12.149   7.183  71.702  1.00  0.00    -0.317 NA 
HETATM   16  C   UNL     1     -11.109   7.022  72.716  1.00  0.00    -0.284 C  
HETATM   17  C   UNL     1     -11.797   9.677  71.264  1.00  0.00    -0.381 C  
ENDBRANCH   9  11
BRANCH   8  18
HETATM   18  C   UNL     1      -9.623  10.630  65.443  1.00  0.00    -0.282 A  
HETATM   19  C   UNL     1      -9.457  10.347  62.967  1.00  0.00    -0.362 A  
HETATM   20  C   UNL     1      -8.111  10.063  63.054  1.00  0.00    -0.150 A  
HETATM   21  C   UNL     1     -10.190  10.598  64.134  1.00  0.00    -0.365 A  
HETATM   22  C   UNL     1      -7.511  10.059  64.304  1.00  0.00    -0.137 A  
HETATM   23  C   UNL     1      -8.230  10.370  65.490  1.00  0.00    -0.162 A  
HETATM   24  C   UNL     1      -7.381  10.373  66.727  1.00  0.00    -0.110 C  
ENDBRANCH   8  18
ENDBRANCH   2   5
BRANCH   4  25
HETATM   25  C   UNL     1      -9.434  14.631  67.076  1.00  0.00    -0.249 C  
HETATM   26  C   UNL     1      -8.312  15.274  66.220  1.00  0.00     0.164 C  
HETATM   27  C   UNL     1      -8.787  13.465  67.832  1.00  0.00    -0.194 C  
BRANCH  25  28
HETATM   28  C   UNL     1      -9.943  15.593  68.187  1.00  0.00    -0.217 A  
HETATM   29  C   UNL     1     -11.103  15.927  70.327  1.00  0.00    -0.381 A  
HETATM   30  C   UNL     1     -10.632  15.088  69.304  1.00  0.00    -0.249 A  
HETATM   31  F   UNL     1     -10.380  20.044  70.091  1.00  0.00    -0.351 F  
HETATM   32  C   UNL     1     -11.889  15.364  71.487  1.00  0.00    -0.387 C  
HETATM   33  F   UNL     1     -10.299  19.871  67.926  1.00  0.00    -0.487 F  
HETATM   34  C   UNL     1     -10.846  17.303  70.249  1.00  0.00     0.749 A  
HETATM   35  F   UNL     1     -11.297  15.613  72.688  1.00  0.00    -0.499 F  
HETATM   36  F   UNL     1     -12.054  14.011  71.428  1.00  0.00    -0.389 F  
HETATM   37  F   UNL     1      -8.498  19.582  69.107  1.00  0.00    -0.392 F  
HETATM   38  C   UNL     1      -9.833  19.316  69.078  1.00  0.00    -0.401 C  
HETATM   39  C   UNL     1     -10.129  17.838  69.169  1.00  0.00    -0.220 A  
HETATM   40  F   UNL     1     -13.142  15.888  71.571  1.00  0.00    -0.492 F  
HETATM   41  C   UNL     1      -9.680  16.974  68.152  1.00  0.00    -0.268 A  
ENDBRANCH  25  28
ENDBRANCH   4  25
TORSDOF 5
ENDMDL
MODEL        2
REMARK 921   NORMALIZED FREE ENERGY PREDICTED BY IDOCK:   -8.46 KCAL/MOL
REMARK 922        TOTAL FREE ENERGY PREDICTED BY IDOCK:  -12.58 KCAL/MOL
REMARK 923 INTER-LIGAND FREE ENERGY PREDICTED BY IDOCK:  -11.61 KCAL/MOL
REMARK 924 INTRA-LIGAND FREE ENERGY PREDICTED BY IDOCK:   -0.97 KCAL/MOL
REMARK 927      BINDING AFFINITY PREDICTED BY RF-SCORE:    0.00 PKD
ROOT
HETATM    1  C   UNL     1     -12.457  13.321  65.249  1.00  0.00    -0.489 C  
HETATM    2  N   UNL     1     -11.235  13.333  66.070  1.00  0.00    -0.294 N  
HETATM    3  O   UNL     1     -10.819  15.420  65.307  1.00  0.00    -0.358 OA 
HETATM    4  C   UNL     1     -10.550  14.544  66.147  1.00  0.00    -0.306 C  
ENDROOT
BRANCH   2   5
HETATM    5  C   UNL     1     -11.165  12.286  67.010  1.00  0.00    -0.310 A  
HETATM    6  C   UNL     1     -10.531  10.202  67.953  1.00  0.00    -0.265 A  
HETATM    7  C   UNL     1     -11.894  12.471  68.196  1.00  0.00    -0.317 A  
HETATM    8  C   UNL     1     -10.448  11.087  66.839  1.00  0.00    -0.293 A  
HETATM    9  C   UNL     1     -11.173  10.513  69.161  1.00  0.00    -0.256 A  
HETATM   10  N   UNL     1     -11.893  11.639  69.252  1.00  0.00    -0.318 NA 
BRANCH   9  11
HETATM   11  N   UNL     1     -11.064   9.714  70.282  1.00  0.00    -0.259 NA 
HETATM   12  C   UNL     1     -10.205   8.517  70.255  1.00  0.00    -0.193 C  
HETATM   13  C   UNL     1     -12.641   8.532  71.811  1.00  0.00    -0.346 C  
HETATM   14  C   UNL     1     -10.951   7.238  70.713  1.00  0.00    -0.251 C  
HETATM   15  N   UNL     1     -11.752   7.361  71.952  1.00  0.00    -0.279 NA 
HETATM   16  C   UNL     1     -10.906   7.468  73.138  1.00  0.00    -0.395 C  
HETATM   17  C   UNL     1     -11.935   9.863  71.453  1.00  0.00    -0.404 C  
ENDBRANCH   9  11
BRANCH   8  18
HETATM   18  C   UNL     1      -9.518  10.700  65.695  1.00  0.00    -0.257 A  
HETATM   19  C   UNL     1      -9.378  10.284  63.237  1.00  0.00    -0.340 A  
HETATM   20  C   UNL     1      -8.033   9.992  63.327  1.00  0.00    -0.154 A  
HETATM   21  C   UNL     1     -10.098  10.603  64.395  1.00  0.00    -0.418 A  
HETATM   22  C   UNL     1      -7.421  10.049  64.569  1.00  0.00    -0.142 A  
HETATM   23  C   UNL     1      -8.127  10.429  65.744  1.00  0.00    -0.155 A  
HETATM   24  C   UNL     1      -7.266  10.489  66.971  1.00  0.00    -0.098 C  
ENDBRANCH   8  18
ENDBRANCH   2   5
BRANCH   4  25
HETATM   25  C   UNL     1      -9.502  14.918  67.272  1.00  0.00    -0.216 C  
HETATM   26  C   UNL     1      -8.352  13.907  67.027  1.00  0.00    -0.113 C  
HETATM   27  C   UNL     1      -9.860  14.814  68.758  1.00  0.00    -0.227 C  
BRANCH  25  28
HETATM   28  C   UNL     1      -9.036  16.389  67.076  1.00  0.00    -0.232 A  
HETATM   29  C   UNL     1      -7.307  17.982  66.363  1.00  0.00    -0.292 A  
HETATM   30  C   UNL     1      -7.759  16.667  66.556  1.00  0.00    -0.337 A  
HETATM   31  F   UNL     1      -9.848  21.177  67.291  1.00  0.00    -0.622 F  
HETATM   32  C   UNL     1      -5.909  18.251  65.857  1.00  0.00    -0.202 C  
HETATM   33  F   UNL     1     -10.851  19.912  68.747  1.00  0.00    -0.327 F  
HETATM   34  C   UNL     1      -8.167  19.047  66.663  1.00  0.00    -0.301 A  
HETATM   35  F   UNL     1      -5.904  18.960  64.694  1.00  0.00    -0.250 F  
HETATM   36  F   UNL     1      -5.193  17.118  65.605  1.00  0.00    -0.102 F  
HETATM   37  F   UNL     1     -11.519  19.928  66.679  1.00  0.00    -0.312 F  
HETATM   38  C   UNL     1     -10.405  19.945  67.461  1.00  0.00    -0.417 C  
HETATM   39  C   UNL     1      -9.461  18.808  67.147  1.00  0.00    -0.328 A  
HETATM   40  F   UNL     1      -5.166  18.973  66.739  1.00  0.00    -0.144 F  
HETATM   41  C   UNL     1      -9.883  17.479  67.342  1.00  0.00    -0.297 A  
ENDBRANCH  25  28
ENDBRANCH   4  25
TORSDOF 5
ENDMDL
MODEL        3
REMARK 921   NORMALIZED FREE ENERGY PREDICTED BY IDOCK:   -8.41 KCAL/MOL
REMARK 922        TOTAL FREE ENERGY PREDICTED BY IDOCK:  -12.50 KCAL/MOL
REMARK 923 INTER-LIGAND FREE ENERGY PREDICTED BY IDOCK:  -10.75 KCAL/MOL
REMARK 924 INTRA-LIGAND FREE ENERGY PREDICTED BY IDOCK:   -1.75 KCAL/MOL
REMARK 927      BINDING AFFINITY PREDICTED BY RF-SCORE:    0.00 PKD
ROOT
HETATM    1  C   UNL     1     -10.687   7.977  67.310  1.00  0.00    -0.210 C  
HETATM    2  N   UNL     1      -9.919   9.112  67.848  1.00  0.00    -0.176 N  
HETATM    3  O   UNL     1      -8.283   8.628  66.364  1.00  0.00    -0.107 OA 
HETATM    4  C   UNL     1      -8.753   9.455  67.164  1.00  0.00    -0.128 C  
ENDROOT
BRANCH   2   5
HETATM    5  C   UNL     1     -10.666   9.968  68.680  1.00  0.00    -0.226 A  
HETATM    6  C   UNL     1     -11.563  10.874  70.683  1.00  0.00    -0.341 A  
HETATM    7  C   UNL     1     -11.392  10.981  68.032  1.00  0.00    -0.306 A  
HETATM    8  C   UNL     1     -10.750   9.870  70.082  1.00  0.00    -0.361 A  
HETATM    9  C   UNL     1     -12.154  11.935  69.980  1.00  0.00    -0.291 A  
HETATM   10  N   UNL     1     -12.097  11.950  68.642  1.00  0.00    -0.377 NA 
BRANCH   9  11
HETATM   11  N   UNL     1     -12.767  12.994  70.620  1.00  0.00    -0.163 NA 
HETATM   12  C   UNL     1     -12.623  14.361  70.090  1.00  0.00    -0.286 C  
HETATM   13  C   UNL     1     -12.815  13.912  72.939  1.00  0.00    -0.169 C  
HETATM   14  C   UNL     1     -12.135  15.367  71.163  1.00  0.00    -0.363 C  
HETATM   15  N   UNL     1     -12.828  15.311  72.470  1.00  0.00    -0.342 NA 
HETATM   16  C   UNL     1     -14.189  15.838  72.385  1.00  0.00    -0.345 C  
HETATM   17  C   UNL     1     -13.387  12.872  71.944  1.00  0.00    -0.435 C  
ENDBRANCH   9  11
BRANCH   8  18
HETATM   18  C   UNL     1      -9.989   8.928  71.008  1.00  0.00    -0.324 A  
HETATM   19  C   UNL     1      -7.727   8.290  71.852  1.00  0.00    -0.143 A  
HETATM   20  C   UNL     1      -8.265   7.303  72.651  1.00  0.00    -0.123 A  
HETATM   21  C   UNL     1      -8.568   9.058  71.038  1.00  0.00    -0.264 A  
HETATM   22  C   UNL     1      -9.638   7.116  72.646  1.00  0.00    -0.177 A  
HETATM   23  C   UNL     1     -10.509   7.929  71.869  1.00  0.00    -0.284 A  
HETATM   24  C   UNL     1     -11.962   7.605  72.056  1.00  0.00    -0.341 C  
ENDBRANCH   8  18
ENDBRANCH   2   5
BRANCH   4  25
HETATM   25  C   UNL     1      -8.020  10.852  67.273  1.00  0.00    -0.123 C  
HETATM   26  C   UNL     1      -6.656  10.585  66.582  1.00  0.00    -0.094 C  
HETATM   27  C   UNL     1      -7.699  11.477  68.636  1.00  0.00    -0.139 C  
BRANCH  25  28
HETATM   28  C   UNL     1      -8.850  11.932  66.525  1.00  0.00    -0.178 A  
HETATM   29  C   UNL     1      -9.540  14.278  66.284  1.00  0.00    -0.310 A  
HETATM   30  C   UNL     1      -8.807  13.276  66.938  1.00  0.00    -0.186 A  
HETATM   31  F   UNL     1     -11.876  13.264  62.961  1.00  0.00    -0.522 F  
HETATM   32  C   UNL     1      -9.519  15.703  66.785  1.00  0.00    -0.242 C  
HETATM   33  F   UNL     1     -12.067  11.248  63.753  1.00  0.00    -0.329 F  
HETATM   34  C   UNL     1     -10.310  13.934  65.164  1.00  0.00    -0.403 A  
HETATM   35  F   UNL     1      -9.065  16.579  65.846  1.00  0.00    -0.322 F  
HETATM   36  F   UNL     1      -8.723  15.885  67.877  1.00  0.00    -0.163 F  
HETATM   37  F   UNL     1     -10.389  11.757  62.469  1.00  0.00    -0.111 F  
HETATM   38  C   UNL     1     -11.162  12.229  63.485  1.00  0.00    -0.460 C  
HETATM   39  C   UNL     1     -10.348  12.612  64.699  1.00  0.00    -0.354 A  
HETATM   40  F   UNL     1     -10.754  16.147  67.146  1.00  0.00    -0.303 F  
HETATM   41  C   UNL     1      -9.612  11.626  65.383  1.00  0.00    -0.228 A  
ENDBRANCH  25  28
ENDBRANCH   4  25
TORSDOF 5
ENDMDL
MODEL        4
REMARK 921   NORMALIZED FREE ENERGY PREDICTED BY IDOCK:   -8.40 KCAL/MOL
REMARK 922        TOTAL FREE ENERGY PREDICTED BY IDOCK:  -12.49 KCAL/MOL
REMARK 923 INTER-LIGAND FREE ENERGY PREDICTED BY IDOCK:   -9.51 KCAL/MOL
REMARK 924 INTRA-LIGAND FREE ENERGY PREDICTED BY IDOCK:   -2.98 KCAL/MOL
REMARK 927      BINDING AFFINITY PREDICTED BY RF-SCORE:    0.00 PKD
ROOT
HETATM    1  C   UNL     1      -6.431   7.394  66.910  1.00  0.00    -0.056 C  
HETATM    2  N   UNL     1      -7.879   7.183  66.746  1.00  0.00    -0.101 N  
HETATM    3  O   UNL     1      -7.586   5.056  67.455  1.00  0.00    -0.085 OA 
HETATM    4  C   UNL     1      -8.389   5.976  67.220  1.00  0.00    -0.105 C  
ENDROOT
BRANCH   2   5
HETATM    5  C   UNL     1      -8.614   8.371  66.560  1.00  0.00    -0.120 A  
HETATM    6  C   UNL     1      -9.810  10.340  67.127  1.00  0.00    -0.228 A  
HETATM    7  C   UNL     1      -8.869   8.736  65.228  1.00  0.00    -0.162 A  
HETATM    8  C   UNL     1      -9.114   9.187  67.591  1.00  0.00    -0.133 A  
HETATM    9  C   UNL     1      -9.914  10.710  65.777  1.00  0.00    -0.257 A  
HETATM   10  N   UNL     1      -9.475   9.870  64.831  1.00  0.00    -0.278 NA 
BRANCH   9  11
HETATM   11  N   UNL     1     -10.422  11.931  65.383  1.00  0.00    -0.259 NA 
HETATM   12  C   UNL     1     -11.169  12.764  66.341  1.00  0.00    -0.299 C  
HETATM   13  C   UNL     1     -11.884  12.762  63.541  1.00  0.00    -0.546 C  
HETATM   14  C   UNL     1     -12.553  13.202  65.798  1.00  0.00    -0.284 C  
HETATM   15  N   UNL     1     -12.571  13.733  64.416  1.00  0.00    -0.666 NA 
HETATM   16  C   UNL     1     -11.958  15.057  64.335  1.00  0.00    -0.353 C  
HETATM   17  C   UNL     1     -10.455  12.365  63.982  1.00  0.00    -0.416 C  
ENDBRANCH   9  11
BRANCH   8  18
HETATM   18  C   UNL     1      -8.890   9.052  69.093  1.00  0.00    -0.142 A  
HETATM   19  C   UNL     1      -7.235   8.428  70.856  1.00  0.00    -0.059 A  
HETATM   20  C   UNL     1      -8.148   8.691  71.856  1.00  0.00    -0.149 A  
HETATM   21  C   UNL     1      -7.611   8.583  69.516  1.00  0.00    -0.089 A  
HETATM   22  C   UNL     1      -9.415   9.129  71.503  1.00  0.00    -0.239 A  
HETATM   23  C   UNL     1      -9.790   9.347  70.148  1.00  0.00    -0.272 A  
HETATM   24  C   UNL     1     -11.181   9.883  69.987  1.00  0.00    -0.327 C  
ENDBRANCH   8  18
ENDBRANCH   2   5
BRANCH   4  25
HETATM   25  C   UNL     1      -9.913   5.707  67.551  1.00  0.00    -0.180 C  
HETATM   26  C   UNL     1     -10.150   4.288  66.972  1.00  0.00    -0.079 C  
HETATM   27  C   UNL     1     -11.020   6.599  66.979  1.00  0.00    -0.463 C  
BRANCH  25  28
HETATM   28  C   UNL     1     -10.122   5.750  69.091  1.00  0.00    -0.257 A  
HETATM   29  C   UNL     1     -11.545   6.301  71.017  1.00  0.00    -0.337 A  
HETATM   30  C   UNL     1     -11.320   6.251  69.633  1.00  0.00    -0.492 A  
HETATM   31  F   UNL     1      -8.600   4.859  73.621  1.00  0.00    -0.104 F  
HETATM   32  C   UNL     1     -12.817   6.896  71.572  1.00  0.00    -0.333 C  
HETATM   33  F   UNL     1      -7.097   5.310  72.117  1.00  0.00    -0.072 F  
HETATM   34  C   UNL     1     -10.560   5.805  71.884  1.00  0.00    -0.285 A  
HETATM   35  F   UNL     1     -13.522   6.009  72.327  1.00  0.00    -0.187 F  
HETATM   36  F   UNL     1     -13.680   7.332  70.610  1.00  0.00    -0.230 F  
HETATM   37  F   UNL     1      -8.095   3.379  72.111  1.00  0.00    -0.062 F  
HETATM   38  C   UNL     1      -8.306   4.711  72.300  1.00  0.00    -0.114 C  
HETATM   39  C   UNL     1      -9.369   5.263  71.379  1.00  0.00    -0.184 A  
HETATM   40  F   UNL     1     -12.583   7.969  72.376  1.00  0.00    -0.322 F  
HETATM   41  C   UNL     1      -9.167   5.236  69.987  1.00  0.00    -0.180 A  
ENDBRANCH  25  28
ENDBRANCH   4  25
TORSDOF 5
ENDMDL
MODEL        5
REMARK 921   NORMALIZED FREE ENERGY PREDICTED BY IDOCK:   -7.84 KCAL/MOL
REMARK 922        TOTAL FREE ENERGY PREDICTED BY IDOCK:  -11.77 KCAL/MOL
REMARK 923 INTER-LIGAND FREE ENERGY PREDICTED BY IDOCK:  -10.02 KCAL/MOL
REMARK 924 INTRA-LIGAND FREE ENERGY PREDICTED BY IDOCK:   -1.75 KCAL/MOL
REMARK 927      BINDING AFFINITY PREDICTED BY RF-SCORE:    0.00 PKD
ROOT
HETATM    1  C   UNL     1     -10.847   7.521  67.896  1.00  0.00    -0.058 C  
HETATM    2  N   UNL     1     -10.062   8.627  68.467  1.00  0.00    -0.185 N  
HETATM    3  O   UNL     1      -8.322   7.973  67.180  1.00  0.00    -0.118 OA 
HETATM    4  C   UNL     1      -8.813   8.864  67.894  1.00  0.00    -0.133 C  
ENDROOT
BRANCH   2   5
HETATM    5  C   UNL     1     -10.830   9.566  69.184  1.00  0.00    -0.173 A  
HETATM    6  C   UNL     1     -11.920  10.577  71.034  1.00  0.00    -0.466 A  
HETATM    7  C   UNL     1     -11.327  10.651  68.443  1.00  0.00    -0.283 A  
HETATM    8  C   UNL     1     -11.141   9.485  70.553  1.00  0.00    -0.342 A  
HETATM    9  C   UNL     1     -12.272  11.695  70.262  1.00  0.00    -0.318 A  
HETATM   10  N   UNL     1     -12.006  11.696  68.949  1.00  0.00    -0.364 NA 
BRANCH   9  11
HETATM   11  N   UNL     1     -12.855  12.818  70.812  1.00  0.00    -0.105 NA 
HETATM   12  C   UNL     1     -12.734  14.121  70.134  1.00  0.00    -0.172 C  
HETATM   13  C   UNL     1     -12.798  13.978  73.020  1.00  0.00    -0.177 C  
HETATM   14  C   UNL     1     -12.197  15.233  71.071  1.00  0.00    -0.350 C  
HETATM   15  N   UNL     1     -12.832  15.320  72.405  1.00  0.00    -0.334 NA 
HETATM   16  C   UNL     1     -14.194  15.842  72.326  1.00  0.00    -0.330 C  
HETATM   17  C   UNL     1     -13.415  12.842  72.168  1.00  0.00    -0.492 C  
ENDBRANCH   9  11
BRANCH   8  18
HETATM   18  C   UNL     1     -10.645   8.467  71.574  1.00  0.00    -0.333 A  
HETATM   19  C   UNL     1      -8.755   7.860  73.091  1.00  0.00    -0.278 A  
HETATM   20  C   UNL     1      -9.420   6.733  73.525  1.00  0.00    -0.187 A  
HETATM   21  C   UNL     1      -9.346   8.685  72.125  1.00  0.00    -0.343 A  
HETATM   22  C   UNL     1     -10.676   6.459  73.008  1.00  0.00    -0.286 A  
HETATM   23  C   UNL     1     -11.313   7.319  72.071  1.00  0.00    -0.295 A  
HETATM   24  C   UNL     1     -12.693   6.876  71.687  1.00  0.00    -0.396 C  
ENDBRANCH   8  18
ENDBRANCH   2   5
BRANCH   4  25
HETATM   25  C   UNL     1      -8.001  10.215  68.025  1.00  0.00    -0.101 C  
HETATM   26  C   UNL     1      -6.580   9.816  67.545  1.00  0.00    -0.069 C  
HETATM   27  C   UNL     1      -7.820  10.905  69.382  1.00  0.00    -0.048 C  
BRANCH  25  28
HETATM   28  C   UNL     1      -8.642  11.296  67.110  1.00  0.00    -0.147 A  
HETATM   29  C   UNL     1      -9.826  11.880  65.038  1.00  0.00    -0.234 A  
HETATM   30  C   UNL     1      -9.234  10.932  65.887  1.00  0.00    -0.214 A  
HETATM   31  F   UNL     1      -9.897  15.902  66.197  1.00  0.00    -0.253 F  
HETATM   32  C   UNL     1     -10.404  11.468  63.704  1.00  0.00    -0.417 C  
HETATM   33  F   UNL     1      -8.114  15.555  67.390  1.00  0.00    -0.142 F  
HETATM   34  C   UNL     1      -9.858  13.224  65.438  1.00  0.00    -0.128 A  
HETATM   35  F   UNL     1     -11.728  11.767  63.595  1.00  0.00    -0.472 F  
HETATM   36  F   UNL     1     -10.304  10.131  63.456  1.00  0.00    -0.135 F  
HETATM   37  F   UNL     1     -10.080  15.229  68.255  1.00  0.00    -0.216 F  
HETATM   38  C   UNL     1      -9.352  15.060  67.117  1.00  0.00    -0.215 C  
HETATM   39  C   UNL     1      -9.312  13.618  66.667  1.00  0.00    -0.265 A  
HETATM   40  F   UNL     1      -9.792  12.088  62.658  1.00  0.00    -0.262 F  
HETATM   41  C   UNL     1      -8.715  12.647  67.493  1.00  0.00    -0.184 A  
ENDBRANCH  25  28
ENDBRANCH   4  25
TORSDOF 5
ENDMDL
MODEL        6
REMARK 921   NORMALIZED FREE ENERGY PREDICTED BY IDOCK:   -7.68 KCAL/MOL
REMARK 922        TOTAL FREE ENERGY PREDICTED BY IDOCK:  -11.57 KCAL/MOL
REMARK 923 INTER-LIGAND FREE ENERGY PREDICTED BY IDOCK:  -10.00 KCAL/MOL
REMARK 924 INTRA-LIGAND FREE ENERGY PREDICTED BY IDOCK:   -1.57 KCAL/MOL
REMARK 927      BINDING AFFINITY PREDICTED BY RF-SCORE:    0.00 PKD
ROOT
HETATM    1  C   UNL     1     -12.408  12.796  65.085  1.00  0.00    -0.496 C  
HETATM    2  N   UNL     1     -11.172  12.750  65.883  1.00  0.00    -0.290 N  
HETATM    3  O   UNL     1     -10.715  14.850  65.179  1.00  0.00    -0.353 OA 
HETATM    4  C   UNL     1     -10.454  13.941  65.986  1.00  0.00    -0.298 C  
ENDROOT
BRANCH   2   5
HETATM    5  C   UNL     1     -11.112  11.672  66.788  1.00  0.00    -0.309 A  
HETATM    6  C   UNL     1     -10.433   9.590  67.702  1.00  0.00    -0.321 A  
HETATM    7  C   UNL     1     -11.933  11.773  67.923  1.00  0.00    -0.098 A  
HETATM    8  C   UNL     1     -10.320  10.521  66.629  1.00  0.00    -0.295 A  
HETATM    9  C   UNL     1     -11.177   9.818  68.870  1.00  0.00    -0.030 A  
HETATM   10  N   UNL     1     -11.962  10.901  68.946  1.00  0.00    -0.444 NA 
BRANCH   9  11
HETATM   11  N   UNL     1     -11.105   8.984  69.966  1.00  0.00    -0.220 NA 
HETATM   12  C   UNL     1     -10.752   7.563  69.792  1.00  0.00    -0.242 C  
HETATM   13  C   UNL     1     -12.607   8.364  71.859  1.00  0.00    -0.349 C  
HETATM   14  C   UNL     1     -11.776   6.609  70.457  1.00  0.00    -0.394 C  
HETATM   15  N   UNL     1     -12.180   6.950  71.840  1.00  0.00    -0.334 NA 
HETATM   16  C   UNL     1     -11.106   6.700  72.797  1.00  0.00    -0.249 C  
HETATM   17  C   UNL     1     -11.579   9.376  71.298  1.00  0.00    -0.364 C  
ENDBRANCH   9  11
BRANCH   8  18
HETATM   18  C   UNL     1      -9.289  10.227  65.545  1.00  0.00    -0.250 A  
HETATM   19  C   UNL     1      -8.960   9.853  63.097  1.00  0.00    -0.275 A  
HETATM   20  C   UNL     1      -7.603   9.677  63.271  1.00  0.00    -0.119 A  
HETATM   21  C   UNL     1      -9.776  10.096  64.210  1.00  0.00    -0.326 A  
HETATM   22  C   UNL     1      -7.078   9.773  64.550  1.00  0.00    -0.128 A  
HETATM   23  C   UNL     1      -7.886  10.077  65.680  1.00  0.00    -0.138 A  
HETATM   24  C   UNL     1      -7.112  10.199  66.959  1.00  0.00    -0.090 C  
ENDBRANCH   8  18
ENDBRANCH   2   5
BRANCH   4  25
HETATM   25  C   UNL     1      -9.376  14.252  67.101  1.00  0.00    -0.233 C  
HETATM   26  C   UNL     1      -8.189  14.830  66.287  1.00  0.00     0.707 C  
HETATM   27  C   UNL     1      -8.796  13.137  67.979  1.00  0.00    -0.191 C  
BRANCH  25  28
HETATM   28  C   UNL     1      -9.955  15.289  68.104  1.00  0.00    -0.221 A  
HETATM   29  C   UNL     1     -10.182  17.624  68.836  1.00  0.00    -0.354 A  
HETATM   30  C   UNL     1      -9.674  16.659  67.952  1.00  0.00    -0.244 A  
HETATM   31  F   UNL     1     -12.663  16.409  71.983  1.00  0.00    -0.456 F  
HETATM   32  C   UNL     1      -9.818  19.082  68.682  1.00  0.00    -0.413 C  
HETATM   33  F   UNL     1     -11.695  14.463  71.950  1.00  0.00    -0.350 F  
HETATM   34  C   UNL     1     -11.023  17.212  69.880  1.00  0.00     0.419 A  
HETATM   35  F   UNL     1     -10.910  19.875  68.500  1.00  0.00    -0.433 F  
HETATM   36  F   UNL     1      -8.999  19.329  67.621  1.00  0.00    -0.303 F  
HETATM   37  F   UNL     1     -13.419  14.840  70.682  1.00  0.00    -0.392 F  
HETATM   38  C   UNL     1     -12.272  15.403  71.152  1.00  0.00    -0.371 C  
HETATM   39  C   UNL     1     -11.356  15.859  70.041  1.00  0.00    -0.358 A  
HETATM   40  F   UNL     1      -9.174  19.576  69.774  1.00  0.00    -0.139 F  
HETATM   41  C   UNL     1     -10.822  14.913  69.146  1.00  0.00    -0.253 A  
ENDBRANCH  25  28
ENDBRANCH   4  25
TORSDOF 5
ENDMDL
MODEL        7
REMARK 921   NORMALIZED FREE ENERGY PREDICTED BY IDOCK:   -7.53 KCAL/MOL
REMARK 922        TOTAL FREE ENERGY PREDICTED BY IDOCK:  -11.38 KCAL/MOL
REMARK 923 INTER-LIGAND FREE ENERGY PREDICTED BY IDOCK:  -10.82 KCAL/MOL
REMARK 924 INTRA-LIGAND FREE ENERGY PREDICTED BY IDOCK:   -0.55 KCAL/MOL
REMARK 927      BINDING AFFINITY PREDICTED BY RF-SCORE:    0.00 PKD
ROOT
HETATM    1  C   UNL     1      -6.835  11.448  66.912  1.00  0.00    -0.142 C  
HETATM    2  N   UNL     1      -8.247  11.816  67.108  1.00  0.00    -0.162 N  
HETATM    3  O   UNL     1      -8.614   9.733  67.906  1.00  0.00    -0.124 OA 
HETATM    4  C   UNL     1      -9.042  10.894  67.788  1.00  0.00    -0.149 C  
ENDROOT
BRANCH   2   5
HETATM    5  C   UNL     1      -8.500  13.198  66.999  1.00  0.00    -0.132 A  
HETATM    6  C   UNL     1      -9.492  15.207  66.214  1.00  0.00    -0.341 A  
HETATM    7  C   UNL     1      -7.751  14.032  67.845  1.00  0.00    -0.159 A  
HETATM    8  C   UNL     1      -9.417  13.787  66.109  1.00  0.00    -0.180 A  
HETATM    9  C   UNL     1      -8.805  15.964  67.176  1.00  0.00    -0.207 A  
HETATM   10  N   UNL     1      -7.899  15.364  67.960  1.00  0.00    -0.123 NA 
BRANCH   9  11
HETATM   11  N   UNL     1      -9.054  17.307  67.374  1.00  0.00    -0.225 NA 
HETATM   12  C   UNL     1     -10.438  17.814  67.346  1.00  0.00    -0.364 C  
HETATM   13  C   UNL     1      -8.263  19.451  66.373  1.00  0.00    -0.325 C  
HETATM   14  C   UNL     1     -10.616  19.005  66.371  1.00  0.00    -0.409 C  
HETATM   15  N   UNL     1      -9.598  20.076  66.460  1.00  0.00    -0.404 NA 
HETATM   16  C   UNL     1      -9.744  20.864  67.682  1.00  0.00    -0.147 C  
HETATM   17  C   UNL     1      -7.992  18.319  67.394  1.00  0.00    -0.231 C  
ENDBRANCH   9  11
BRANCH   8  18
HETATM   18  C   UNL     1     -10.400  13.095  65.172  1.00  0.00    -0.326 A  
HETATM   19  C   UNL     1     -10.621  11.437  63.317  1.00  0.00    -0.374 A  
HETATM   20  C   UNL     1     -11.986  11.623  63.266  1.00  0.00    -0.235 A  
HETATM   21  C   UNL     1      -9.854  12.174  64.229  1.00  0.00    -0.174 A  
HETATM   22  C   UNL     1     -12.569  12.523  64.145  1.00  0.00    -0.474 A  
HETATM   23  C   UNL     1     -11.810  13.233  65.115  1.00  0.00    -0.377 A  
HETATM   24  C   UNL     1     -12.639  14.106  66.009  1.00  0.00    -0.407 C  
ENDBRANCH   8  18
ENDBRANCH   2   5
BRANCH   4  25
HETATM   25  C   UNL     1     -10.421  11.231  68.485  1.00  0.00    -0.218 C  
HETATM   26  C   UNL     1     -11.461  10.879  67.390  1.00  0.00    -0.175 C  
HETATM   27  C   UNL     1     -10.749  12.654  68.951  1.00  0.00    -0.201 C  
BRANCH  25  28
HETATM   28  C   UNL     1     -10.588  10.347  69.753  1.00  0.00    -0.302 A  
HETATM   29  C   UNL     1      -9.592   8.891  71.463  1.00  0.00    -0.362 A  
HETATM   30  C   UNL     1      -9.478   9.694  70.317  1.00  0.00    -0.300 A  
HETATM   31  F   UNL     1     -13.328   8.475  73.305  1.00  0.00    -0.083 F  
HETATM   32  C   UNL     1      -8.392   8.157  72.014  1.00  0.00    -0.152 C  
HETATM   33  F   UNL     1     -14.279   8.861  71.389  1.00  0.00    -0.432 F  
HETATM   34  C   UNL     1     -10.843   8.766  72.083  1.00  0.00    -0.400 A  
HETATM   35  F   UNL     1      -8.111   8.507  73.299  1.00  0.00    -0.228 F  
HETATM   36  F   UNL     1      -7.246   8.379  71.309  1.00  0.00    -0.050 F  
HETATM   37  F   UNL     1     -13.770  10.516  72.703  1.00  0.00    -0.282 F  
HETATM   38  C   UNL     1     -13.317   9.319  72.237  1.00  0.00    -0.477 C  
HETATM   39  C   UNL     1     -11.966   9.433  71.571  1.00  0.00    -0.456 A  
HETATM   40  F   UNL     1      -8.568   6.807  72.024  1.00  0.00    -0.121 F  
HETATM   41  C   UNL     1     -11.823  10.222  70.415  1.00  0.00    -0.396 A  
ENDBRANCH  25  28
ENDBRANCH   4  25
TORSDOF 5
ENDMDL
MODEL        8
REMARK 921   NORMALIZED FREE ENERGY PREDICTED BY IDOCK:   -7.27 KCAL/MOL
REMARK 922        TOTAL FREE ENERGY PREDICTED BY IDOCK:  -11.04 KCAL/MOL
REMARK 923 INTER-LIGAND FREE ENERGY PREDICTED BY IDOCK:  -10.32 KCAL/MOL
REMARK 924 INTRA-LIGAND FREE ENERGY PREDICTED BY IDOCK:   -0.72 KCAL/MOL
REMARK 927      BINDING AFFINITY PREDICTED BY RF-SCORE:    0.00 PKD
ROOT
HETATM    1  C   UNL     1      -6.847  11.548  66.586  1.00  0.00    -0.075 C  
HETATM    2  N   UNL     1      -8.242  11.894  66.905  1.00  0.00    -0.169 N  
HETATM    3  O   UNL     1      -8.516   9.794  67.696  1.00  0.00    -0.121 OA 
HETATM    4  C   UNL     1      -8.966  10.951  67.633  1.00  0.00    -0.140 C  
ENDROOT
BRANCH   2   5
HETATM    5  C   UNL     1      -8.520  13.274  66.839  1.00  0.00    -0.060 A  
HETATM    6  C   UNL     1      -9.570  15.285  66.141  1.00  0.00    -0.353 A  
HETATM    7  C   UNL     1      -7.754  14.099  67.678  1.00  0.00    -0.174 A  
HETATM    8  C   UNL     1      -9.477  13.870  65.997  1.00  0.00    -0.145 A  
HETATM    9  C   UNL     1      -8.861  16.029  67.096  1.00  0.00    -0.204 A  
HETATM   10  N   UNL     1      -7.918  15.425  67.832  1.00  0.00    -0.129 NA 
BRANCH   9  11
HETATM   11  N   UNL     1      -9.123  17.363  67.336  1.00  0.00    -0.234 NA 
HETATM   12  C   UNL     1     -10.507  17.866  67.278  1.00  0.00    -0.366 C  
HETATM   13  C   UNL     1      -8.307  19.546  66.448  1.00  0.00    -0.347 C  
HETATM   14  C   UNL     1     -10.656  19.093  66.344  1.00  0.00    -0.435 C  
HETATM   15  N   UNL     1      -9.647  20.163  66.511  1.00  0.00    -0.407 NA 
HETATM   16  C   UNL     1      -9.841  20.904  67.755  1.00  0.00    -0.030 C  
HETATM   17  C   UNL     1      -8.067  18.377  67.434  1.00  0.00    -0.240 C  
ENDBRANCH   9  11
BRANCH   8  18
HETATM   18  C   UNL     1     -10.482  13.185  65.079  1.00  0.00    -0.358 A  
HETATM   19  C   UNL     1     -10.743  11.588  63.176  1.00  0.00    -0.281 A  
HETATM   20  C   UNL     1     -12.114  11.739  63.191  1.00  0.00    -0.252 A  
HETATM   21  C   UNL     1      -9.956  12.312  64.080  1.00  0.00    -0.285 A  
HETATM   22  C   UNL     1     -12.680  12.592  64.126  1.00  0.00    -0.417 A  
HETATM   23  C   UNL     1     -11.897  13.287  65.088  1.00  0.00    -0.377 A  
HETATM   24  C   UNL     1     -12.708  14.105  66.048  1.00  0.00    -0.325 C  
ENDBRANCH   8  18
ENDBRANCH   2   5
BRANCH   4  25
HETATM   25  C   UNL     1     -10.286  11.259  68.448  1.00  0.00    -0.205 C  
HETATM   26  C   UNL     1     -11.407  11.015  67.403  1.00  0.00    -0.306 C  
HETATM   27  C   UNL     1     -10.546  12.647  69.044  1.00  0.00    -0.079 C  
BRANCH  25  28
HETATM   28  C   UNL     1     -10.390  10.282  69.652  1.00  0.00    -0.281 A  
HETATM   29  C   UNL     1     -11.780   8.998  71.220  1.00  0.00    -0.382 A  
HETATM   30  C   UNL     1     -11.648   9.881  70.137  1.00  0.00    -0.281 A  
HETATM   31  F   UNL     1      -8.334   7.447  73.024  1.00  0.00    -0.119 F  
HETATM   32  C   UNL     1     -13.143   8.630  71.756  1.00  0.00    -0.361 C  
HETATM   33  F   UNL     1      -7.244   9.216  72.386  1.00  0.00     0.024 F  
HETATM   34  C   UNL     1     -10.622   8.472  71.812  1.00  0.00    -0.371 A  
HETATM   35  F   UNL     1     -13.379   7.290  71.704  1.00  0.00    -0.370 F  
HETATM   36  F   UNL     1     -14.171   9.215  71.077  1.00  0.00    -0.381 F  
HETATM   37  F   UNL     1      -7.382   7.491  71.071  1.00  0.00    -0.067 F  
HETATM   38  C   UNL     1      -8.096   8.248  71.949  1.00  0.00    -0.141 C  
HETATM   39  C   UNL     1      -9.351   8.818  71.331  1.00  0.00    -0.328 A  
HETATM   40  F   UNL     1     -13.305   8.989  73.059  1.00  0.00    -0.463 F  
HETATM   41  C   UNL     1      -9.250   9.715  70.252  1.00  0.00    -0.285 A  
ENDBRANCH  25  28
ENDBRANCH   4  25
TORSDOF 5
ENDMDL
MODEL        9
REMARK 921   NORMALIZED FREE ENERGY PREDICTED BY IDOCK:   -7.25 KCAL/MOL
REMARK 922        TOTAL FREE ENERGY PREDICTED BY IDOCK:  -11.01 KCAL/MOL
REMARK 923 INTER-LIGAND FREE ENERGY PREDICTED BY IDOCK:  -10.49 KCAL/MOL
REMARK 924 INTRA-LIGAND FREE ENERGY PREDICTED BY IDOCK:   -0.52 KCAL/MOL
REMARK 927      BINDING AFFINITY PREDICTED BY RF-SCORE:    0.00 PKD
ROOT
HETATM    1  C   UNL     1     -11.034  12.996  64.412  1.00  0.00    -0.374 C  
HETATM    2  N   UNL     1     -10.280  13.064  65.674  1.00  0.00    -0.286 N  
HETATM    3  O   UNL     1      -9.961  15.270  65.291  1.00  0.00    -0.337 OA 
HETATM    4  C   UNL     1      -9.911  14.336  66.110  1.00  0.00    -0.314 C  
ENDROOT
BRANCH   2   5
HETATM    5  C   UNL     1     -10.419  11.924  66.489  1.00  0.00    -0.221 A  
HETATM    6  C   UNL     1      -9.932   9.786  67.400  1.00  0.00    -0.239 A  
HETATM    7  C   UNL     1     -11.502  11.931  67.383  1.00  0.00    -0.323 A  
HETATM    8  C   UNL     1      -9.579  10.795  66.457  1.00  0.00    -0.217 A  
HETATM    9  C   UNL     1     -10.953   9.920  68.353  1.00  0.00    -0.187 A  
HETATM   10  N   UNL     1     -11.763  10.986  68.303  1.00  0.00    -0.529 NA 
BRANCH   9  11
HETATM   11  N   UNL     1     -11.135   9.008  69.373  1.00  0.00    -0.064 NA 
HETATM   12  C   UNL     1     -11.486   9.473  70.726  1.00  0.00    -0.310 C  
HETATM   13  C   UNL     1      -9.820   7.138  70.371  1.00  0.00    -0.176 C  
HETATM   14  C   UNL     1     -10.538   8.908  71.815  1.00  0.00    -0.362 C  
HETATM   15  N   UNL     1     -10.260   7.456  71.744  1.00  0.00    -0.191 NA 
HETATM   16  C   UNL     1     -11.421   6.661  72.136  1.00  0.00    -0.287 C  
HETATM   17  C   UNL     1     -10.781   7.590  69.245  1.00  0.00    -0.176 C  
ENDBRANCH   9  11
BRANCH   8  18
HETATM   18  C   UNL     1      -8.300  10.594  65.652  1.00  0.00    -0.162 A  
HETATM   19  C   UNL     1      -5.807  10.514  65.775  1.00  0.00    -0.126 A  
HETATM   20  C   UNL     1      -5.713  10.265  64.423  1.00  0.00    -0.137 A  
HETATM   21  C   UNL     1      -7.066  10.697  66.361  1.00  0.00    -0.134 A  
HETATM   22  C   UNL     1      -6.879  10.176  63.679  1.00  0.00    -0.112 A  
HETATM   23  C   UNL     1      -8.166  10.300  64.271  1.00  0.00    -0.157 A  
HETATM   24  C   UNL     1      -9.296  10.108  63.303  1.00  0.00    -0.332 C  
ENDBRANCH   8  18
ENDBRANCH   2   5
BRANCH   4  25
HETATM   25  C   UNL     1      -9.501  14.699  67.594  1.00  0.00    -0.205 C  
HETATM   26  C   UNL     1      -8.298  13.756  67.863  1.00  0.00    -0.172 C  
HETATM   27  C   UNL     1     -10.476  14.499  68.760  1.00  0.00    -0.246 C  
BRANCH  25  28
HETATM   28  C   UNL     1      -9.093  16.197  67.667  1.00  0.00    -0.197 A  
HETATM   29  C   UNL     1      -7.437  17.912  68.262  1.00  0.00    -0.260 A  
HETATM   30  C   UNL     1      -7.839  16.569  68.184  1.00  0.00    -0.168 A  
HETATM   31  F   UNL     1     -10.008  20.902  66.854  1.00  0.00    -0.572 F  
HETATM   32  C   UNL     1      -6.108  18.286  68.873  1.00  0.00    -0.217 C  
HETATM   33  F   UNL     1     -11.697  19.598  67.268  1.00  0.00    -0.190 F  
HETATM   34  C   UNL     1      -8.297  18.907  67.776  1.00  0.00    -0.305 A  
HETATM   35  F   UNL     1      -5.305  18.959  68.004  1.00  0.00    -0.167 F  
HETATM   36  F   UNL     1      -5.381  17.212  69.296  1.00  0.00    -0.136 F  
HETATM   37  F   UNL     1     -10.693  19.497  65.343  1.00  0.00    -0.547 F  
HETATM   38  C   UNL     1     -10.470  19.633  66.680  1.00  0.00    -0.497 C  
HETATM   39  C   UNL     1      -9.539  18.572  67.219  1.00  0.00    -0.305 A  
HETATM   40  F   UNL     1      -6.244  19.094  69.960  1.00  0.00    -0.272 F  
HETATM   41  C   UNL     1      -9.921  17.218  67.165  1.00  0.00    -0.282 A  
ENDBRANCH  25  28
ENDBRANCH   4  25
TORSDOF 5
ENDMDL
MODEL       10
REMARK 921   NORMALIZED FREE ENERGY PREDICTED BY IDOCK:   -7.25 KCAL/MOL
REMARK 922        TOTAL FREE ENERGY PREDICTED BY IDOCK:  -11.00 KCAL/MOL
REMARK 923 INTER-LIGAND FREE ENERGY PREDICTED BY IDOCK:   -9.34 KCAL/MOL
REMARK 924 INTRA-LIGAND FREE ENERGY PREDICTED BY IDOCK:   -1.67 KCAL/MOL
REMARK 927      BINDING AFFINITY PREDICTED BY RF-SCORE:    0.00 PKD
ROOT
HETATM    1  C   UNL     1     -11.317  11.887  64.580  1.00  0.00    -0.293 C  
HETATM    2  N   UNL     1     -10.290  11.755  65.626  1.00  0.00    -0.243 N  
HETATM    3  O   UNL     1     -10.365  13.999  65.895  1.00  0.00    -0.298 OA 
HETATM    4  C   UNL     1      -9.993  12.905  66.355  1.00  0.00    -0.267 C  
ENDROOT
BRANCH   2   5
HETATM    5  C   UNL     1     -10.073  10.430  66.054  1.00  0.00    -0.243 A  
HETATM    6  C   UNL     1      -9.055   8.291  66.190  1.00  0.00    -0.238 A  
HETATM    7  C   UNL     1     -10.963   9.942  67.025  1.00  0.00    -0.027 A  
HETATM    8  C   UNL     1      -9.063   9.576  65.575  1.00  0.00    -0.262 A  
HETATM    9  C   UNL     1      -9.896   7.917  67.249  1.00  0.00    -0.195 A  
HETATM   10  N   UNL     1     -10.881   8.743  67.628  1.00  0.00    -0.123 NA 
BRANCH   9  11
HETATM   11  N   UNL     1      -9.727   6.739  67.947  1.00  0.00    -0.127 NA 
HETATM   12  C   UNL     1     -10.901   5.968  68.393  1.00  0.00    -0.281 C  
HETATM   13  C   UNL     1      -8.495   6.020  69.994  1.00  0.00    -0.131 C  
HETATM   14  C   UNL     1     -10.858   5.639  69.906  1.00  0.00    -0.300 C  
HETATM   15  N   UNL     1      -9.575   5.107  70.419  1.00  0.00    -0.174 NA 
HETATM   16  C   UNL     1      -9.334   3.739  69.966  1.00  0.00    -0.180 C  
HETATM   17  C   UNL     1      -8.428   6.305  68.474  1.00  0.00    -0.115 C  
ENDBRANCH   9  11
BRANCH   8  18
HETATM   18  C   UNL     1      -7.934   9.903  64.604  1.00  0.00    -0.141 A  
HETATM   19  C   UNL     1      -5.541  10.594  64.423  1.00  0.00    -0.071 A  
HETATM   20  C   UNL     1      -5.604  10.581  63.046  1.00  0.00    -0.159 A  
HETATM   21  C   UNL     1      -6.683  10.287  65.173  1.00  0.00    -0.120 A  
HETATM   22  C   UNL     1      -6.801  10.236  62.437  1.00  0.00    -0.142 A  
HETATM   23  C   UNL     1      -7.952   9.865  63.187  1.00  0.00    -0.145 A  
HETATM   24  C   UNL     1      -9.122   9.465  62.337  1.00  0.00    -0.207 C  
ENDBRANCH   8  18
ENDBRANCH   2   5
BRANCH   4  25
HETATM   25  C   UNL     1      -9.278  12.921  67.766  1.00  0.00    -0.200 C  
HETATM   26  C   UNL     1      -8.399  14.197  67.698  1.00  0.00    -0.187 C  
HETATM   27  C   UNL     1      -8.351  11.780  68.200  1.00  0.00    -0.156 C  
BRANCH  25  28
HETATM   28  C   UNL     1     -10.351  13.011  68.888  1.00  0.00    -0.067 A  
HETATM   29  C   UNL     1     -11.761  14.384  70.360  1.00  0.00    -0.346 A  
HETATM   30  C   UNL     1     -10.792  14.264  69.351  1.00  0.00    -0.197 A  
HETATM   31  F   UNL     1     -13.445  10.919  72.000  1.00  0.00    -0.505 F  
HETATM   32  C   UNL     1     -12.175  15.742  70.877  1.00  0.00    -0.413 C  
HETATM   33  F   UNL     1     -11.627   9.838  71.496  1.00  0.00    -0.404 F  
HETATM   34  C   UNL     1     -12.330  13.220  70.896  1.00  0.00    -0.413 A  
HETATM   35  F   UNL     1     -13.506  15.976  70.719  1.00  0.00    -0.351 F  
HETATM   36  F   UNL     1     -11.539  16.777  70.258  1.00  0.00    -0.124 F  
HETATM   37  F   UNL     1     -13.240   9.985  70.047  1.00  0.00    -0.110 F  
HETATM   38  C   UNL     1     -12.558  10.692  70.991  1.00  0.00    -0.416 C  
HETATM   39  C   UNL     1     -11.943  11.954  70.433  1.00  0.00    -0.400 A  
HETATM   40  F   UNL     1     -11.923  15.891  72.206  1.00  0.00    -0.412 F  
HETATM   41  C   UNL     1     -10.961  11.865  69.429  1.00  0.00    -0.156 A  
ENDBRANCH  25  28
ENDBRANCH   4  25
TORSDOF 5
ENDMDL
MODEL       11
REMARK 921   NORMALIZED FREE ENERGY PREDICTED BY IDOCK:   -7.24 KCAL/MOL
REMARK 922        TOTAL FREE ENERGY PREDICTED BY IDOCK:  -11.00 KCAL/MOL
REMARK 923 INTER-LIGAND FREE ENERGY PREDICTED BY IDOCK:  -10.99 KCAL/MOL
REMARK 924 INTRA-LIGAND FREE ENERGY PREDICTED BY IDOCK:   -0.00 KCAL/MOL
REMARK 927      BINDING AFFINITY PREDICTED BY RF-SCORE:    0.00 PKD
ROOT
HETATM    1  C   UNL     1      -7.408  12.663  67.130  1.00  0.00    -0.037 C  
HETATM    2  N   UNL     1      -8.769  12.346  67.593  1.00  0.00    -0.168 N  
HETATM    3  O   UNL     1      -9.349  14.487  67.155  1.00  0.00    -0.202 OA 
HETATM    4  C   UNL     1      -9.736  13.332  67.404  1.00  0.00    -0.221 C  
ENDROOT
BRANCH   2   5
HETATM    5  C   UNL     1      -9.018  10.967  67.743  1.00  0.00    -0.140 A  
HETATM    6  C   UNL     1      -9.323   8.697  67.122  1.00  0.00    -0.190 A  
HETATM    7  C   UNL     1      -9.248  10.520  69.055  1.00  0.00    -0.185 A  
HETATM    8  C   UNL     1      -9.070  10.032  66.693  1.00  0.00    -0.169 A  
HETATM    9  C   UNL     1      -9.413   8.304  68.466  1.00  0.00    -0.146 A  
HETATM   10  N   UNL     1      -9.419   9.239  69.425  1.00  0.00    -0.162 NA 
BRANCH   9  11
HETATM   11  N   UNL     1      -9.461   6.978  68.845  1.00  0.00    -0.138 NA 
HETATM   12  C   UNL     1     -10.760   6.294  68.979  1.00  0.00    -0.302 C  
HETATM   13  C   UNL     1      -8.563   5.610  70.728  1.00  0.00    -0.128 C  
HETATM   14  C   UNL     1     -10.928   5.599  70.354  1.00  0.00    -0.208 C  
HETATM   15  N   UNL     1      -9.782   4.782  70.814  1.00  0.00    -0.182 NA 
HETATM   16  C   UNL     1      -9.650   3.548  70.042  1.00  0.00    -0.156 C  
HETATM   17  C   UNL     1      -8.290   6.249  69.345  1.00  0.00    -0.121 C  
ENDBRANCH   9  11
BRANCH   8  18
HETATM   18  C   UNL     1      -8.764  10.255  65.216  1.00  0.00    -0.186 A  
HETATM   19  C   UNL     1      -9.712  11.012  63.033  1.00  0.00    -0.381 A  
HETATM   20  C   UNL     1      -8.514  10.779  62.392  1.00  0.00    -0.308 A  
HETATM   21  C   UNL     1      -9.833  10.732  64.400  1.00  0.00    -0.374 A  
HETATM   22  C   UNL     1      -7.446  10.295  63.131  1.00  0.00    -0.125 A  
HETATM   23  C   UNL     1      -7.538  10.062  64.531  1.00  0.00    -0.142 A  
HETATM   24  C   UNL     1      -6.253   9.601  65.151  1.00  0.00    -0.081 C  
ENDBRANCH   8  18
ENDBRANCH   2   5
BRANCH   4  25
HETATM   25  C   UNL     1     -11.297  13.079  67.409  1.00  0.00    -0.347 C  
HETATM   26  C   UNL     1     -11.439  11.758  66.606  1.00  0.00    -0.337 C  
HETATM   27  C   UNL     1     -12.267  14.079  66.771  1.00  0.00    -0.439 C  
BRANCH  25  28
HETATM   28  C   UNL     1     -11.791  12.924  68.875  1.00  0.00    -0.352 A  
HETATM   29  C   UNL     1     -12.397  13.954  71.022  1.00  0.00    -0.453 A  
HETATM   30  C   UNL     1     -11.950  14.056  69.695  1.00  0.00    -0.393 A  
HETATM   31  F   UNL     1     -13.353  10.186  72.575  1.00  0.00    -0.461 F  
HETATM   32  C   UNL     1     -12.505  15.181  71.897  1.00  0.00    -0.348 C  
HETATM   33  F   UNL     1     -11.958   9.290  71.169  1.00  0.00    -0.310 F  
HETATM   34  C   UNL     1     -12.728  12.691  71.532  1.00  0.00    -0.326 A  
HETATM   35  F   UNL     1     -13.769  15.381  72.360  1.00  0.00    -0.431 F  
HETATM   36  F   UNL     1     -12.154  16.335  71.262  1.00  0.00    -0.442 F  
HETATM   37  F   UNL     1     -14.026   9.619  70.587  1.00  0.00    -0.294 F  
HETATM   38  C   UNL     1     -12.985  10.178  71.264  1.00  0.00    -0.413 C  
HETATM   39  C   UNL     1     -12.618  11.544  70.732  1.00  0.00    -0.390 A  
HETATM   40  F   UNL     1     -11.709  15.105  72.999  1.00  0.00    -0.474 F  
HETATM   41  C   UNL     1     -12.156  11.675  69.410  1.00  0.00    -0.328 A  
ENDBRANCH  25  28
ENDBRANCH   4  25
TORSDOF 5
ENDMDL
MODEL       12
REMARK 921   NORMALIZED FREE ENERGY PREDICTED BY IDOCK:   -7.19 KCAL/MOL
REMARK 922        TOTAL FREE ENERGY PREDICTED BY IDOCK:  -10.93 KCAL/MOL
REMARK 923 INTER-LIGAND FREE ENERGY PREDICTED BY IDOCK:   -9.16 KCAL/MOL
REMARK 924 INTRA-LIGAND FREE ENERGY PREDICTED BY IDOCK:   -1.78 KCAL/MOL
REMARK 927      BINDING AFFINITY PREDICTED BY RF-SCORE:    0.00 PKD
ROOT
HETATM    1  C   UNL     1      -6.114  11.593  66.794  1.00  0.00    -0.134 C  
HETATM    2  N   UNL     1      -6.961  12.145  67.864  1.00  0.00    -0.089 N  
HETATM    3  O   UNL     1      -6.472  14.215  67.095  1.00  0.00    -0.189 OA 
HETATM    4  C   UNL     1      -7.205  13.517  67.818  1.00  0.00    -0.154 C  
ENDROOT
BRANCH   2   5
HETATM    5  C   UNL     1      -7.766  11.188  68.511  1.00  0.00    -0.129 A  
HETATM    6  C   UNL     1      -9.551   9.657  68.832  1.00  0.00    -0.161 A  
HETATM    7  C   UNL     1      -7.359  10.807  69.800  1.00  0.00    -0.064 A  
HETATM    8  C   UNL     1      -8.934  10.613  67.975  1.00  0.00    -0.140 A  
HETATM    9  C   UNL     1      -9.013   9.231  70.056  1.00  0.00    -0.198 A  
HETATM   10  N   UNL     1      -7.934   9.851  70.551  1.00  0.00    -0.234 NA 
BRANCH   9  11
HETATM   11  N   UNL     1      -9.534   8.165  70.761  1.00  0.00    -0.160 NA 
HETATM   12  C   UNL     1     -10.459   7.225  70.102  1.00  0.00    -0.218 C  
HETATM   13  C   UNL     1     -10.770   7.856  72.906  1.00  0.00    -0.375 C  
HETATM   14  C   UNL     1     -11.777   7.032  70.895  1.00  0.00    -0.343 C  
HETATM   15  N   UNL     1     -11.631   6.794  72.349  1.00  0.00    -0.267 NA 
HETATM   16  C   UNL     1     -11.096   5.464  72.631  1.00  0.00    -0.278 C  
HETATM   17  C   UNL     1      -9.396   8.027  72.215  1.00  0.00    -0.197 C  
ENDBRANCH   9  11
BRANCH   8  18
HETATM   18  C   UNL     1      -9.517  10.792  66.579  1.00  0.00    -0.197 A  
HETATM   19  C   UNL     1      -9.150  10.355  64.147  1.00  0.00    -0.272 A  
HETATM   20  C   UNL     1     -10.340  10.971  63.820  1.00  0.00    -0.427 A  
HETATM   21  C   UNL     1      -8.746  10.293  65.487  1.00  0.00    -0.176 A  
HETATM   22  C   UNL     1     -11.121  11.494  64.839  1.00  0.00    -0.282 A  
HETATM   23  C   UNL     1     -10.751  11.386  66.208  1.00  0.00    -0.322 A  
HETATM   24  C   UNL     1     -11.765  11.959  67.154  1.00  0.00    -0.311 C  
ENDBRANCH   8  18
ENDBRANCH   2   5
BRANCH   4  25
HETATM   25  C   UNL     1      -8.393  14.249  68.563  1.00  0.00    -0.156 C  
HETATM   26  C   UNL     1      -7.674  14.992  69.721  1.00  0.00    -0.038 C  
HETATM   27  C   UNL     1      -9.537  13.455  69.204  1.00  0.00     0.455 C  
BRANCH  25  28
HETATM   28  C   UNL     1      -9.090  15.233  67.583  1.00  0.00    -0.184 A  
HETATM   29  C   UNL     1      -9.406  17.526  66.758  1.00  0.00    -0.275 A  
HETATM   30  C   UNL     1      -8.799  16.609  67.630  1.00  0.00    -0.203 A  
HETATM   31  F   UNL     1     -12.117  16.133  63.887  1.00  0.00    -0.413 F  
HETATM   32  C   UNL     1      -9.117  19.005  66.868  1.00  0.00    -0.303 C  
HETATM   33  F   UNL     1     -12.573  14.449  65.184  1.00  0.00    -0.424 F  
HETATM   34  C   UNL     1     -10.303  17.051  65.790  1.00  0.00    -0.275 A  
HETATM   35  F   UNL     1      -8.598  19.521  65.720  1.00  0.00    -0.315 F  
HETATM   36  F   UNL     1      -8.223  19.313  67.850  1.00  0.00    -0.300 F  
HETATM   37  F   UNL     1     -10.934  14.313  63.762  1.00  0.00     0.056 F  
HETATM   38  C   UNL     1     -11.543  15.155  64.642  1.00  0.00    -0.357 C  
HETATM   39  C   UNL     1     -10.590  15.683  65.689  1.00  0.00    -0.393 A  
HETATM   40  F   UNL     1     -10.233  19.735  67.136  1.00  0.00    -0.443 F  
HETATM   41  C   UNL     1      -9.974  14.788  66.584  1.00  0.00    -0.272 A  
ENDBRANCH  25  28
ENDBRANCH   4  25
TORSDOF 5
ENDMDL
MODEL       13
REMARK 921   NORMALIZED FREE ENERGY PREDICTED BY IDOCK:   -7.18 KCAL/MOL
REMARK 922        TOTAL FREE ENERGY PREDICTED BY IDOCK:  -10.91 KCAL/MOL
REMARK 923 INTER-LIGAND FREE ENERGY PREDICTED BY IDOCK:   -9.25 KCAL/MOL
REMARK 924 INTRA-LIGAND FREE ENERGY PREDICTED BY IDOCK:   -1.66 KCAL/MOL
REMARK 927      BINDING AFFINITY PREDICTED BY RF-SCORE:    0.00 PKD
ROOT
HETATM    1  C   UNL     1      -6.187   8.690  68.615  1.00  0.00    -0.046 C  
HETATM    2  N   UNL     1      -7.462   8.380  67.947  1.00  0.00    -0.096 N  
HETATM    3  O   UNL     1      -7.565   6.477  69.164  1.00  0.00    -0.096 OA 
HETATM    4  C   UNL     1      -8.170   7.283  68.436  1.00  0.00    -0.125 C  
ENDROOT
BRANCH   2   5
HETATM    5  C   UNL     1      -8.012   9.461  67.230  1.00  0.00    -0.106 A  
HETATM    6  C   UNL     1      -8.595  10.804  65.362  1.00  0.00    -0.162 A  
HETATM    7  C   UNL     1      -8.662  10.443  67.995  1.00  0.00    -0.123 A  
HETATM    8  C   UNL     1      -7.940   9.630  65.835  1.00  0.00    -0.112 A  
HETATM    9  C   UNL     1      -9.338  11.675  66.174  1.00  0.00    -0.224 A  
HETATM   10  N   UNL     1      -9.325  11.505  67.503  1.00  0.00    -0.164 NA 
BRANCH   9  11
HETATM   11  N   UNL     1     -10.118  12.687  65.652  1.00  0.00    -0.274 NA 
HETATM   12  C   UNL     1     -10.578  13.786  66.519  1.00  0.00    -0.279 C  
HETATM   13  C   UNL     1     -12.245  12.835  64.358  1.00  0.00    -0.428 C  
HETATM   14  C   UNL     1     -12.111  14.001  66.445  1.00  0.00    -0.455 C  
HETATM   15  N   UNL     1     -12.698  14.036  65.086  1.00  0.00    -0.685 NA 
HETATM   16  C   UNL     1     -12.345  15.262  64.374  1.00  0.00    -0.158 C  
HETATM   17  C   UNL     1     -10.712  12.623  64.312  1.00  0.00    -0.382 C  
ENDBRANCH   9  11
BRANCH   8  18
HETATM   18  C   UNL     1      -7.378   8.667  64.796  1.00  0.00    -0.091 A  
HETATM   19  C   UNL     1      -7.785   6.528  63.573  1.00  0.00    -0.106 A  
HETATM   20  C   UNL     1      -6.596   6.653  62.886  1.00  0.00    -0.038 A  
HETATM   21  C   UNL     1      -8.146   7.497  64.516  1.00  0.00    -0.086 A  
HETATM   22  C   UNL     1      -5.797   7.759  63.133  1.00  0.00    -0.055 A  
HETATM   23  C   UNL     1      -6.181   8.781  64.045  1.00  0.00    -0.072 A  
HETATM   24  C   UNL     1      -5.208   9.920  64.117  1.00  0.00    -0.078 C  
ENDBRANCH   8  18
ENDBRANCH   2   5
BRANCH   4  25
HETATM   25  C   UNL     1      -9.711   7.021  68.193  1.00  0.00    -0.139 C  
HETATM   26  C   UNL     1      -9.747   5.532  67.759  1.00  0.00    -0.150 C  
HETATM   27  C   UNL     1     -10.491   7.800  67.128  1.00  0.00    -0.413 C  
BRANCH  25  28
HETATM   28  C   UNL     1     -10.492   7.262  69.515  1.00  0.00    -0.238 A  
HETATM   29  C   UNL     1     -11.241   6.444  71.707  1.00  0.00    -0.324 A  
HETATM   30  C   UNL     1     -10.548   6.259  70.500  1.00  0.00    -0.305 A  
HETATM   31  F   UNL     1     -13.141  10.102  72.439  1.00  0.00    -0.486 F  
HETATM   32  C   UNL     1     -11.333   5.329  72.723  1.00  0.00    -0.276 C  
HETATM   33  F   UNL     1     -13.341  10.388  70.293  1.00  0.00    -0.345 F  
HETATM   34  C   UNL     1     -11.864   7.676  71.952  1.00  0.00    -0.332 A  
HETATM   35  F   UNL     1     -10.809   5.680  73.930  1.00  0.00    -0.269 F  
HETATM   36  F   UNL     1     -10.675   4.195  72.348  1.00  0.00    -0.240 F  
HETATM   37  F   UNL     1     -11.549  11.068  71.317  1.00  0.00    -0.275 F  
HETATM   38  C   UNL     1     -12.451  10.049  71.265  1.00  0.00    -0.392 C  
HETATM   39  C   UNL     1     -11.797   8.712  71.009  1.00  0.00    -0.303 A  
HETATM   40  F   UNL     1     -12.617   4.951  72.967  1.00  0.00    -0.258 F  
HETATM   41  C   UNL     1     -11.105   8.494  69.803  1.00  0.00    -0.067 A  
ENDBRANCH  25  28
ENDBRANCH   4  25
TORSDOF 5
ENDMDL
MODEL       14
REMARK 921   NORMALIZED FREE ENERGY PREDICTED BY IDOCK:   -7.16 KCAL/MOL
REMARK 922        TOTAL FREE ENERGY PREDICTED BY IDOCK:  -10.89 KCAL/MOL
REMARK 923 INTER-LIGAND FREE ENERGY PREDICTED BY IDOCK:   -8.58 KCAL/MOL
REMARK 924 INTRA-LIGAND FREE ENERGY PREDICTED BY IDOCK:   -2.31 KCAL/MOL
REMARK 927      BINDING AFFINITY PREDICTED BY RF-SCORE:    0.00 PKD
ROOT
HETATM    1  C   UNL     1      -6.359   7.331  66.479  1.00  0.00    -0.044 C  
HETATM    2  N   UNL     1      -7.813   7.123  66.373  1.00  0.00    -0.106 N  
HETATM    3  O   UNL     1      -7.486   4.975  67.000  1.00  0.00    -0.084 OA 
HETATM    4  C   UNL     1      -8.300   5.899  66.830  1.00  0.00    -0.109 C  
ENDROOT
BRANCH   2   5
HETATM    5  C   UNL     1      -8.557   8.313  66.257  1.00  0.00    -0.138 A  
HETATM    6  C   UNL     1      -9.688  10.286  66.936  1.00  0.00    -0.229 A  
HETATM    7  C   UNL     1      -8.933   8.683  64.955  1.00  0.00    -0.007 A  
HETATM    8  C   UNL     1      -8.957   9.129  67.332  1.00  0.00    -0.128 A  
HETATM    9  C   UNL     1      -9.914  10.659  65.602  1.00  0.00    -0.268 A  
HETATM   10  N   UNL     1      -9.567   9.819  64.618  1.00  0.00    -0.249 NA 
BRANCH   9  11
HETATM   11  N   UNL     1     -10.451  11.883  65.259  1.00  0.00    -0.264 NA 
HETATM   12  C   UNL     1     -11.199  12.668  66.257  1.00  0.00    -0.311 C  
HETATM   13  C   UNL     1     -11.957  12.749  63.469  1.00  0.00    -0.555 C  
HETATM   14  C   UNL     1     -12.600  13.097  65.750  1.00  0.00    -0.284 C  
HETATM   15  N   UNL     1     -12.648  13.675  64.388  1.00  0.00    -0.654 NA 
HETATM   16  C   UNL     1     -12.062  15.013  64.345  1.00  0.00    -0.359 C  
HETATM   17  C   UNL     1     -10.514  12.365  63.874  1.00  0.00    -0.439 C  
ENDBRANCH   9  11
BRANCH   8  18
HETATM   18  C   UNL     1      -8.596   8.990  68.806  1.00  0.00    -0.132 A  
HETATM   19  C   UNL     1      -6.872   8.157  70.410  1.00  0.00    -0.037 A  
HETATM   20  C   UNL     1      -7.624   8.572  71.489  1.00  0.00    -0.131 A  
HETATM   21  C   UNL     1      -7.362   8.342  69.111  1.00  0.00    -0.081 A  
HETATM   22  C   UNL     1      -8.843   9.190  71.253  1.00  0.00    -0.182 A  
HETATM   23  C   UNL     1      -9.324   9.436  69.938  1.00  0.00    -0.234 A  
HETATM   24  C   UNL     1     -10.631  10.172  69.903  1.00  0.00    -0.331 C  
ENDBRANCH   8  18
ENDBRANCH   2   5
BRANCH   4  25
HETATM   25  C   UNL     1      -9.807   5.616  67.220  1.00  0.00    -0.163 C  
HETATM   26  C   UNL     1     -10.038   4.174  66.695  1.00  0.00    -0.055 C  
HETATM   27  C   UNL     1     -10.948   6.469  66.655  1.00  0.00    -0.163 C  
BRANCH  25  28
HETATM   28  C   UNL     1      -9.968   5.706  68.763  1.00  0.00    -0.221 A  
HETATM   29  C   UNL     1      -9.095   5.235  71.011  1.00  0.00    -0.171 A  
HETATM   30  C   UNL     1      -8.984   5.169  69.614  1.00  0.00    -0.137 A  
HETATM   31  F   UNL     1     -12.410   7.145  72.712  1.00  0.00    -0.055 F  
HETATM   32  C   UNL     1      -8.052   4.600  71.900  1.00  0.00    -0.101 C  
HETATM   33  F   UNL     1     -13.557   6.669  70.929  1.00  0.00    -0.203 F  
HETATM   34  C   UNL     1     -10.201   5.888  71.575  1.00  0.00    -0.254 A  
HETATM   35  F   UNL     1      -7.460   5.499  72.733  1.00  0.00    -0.089 F  
HETATM   36  F   UNL     1      -7.036   4.008  71.210  1.00  0.00    -0.029 F  
HETATM   37  F   UNL     1     -12.401   8.507  71.018  1.00  0.00    -0.298 F  
HETATM   38  C   UNL     1     -12.372   7.187  71.351  1.00  0.00    -0.377 C  
HETATM   39  C   UNL     1     -11.182   6.468  70.759  1.00  0.00    -0.377 A  
HETATM   40  F   UNL     1      -8.571   3.631  72.702  1.00  0.00    -0.085 F  
HETATM   41  C   UNL     1     -11.051   6.376  69.361  1.00  0.00    -0.450 A  
ENDBRANCH  25  28
ENDBRANCH   4  25
TORSDOF 5
ENDMDL
MODEL       15
REMARK 921   NORMALIZED FREE ENERGY PREDICTED BY IDOCK:   -7.13 KCAL/MOL
REMARK 922        TOTAL FREE ENERGY PREDICTED BY IDOCK:  -10.86 KCAL/MOL
REMARK 923 INTER-LIGAND FREE ENERGY PREDICTED BY IDOCK:   -9.12 KCAL/MOL
REMARK 924 INTRA-LIGAND FREE ENERGY PREDICTED BY IDOCK:   -1.74 KCAL/MOL
REMARK 927      BINDING AFFINITY PREDICTED BY RF-SCORE:    0.00 PKD
ROOT
HETATM    1  C   UNL     1     -11.142  11.729  64.407  1.00  0.00    -0.334 C  
HETATM    2  N   UNL     1     -10.161  11.683  65.503  1.00  0.00    -0.236 N  
HETATM    3  O   UNL     1     -10.396  13.922  65.723  1.00  0.00    -0.296 OA 
HETATM    4  C   UNL     1      -9.977  12.863  66.223  1.00  0.00    -0.270 C  
ENDROOT
BRANCH   2   5
HETATM    5  C   UNL     1      -9.880  10.384  65.969  1.00  0.00    -0.232 A  
HETATM    6  C   UNL     1      -8.718   8.329  66.218  1.00  0.00    -0.173 A  
HETATM    7  C   UNL     1     -10.805   9.839  66.875  1.00  0.00    -0.050 A  
HETATM    8  C   UNL     1      -8.774   9.604  65.584  1.00  0.00    -0.163 A  
HETATM    9  C   UNL     1      -9.610   7.904  67.214  1.00  0.00    -0.159 A  
HETATM   10  N   UNL     1     -10.681   8.655  67.501  1.00  0.00    -0.211 NA 
BRANCH   9  11
HETATM   11  N   UNL     1      -9.407   6.749  67.942  1.00  0.00    -0.115 NA 
HETATM   12  C   UNL     1     -10.525   5.817  68.174  1.00  0.00    -0.217 C  
HETATM   13  C   UNL     1      -8.479   6.173  70.185  1.00  0.00    -0.133 C  
HETATM   14  C   UNL     1     -10.711   5.472  69.674  1.00  0.00    -0.278 C  
HETATM   15  N   UNL     1      -9.481   5.114  70.416  1.00  0.00    -0.159 NA 
HETATM   16  C   UNL     1      -8.975   3.800  70.026  1.00  0.00    -0.103 C  
HETATM   17  C   UNL     1      -8.178   6.490  68.700  1.00  0.00    -0.118 C  
ENDBRANCH   9  11
BRANCH   8  18
HETATM   18  C   UNL     1      -7.599  10.007  64.699  1.00  0.00    -0.143 A  
HETATM   19  C   UNL     1      -5.178  10.622  64.685  1.00  0.00    -0.146 A  
HETATM   20  C   UNL     1      -5.191  10.784  63.316  1.00  0.00    -0.165 A  
HETATM   21  C   UNL     1      -6.358  10.267  65.353  1.00  0.00    -0.124 A  
HETATM   22  C   UNL     1      -6.376  10.565  62.630  1.00  0.00    -0.131 A  
HETATM   23  C   UNL     1      -7.566  10.148  63.289  1.00  0.00    -0.143 A  
HETATM   24  C   UNL     1      -8.716   9.904  62.358  1.00  0.00    -0.233 C  
ENDBRANCH   8  18
ENDBRANCH   2   5
BRANCH   4  25
HETATM   25  C   UNL     1      -9.335  12.950  67.666  1.00  0.00    -0.195 C  
HETATM   26  C   UNL     1      -8.569  14.299  67.627  1.00  0.00    -0.186 C  
HETATM   27  C   UNL     1      -8.334  11.898  68.156  1.00  0.00    -0.161 C  
BRANCH  25  28
HETATM   28  C   UNL     1     -10.465  12.953  68.734  1.00  0.00    -0.183 A  
HETATM   29  C   UNL     1     -11.929  11.711  70.268  1.00  0.00    -0.445 A  
HETATM   30  C   UNL     1     -10.914  11.745  69.299  1.00  0.00    -0.231 A  
HETATM   31  F   UNL     1     -13.631  15.306  71.576  1.00  0.00    -0.408 F  
HETATM   32  C   UNL     1     -12.430  10.396  70.815  1.00  0.00    -0.368 C  
HETATM   33  F   UNL     1     -13.127  16.202  69.661  1.00  0.00     0.229 F  
HETATM   34  C   UNL     1     -12.486  12.919  70.711  1.00  0.00    -0.370 A  
HETATM   35  F   UNL     1     -12.280  10.301  72.165  1.00  0.00    -0.364 F  
HETATM   36  F   UNL     1     -11.792   9.310  70.293  1.00  0.00    -0.244 F  
HETATM   37  F   UNL     1     -11.690  16.242  71.290  1.00  0.00    -0.420 F  
HETATM   38  C   UNL     1     -12.618  15.455  70.678  1.00  0.00    -0.439 C  
HETATM   39  C   UNL     1     -12.037  14.145  70.199  1.00  0.00    -0.411 A  
HETATM   40  F   UNL     1     -13.755  10.201  70.570  1.00  0.00    -0.341 F  
HETATM   41  C   UNL     1     -11.026  14.148  69.220  1.00  0.00    -0.252 A  
ENDBRANCH  25  28
ENDBRANCH   4  25
TORSDOF 5
ENDMDL
MODEL       16
REMARK 921   NORMALIZED FREE ENERGY PREDICTED BY IDOCK:   -6.99 KCAL/MOL
REMARK 922        TOTAL FREE ENERGY PREDICTED BY IDOCK:  -10.67 KCAL/MOL
REMARK 923 INTER-LIGAND FREE ENERGY PREDICTED BY IDOCK:   -9.12 KCAL/MOL
REMARK 924 INTRA-LIGAND FREE ENERGY PREDICTED BY IDOCK:   -1.55 KCAL/MOL
REMARK 927      BINDING AFFINITY PREDICTED BY RF-SCORE:    0.00 PKD
ROOT
HETATM    1  C   UNL     1     -11.294  11.807  65.173  1.00  0.00    -0.218 C  
HETATM    2  N   UNL     1     -10.238  11.896  66.195  1.00  0.00    -0.220 N  
HETATM    3  O   UNL     1      -9.874  14.030  65.543  1.00  0.00    -0.279 OA 
HETATM    4  C   UNL     1      -9.681  13.156  66.406  1.00  0.00    -0.269 C  
ENDROOT
BRANCH   2   5
HETATM    5  C   UNL     1     -10.243  10.833  67.120  1.00  0.00    -0.213 A  
HETATM    6  C   UNL     1      -9.574   8.810  68.164  1.00  0.00    -0.162 A  
HETATM    7  C   UNL     1     -11.229  10.889  68.119  1.00  0.00    -0.301 A  
HETATM    8  C   UNL     1      -9.363   9.736  67.102  1.00  0.00    -0.169 A  
HETATM    9  C   UNL     1     -10.497   8.999  69.204  1.00  0.00    -0.225 A  
HETATM   10  N   UNL     1     -11.353  10.027  69.143  1.00  0.00    -0.148 NA 
BRANCH   9  11
HETATM   11  N   UNL     1     -10.534   8.182  70.316  1.00  0.00    -0.214 NA 
HETATM   12  C   UNL     1     -11.827   7.814  70.919  1.00  0.00    -0.239 C  
HETATM   13  C   UNL     1      -9.491   8.175  72.582  1.00  0.00    -0.276 C  
HETATM   14  C   UNL     1     -11.881   8.108  72.440  1.00  0.00    -0.388 C  
HETATM   15  N   UNL     1     -10.713   7.658  73.230  1.00  0.00    -0.388 NA 
HETATM   16  C   UNL     1     -10.676   6.204  73.365  1.00  0.00    -0.259 C  
HETATM   17  C   UNL     1      -9.335   7.824  71.082  1.00  0.00    -0.150 C  
ENDBRANCH   9  11
BRANCH   8  18
HETATM   18  C   UNL     1      -8.166   9.503  66.188  1.00  0.00    -0.115 A  
HETATM   19  C   UNL     1      -7.462   8.902  63.868  1.00  0.00    -0.112 A  
HETATM   20  C   UNL     1      -6.130   8.992  64.210  1.00  0.00    -0.071 A  
HETATM   21  C   UNL     1      -8.445   9.127  64.840  1.00  0.00    -0.191 A  
HETATM   22  C   UNL     1      -5.798   9.333  65.513  1.00  0.00    -0.054 A  
HETATM   23  C   UNL     1      -6.786   9.622  66.494  1.00  0.00    -0.079 A  
HETATM   24  C   UNL     1      -6.217  10.032  67.820  1.00  0.00    -0.054 C  
ENDBRANCH   8  18
ENDBRANCH   2   5
BRANCH   4  25
HETATM   25  C   UNL     1      -8.879  13.584  67.700  1.00  0.00    -0.202 C  
HETATM   26  C   UNL     1      -7.511  14.041  67.128  1.00  0.00     0.085 C  
HETATM   27  C   UNL     1      -8.566  12.575  68.811  1.00  0.00     0.153 C  
BRANCH  25  28
HETATM   28  C   UNL     1      -9.628  14.744  68.414  1.00  0.00    -0.213 A  
HETATM   29  C   UNL     1     -11.262  15.491  70.091  1.00  0.00    -0.331 A  
HETATM   30  C   UNL     1     -10.569  14.469  69.423  1.00  0.00    -0.172 A  
HETATM   31  F   UNL     1     -10.465  19.482  69.108  1.00  0.00    -0.381 F  
HETATM   32  C   UNL     1     -12.307  15.164  71.131  1.00  0.00    -0.341 C  
HETATM   33  F   UNL     1      -9.871  18.838  67.118  1.00  0.00    -0.293 F  
HETATM   34  C   UNL     1     -10.981  16.826  69.766  1.00  0.00    -0.096 A  
HETATM   35  F   UNL     1     -12.017  15.699  72.348  1.00  0.00    -0.388 F  
HETATM   36  F   UNL     1     -12.466  13.826  71.341  1.00  0.00    -0.392 F  
HETATM   37  F   UNL     1      -8.407  18.898  68.723  1.00  0.00    -0.354 F  
HETATM   38  C   UNL     1      -9.699  18.573  68.442  1.00  0.00    -0.364 C  
HETATM   39  C   UNL     1     -10.022  17.140  68.792  1.00  0.00    -0.315 A  
HETATM   40  F   UNL     1     -13.539  15.637  70.797  1.00  0.00    -0.524 F  
HETATM   41  C   UNL     1      -9.352  16.094  68.131  1.00  0.00    -0.201 A  
ENDBRANCH  25  28
ENDBRANCH   4  25
TORSDOF 5
ENDMDL
MODEL       17
REMARK 921   NORMALIZED FREE ENERGY PREDICTED BY IDOCK:   -6.87 KCAL/MOL
REMARK 922        TOTAL FREE ENERGY PREDICTED BY IDOCK:  -10.52 KCAL/MOL
REMARK 923 INTER-LIGAND FREE ENERGY PREDICTED BY IDOCK:   -9.58 KCAL/MOL
REMARK 924 INTRA-LIGAND FREE ENERGY PREDICTED BY IDOCK:   -0.94 KCAL/MOL
REMARK 927      BINDING AFFINITY PREDICTED BY RF-SCORE:    0.00 PKD
ROOT
HETATM    1  C   UNL     1     -13.645  14.177  65.451  1.00  0.00     1.118 C  
HETATM    2  N   UNL     1     -12.295  13.616  65.622  1.00  0.00    -0.451 N  
HETATM    3  O   UNL     1     -12.915  11.886  64.305  1.00  0.00    -0.506 OA 
HETATM    4  C   UNL     1     -11.980  12.504  64.842  1.00  0.00    -0.412 C  
ENDROOT
BRANCH   2   5
HETATM    5  C   UNL     1     -11.368  14.513  66.189  1.00  0.00    -0.348 A  
HETATM    6  C   UNL     1     -10.089  15.601  67.866  1.00  0.00    -0.225 A  
HETATM    7  C   UNL     1     -10.706  15.365  65.291  1.00  0.00    -0.421 A  
HETATM    8  C   UNL     1     -11.081  14.624  67.562  1.00  0.00    -0.319 A  
HETATM    9  C   UNL     1      -9.374  16.327  66.901  1.00  0.00    -0.224 A  
HETATM   10  N   UNL     1      -9.727  16.230  65.612  1.00  0.00    -0.500 NA 
BRANCH   9  11
HETATM   11  N   UNL     1      -8.289  17.115  67.224  1.00  0.00    -0.188 NA 
HETATM   12  C   UNL     1      -8.233  17.796  68.530  1.00  0.00    -0.296 C  
HETATM   13  C   UNL     1      -7.089  19.040  66.186  1.00  0.00    -0.253 C  
HETATM   14  C   UNL     1      -7.962  19.316  68.399  1.00  0.00    -0.341 C  
HETATM   15  N   UNL     1      -6.863  19.703  67.486  1.00  0.00    -0.217 NA 
HETATM   16  C   UNL     1      -5.553  19.369  68.039  1.00  0.00    -0.195 C  
HETATM   17  C   UNL     1      -7.267  17.504  66.246  1.00  0.00    -0.316 C  
ENDBRANCH   9  11
BRANCH   8  18
HETATM   18  C   UNL     1     -11.594  13.757  68.706  1.00  0.00    -0.363 A  
HETATM   19  C   UNL     1     -12.139  11.422  69.405  1.00  0.00    -0.358 A  
HETATM   20  C   UNL     1     -12.528  11.850  70.657  1.00  0.00    -0.347 A  
HETATM   21  C   UNL     1     -11.710  12.357  68.455  1.00  0.00    -0.386 A  
HETATM   22  C   UNL     1     -12.457  13.203  70.950  1.00  0.00    -0.407 A  
HETATM   23  C   UNL     1     -11.967  14.156  70.015  1.00  0.00    -0.404 A  
HETATM   24  C   UNL     1     -11.912  15.555  70.553  1.00  0.00    -0.406 C  
ENDBRANCH   8  18
ENDBRANCH   2   5
BRANCH   4  25
HETATM   25  C   UNL     1     -10.511  12.008  64.529  1.00  0.00    -0.341 C  
HETATM   26  C   UNL     1      -9.791  13.309  64.088  1.00  0.00     0.493 C  
HETATM   27  C   UNL     1     -10.240  10.971  63.433  1.00  0.00    -0.404 C  
BRANCH  25  28
HETATM   28  C   UNL     1      -9.884  11.403  65.816  1.00  0.00    -0.270 A  
HETATM   29  C   UNL     1      -9.675   9.522  67.384  1.00  0.00    -0.201 A  
HETATM   30  C   UNL     1     -10.225  10.102  66.229  1.00  0.00    -0.288 A  
HETATM   31  F   UNL     1      -6.888  11.691  69.633  1.00  0.00    -0.115 F  
HETATM   32  C   UNL     1     -10.102   8.146  67.835  1.00  0.00    -0.196 C  
HETATM   33  F   UNL     1      -7.786  13.533  68.908  1.00  0.00    -0.126 F  
HETATM   34  C   UNL     1      -8.733  10.249  68.125  1.00  0.00    -0.123 A  
HETATM   35  F   UNL     1      -9.060   7.273  67.905  1.00  0.00    -0.132 F  
HETATM   36  F   UNL     1     -11.020   7.563  67.012  1.00  0.00    -0.403 F  
HETATM   37  F   UNL     1      -6.194  12.582  67.776  1.00  0.00    -0.067 F  
HETATM   38  C   UNL     1      -7.315  12.321  68.504  1.00  0.00    -0.105 C  
HETATM   39  C   UNL     1      -8.340  11.533  67.723  1.00  0.00    -0.136 A  
HETATM   40  F   UNL     1     -10.666   8.155  69.074  1.00  0.00    -0.224 F  
HETATM   41  C   UNL     1      -8.916  12.093  66.568  1.00  0.00    -0.179 A  
ENDBRANCH  25  28
ENDBRANCH   4  25
TORSDOF 5
ENDMDL
MODEL       18
REMARK 921   NORMALIZED FREE ENERGY PREDICTED BY IDOCK:   -6.86 KCAL/MOL
REMARK 922        TOTAL FREE ENERGY PREDICTED BY IDOCK:  -10.50 KCAL/MOL
REMARK 923 INTER-LIGAND FREE ENERGY PREDICTED BY IDOCK:   -8.78 KCAL/MOL
REMARK 924 INTRA-LIGAND FREE ENERGY PREDICTED BY IDOCK:   -1.72 KCAL/MOL
REMARK 927      BINDING AFFINITY PREDICTED BY RF-SCORE:    0.00 PKD
ROOT
HETATM    1  C   UNL     1      -7.352  10.422  65.792  1.00  0.00    -0.147 C  
HETATM    2  N   UNL     1      -8.455  11.046  66.540  1.00  0.00    -0.156 N  
HETATM    3  O   UNL     1      -9.182   8.973  67.075  1.00  0.00    -0.130 OA 
HETATM    4  C   UNL     1      -9.249  10.194  67.305  1.00  0.00    -0.138 C  
ENDROOT
BRANCH   2   5
HETATM    5  C   UNL     1      -8.295  12.430  66.749  1.00  0.00    -0.059 A  
HETATM    6  C   UNL     1      -8.772  14.752  66.630  1.00  0.00    -0.229 A  
HETATM    7  C   UNL     1      -7.170  12.816  67.496  1.00  0.00    -0.154 A  
HETATM    8  C   UNL     1      -9.154  13.431  66.258  1.00  0.00     0.015 A  
HETATM    9  C   UNL     1      -7.705  15.053  67.490  1.00  0.00    -0.185 A  
HETATM   10  N   UNL     1      -6.881  14.072  67.881  1.00  0.00    -0.147 NA 
BRANCH   9  11
HETATM   11  N   UNL     1      -7.488  16.324  67.982  1.00  0.00    -0.133 NA 
HETATM   12  C   UNL     1      -8.549  17.014  68.737  1.00  0.00    -0.238 C  
HETATM   13  C   UNL     1      -6.748  18.515  67.046  1.00  0.00    -0.192 C  
HETATM   14  C   UNL     1      -8.857  18.426  68.177  1.00  0.00    -0.302 C  
HETATM   15  N   UNL     1      -7.684  19.282  67.892  1.00  0.00    -0.275 NA 
HETATM   16  C   UNL     1      -7.042  19.750  69.118  1.00  0.00    -0.314 C  
HETATM   17  C   UNL     1      -6.325  17.136  67.607  1.00  0.00    -0.143 C  
ENDBRANCH   9  11
BRANCH   8  18
HETATM   18  C   UNL     1     -10.473  13.259  65.513  1.00  0.00    -0.295 A  
HETATM   19  C   UNL     1     -11.540  12.352  63.445  1.00  0.00    -0.541 A  
HETATM   20  C   UNL     1     -12.785  12.778  63.858  1.00  0.00    -0.288 A  
HETATM   21  C   UNL     1     -10.418  12.611  64.243  1.00  0.00    -0.417 A  
HETATM   22  C   UNL     1     -12.895  13.433  65.075  1.00  0.00    -0.344 A  
HETATM   23  C   UNL     1     -11.773  13.650  65.922  1.00  0.00    -0.378 A  
HETATM   24  C   UNL     1     -12.119  14.317  67.220  1.00  0.00    -0.390 C  
ENDBRANCH   8  18
ENDBRANCH   2   5
BRANCH   4  25
HETATM   25  C   UNL     1     -10.181  10.654  68.497  1.00  0.00    -0.191 C  
HETATM   26  C   UNL     1     -11.591  10.674  67.850  1.00  0.00    -0.132 C  
HETATM   27  C   UNL     1      -9.995  12.019  69.169  1.00  0.00     0.241 C  
BRANCH  25  28
HETATM   28  C   UNL     1     -10.087   9.623  69.656  1.00  0.00    -0.242 A  
HETATM   29  C   UNL     1      -8.758   8.525  71.408  1.00  0.00    -0.237 A  
HETATM   30  C   UNL     1      -8.878   9.445  70.354  1.00  0.00    -0.290 A  
HETATM   31  F   UNL     1     -12.103   6.287  72.562  1.00  0.00    -0.303 F  
HETATM   32  C   UNL     1      -7.433   8.315  72.102  1.00  0.00    -0.118 C  
HETATM   33  F   UNL     1     -12.886   6.479  70.543  1.00  0.00    -0.275 F  
HETATM   34  C   UNL     1      -9.885   7.789  71.798  1.00  0.00    -0.210 A  
HETATM   35  F   UNL     1      -7.497   8.576  73.437  1.00  0.00    -0.174 F  
HETATM   36  F   UNL     1      -6.433   9.105  71.617  1.00  0.00    -0.077 F  
HETATM   37  F   UNL     1     -13.337   7.997  72.032  1.00  0.00    -0.311 F  
HETATM   38  C   UNL     1     -12.343   7.189  71.570  1.00  0.00    -0.370 C  
HETATM   39  C   UNL     1     -11.116   7.966  71.150  1.00  0.00    -0.278 A  
HETATM   40  F   UNL     1      -6.984   7.035  71.991  1.00  0.00    -0.062 F  
HETATM   41  C   UNL     1     -11.204   8.887  70.090  1.00  0.00    -0.175 A  
ENDBRANCH  25  28
ENDBRANCH   4  25
TORSDOF 5
ENDMDL
MODEL       19
REMARK 921   NORMALIZED FREE ENERGY PREDICTED BY IDOCK:   -6.83 KCAL/MOL
REMARK 922        TOTAL FREE ENERGY PREDICTED BY IDOCK:  -10.47 KCAL/MOL
REMARK 923 INTER-LIGAND FREE ENERGY PREDICTED BY IDOCK:   -8.65 KCAL/MOL
REMARK 924 INTRA-LIGAND FREE ENERGY PREDICTED BY IDOCK:   -1.81 KCAL/MOL
REMARK 927      BINDING AFFINITY PREDICTED BY RF-SCORE:    0.00 PKD
ROOT
HETATM    1  C   UNL     1     -12.027  12.187  68.620  1.00  0.00    -0.237 C  
HETATM    2  N   UNL     1     -10.558  12.144  68.700  1.00  0.00    -0.227 N  
HETATM    3  O   UNL     1     -10.710   9.929  69.130  1.00  0.00    -0.210 OA 
HETATM    4  C   UNL     1      -9.978  10.880  68.806  1.00  0.00    -0.195 C  
ENDROOT
BRANCH   2   5
HETATM    5  C   UNL     1      -9.922  13.303  68.214  1.00  0.00    -0.236 A  
HETATM    6  C   UNL     1      -9.146  14.903  66.642  1.00  0.00    -0.309 A  
HETATM    7  C   UNL     1      -9.323  14.130  69.179  1.00  0.00     0.197 A  
HETATM    8  C   UNL     1      -9.830  13.671  66.859  1.00  0.00    -0.261 A  
HETATM    9  C   UNL     1      -8.687  15.742  67.668  1.00  0.00    -0.170 A  
HETATM   10  N   UNL     1      -8.743  15.319  68.938  1.00  0.00    -0.194 NA 
BRANCH   9  11
HETATM   11  N   UNL     1      -8.209  17.014  67.424  1.00  0.00    -0.181 NA 
HETATM   12  C   UNL     1      -7.686  17.832  68.532  1.00  0.00    -0.289 C  
HETATM   13  C   UNL     1      -9.069  19.080  66.322  1.00  0.00    -0.287 C  
HETATM   14  C   UNL     1      -8.343  19.234  68.599  1.00  0.00    -0.372 C  
HETATM   15  N   UNL     1      -8.438  19.969  67.317  1.00  0.00    -0.323 NA 
HETATM   16  C   UNL     1      -7.132  20.442  66.865  1.00  0.00    -0.277 C  
HETATM   17  C   UNL     1      -8.391  17.700  66.140  1.00  0.00    -0.148 C  
ENDBRANCH   9  11
BRANCH   8  18
HETATM   18  C   UNL     1     -10.472  12.996  65.653  1.00  0.00    -0.291 A  
HETATM   19  C   UNL     1     -10.194  11.204  63.936  1.00  0.00    -0.420 A  
HETATM   20  C   UNL     1     -11.406  11.519  63.360  1.00  0.00    -0.303 A  
HETATM   21  C   UNL     1      -9.735  11.942  65.034  1.00  0.00    -0.177 A  
HETATM   22  C   UNL     1     -12.156  12.549  63.905  1.00  0.00    -0.581 A  
HETATM   23  C   UNL     1     -11.730  13.268  65.057  1.00  0.00    -0.362 A  
HETATM   24  C   UNL     1     -12.715  14.297  65.524  1.00  0.00    -0.399 C  
ENDBRANCH   8  18
ENDBRANCH   2   5
BRANCH   4  25
HETATM   25  C   UNL     1      -8.467  10.550  68.475  1.00  0.00    -0.131 C  
HETATM   26  C   UNL     1      -7.936   9.966  69.811  1.00  0.00    -0.181 C  
HETATM   27  C   UNL     1      -7.484  11.651  68.063  1.00  0.00    -0.100 C  
BRANCH  25  28
HETATM   28  C   UNL     1      -8.406   9.510  67.321  1.00  0.00    -0.125 A  
HETATM   29  C   UNL     1      -7.556   8.848  65.113  1.00  0.00    -0.099 A  
HETATM   30  C   UNL     1      -7.636   9.766  66.172  1.00  0.00    -0.101 A  
HETATM   31  F   UNL     1      -9.607   5.210  65.397  1.00  0.00    -0.169 F  
HETATM   32  C   UNL     1      -6.766   9.174  63.866  1.00  0.00    -0.089 C  
HETATM   33  F   UNL     1     -11.039   6.160  66.729  1.00  0.00    -0.376 F  
HETATM   34  C   UNL     1      -8.234   7.626  65.220  1.00  0.00    -0.136 A  
HETATM   35  F   UNL     1      -5.774   8.274  63.628  1.00  0.00    -0.061 F  
HETATM   36  F   UNL     1      -6.159  10.394  63.910  1.00  0.00    -0.129 F  
HETATM   37  F   UNL     1      -9.237   5.254  67.539  1.00  0.00    -0.113 F  
HETATM   38  C   UNL     1      -9.706   6.001  66.502  1.00  0.00    -0.149 C  
HETATM   39  C   UNL     1      -8.981   7.320  66.366  1.00  0.00    -0.184 A  
HETATM   40  F   UNL     1      -7.541   9.184  62.747  1.00  0.00    -0.105 F  
HETATM   41  C   UNL     1      -9.053   8.264  67.407  1.00  0.00    -0.155 A  
ENDBRANCH  25  28
ENDBRANCH   4  25
TORSDOF 5
ENDMDL
MODEL       20
REMARK 921   NORMALIZED FREE ENERGY PREDICTED BY IDOCK:   -6.81 KCAL/MOL
REMARK 922        TOTAL FREE ENERGY PREDICTED BY IDOCK:  -10.44 KCAL/MOL
REMARK 923 INTER-LIGAND FREE ENERGY PREDICTED BY IDOCK:   -9.49 KCAL/MOL
REMARK 924 INTRA-LIGAND FREE ENERGY PREDICTED BY IDOCK:   -0.95 KCAL/MOL
REMARK 927      BINDING AFFINITY PREDICTED BY RF-SCORE:    0.00 PKD
ROOT
HETATM    1  C   UNL     1      -6.299   9.916  68.515  1.00  0.00    -0.050 C  
HETATM    2  N   UNL     1      -7.721   9.537  68.559  1.00  0.00    -0.081 N  
HETATM    3  O   UNL     1      -8.232  11.725  68.810  1.00  0.00    -0.121 OA 
HETATM    4  C   UNL     1      -8.644  10.582  68.549  1.00  0.00    -0.135 C  
ENDROOT
BRANCH   2   5
HETATM    5  C   UNL     1      -7.975   8.211  68.155  1.00  0.00    -0.127 A  
HETATM    6  C   UNL     1      -8.715   5.961  68.300  1.00  0.00    -0.112 A  
HETATM    7  C   UNL     1      -7.591   7.881  66.845  1.00  0.00    -0.099 A  
HETATM    8  C   UNL     1      -8.555   7.214  68.961  1.00  0.00    -0.129 A  
HETATM    9  C   UNL     1      -8.427   5.741  66.945  1.00  0.00    -0.108 A  
HETATM   10  N   UNL     1      -7.820   6.703  66.238  1.00  0.00    -0.102 NA 
BRANCH   9  11
HETATM   11  N   UNL     1      -8.779   4.575  66.295  1.00  0.00    -0.112 NA 
HETATM   12  C   UNL     1      -7.752   3.566  65.979  1.00  0.00    -0.082 C  
HETATM   13  C   UNL     1      -9.991   3.979  64.198  1.00  0.00    -0.163 C  
HETATM   14  C   UNL     1      -7.760   3.156  64.484  1.00  0.00    -0.077 C  
HETATM   15  N   UNL     1      -9.086   2.851  63.901  1.00  0.00    -0.101 NA 
HETATM   16  C   UNL     1      -9.621   1.586  64.402  1.00  0.00    -0.102 C  
HETATM   17  C   UNL     1     -10.101   4.367  65.692  1.00  0.00    -0.241 C  
ENDBRANCH   9  11
BRANCH   8  18
HETATM   18  C   UNL     1      -9.133   7.353  70.364  1.00  0.00    -0.157 A  
HETATM   19  C   UNL     1      -8.687   8.187  72.676  1.00  0.00    -0.277 A  
HETATM   20  C   UNL     1      -9.928   7.764  73.105  1.00  0.00    -0.374 A  
HETATM   21  C   UNL     1      -8.299   7.961  71.349  1.00  0.00    -0.119 A  
HETATM   22  C   UNL     1     -10.772   7.146  72.196  1.00  0.00    -0.245 A  
HETATM   23  C   UNL     1     -10.414   6.965  70.832  1.00  0.00    -0.233 A  
HETATM   24  C   UNL     1     -11.494   6.335  70.004  1.00  0.00    -0.460 C  
ENDBRANCH   8  18
ENDBRANCH   2   5
BRANCH   4  25
HETATM   25  C   UNL     1     -10.170  10.435  68.159  1.00  0.00    -0.187 C  
HETATM   26  C   UNL     1     -10.860  10.210  69.531  1.00  0.00    -0.289 C  
HETATM   27  C   UNL     1     -10.651   9.305  67.243  1.00  0.00    -0.303 C  
BRANCH  25  28
HETATM   28  C   UNL     1     -10.656  11.741  67.471  1.00  0.00    -0.247 A  
HETATM   29  C   UNL     1     -11.039  14.166  67.567  1.00  0.00    -0.304 A  
HETATM   30  C   UNL     1     -10.612  12.967  68.159  1.00  0.00    -0.257 A  
HETATM   31  F   UNL     1     -12.424  14.118  63.617  1.00  0.00    -0.495 F  
HETATM   32  C   UNL     1     -11.033  15.459  68.349  1.00  0.00    -0.284 C  
HETATM   33  F   UNL     1     -13.008  12.042  63.882  1.00  0.00    -0.564 F  
HETATM   34  C   UNL     1     -11.489  14.146  66.240  1.00  0.00    -0.358 A  
HETATM   35  F   UNL     1     -10.257  16.415  67.769  1.00  0.00    -0.247 F  
HETATM   36  F   UNL     1     -10.565  15.323  69.623  1.00  0.00    -0.221 F  
HETATM   37  F   UNL     1     -10.998  12.527  63.215  1.00  0.00    -0.471 F  
HETATM   38  C   UNL     1     -11.981  12.914  64.074  1.00  0.00    -0.451 C  
HETATM   39  C   UNL     1     -11.512  12.949  65.509  1.00  0.00    -0.361 A  
HETATM   40  F   UNL     1     -12.275  16.003  68.465  1.00  0.00    -0.291 F  
HETATM   41  C   UNL     1     -11.089  11.760  66.133  1.00  0.00    -0.358 A  
ENDBRANCH  25  28
ENDBRANCH   4  25
TORSDOF 5
ENDMDL
MODEL       21
REMARK 921   NORMALIZED FREE ENERGY PREDICTED BY IDOCK:   -6.81 KCAL/MOL
REMARK 922        TOTAL FREE ENERGY PREDICTED BY IDOCK:  -10.44 KCAL/MOL
REMARK 923 INTER-LIGAND FREE ENERGY PREDICTED BY IDOCK:   -7.71 KCAL/MOL
REMARK 924 INTRA-LIGAND FREE ENERGY PREDICTED BY IDOCK:   -2.73 KCAL/MOL
REMARK 927      BINDING AFFINITY PREDICTED BY RF-SCORE:    0.00 PKD
ROOT
HETATM    1  C   UNL     1      -7.041   9.515  70.625  1.00  0.00    -0.123 C  
HETATM    2  N   UNL     1      -6.968   9.101  69.214  1.00  0.00    -0.053 N  
HETATM    3  O   UNL     1      -5.715   7.334  69.861  1.00  0.00    -0.023 OA 
HETATM    4  C   UNL     1      -6.390   7.858  68.959  1.00  0.00    -0.036 C  
ENDROOT
BRANCH   2   5
HETATM    5  C   UNL     1      -7.871   9.777  68.370  1.00  0.00    -0.081 A  
HETATM    6  C   UNL     1      -9.927  10.312  67.310  1.00  0.00    -0.233 A  
HETATM    7  C   UNL     1      -7.340  10.840  67.622  1.00  0.00    -0.094 A  
HETATM    8  C   UNL     1      -9.233   9.457  68.215  1.00  0.00    -0.133 A  
HETATM    9  C   UNL     1      -9.359  11.438  66.696  1.00  0.00    -0.185 A  
HETATM   10  N   UNL     1      -8.045  11.665  66.827  1.00  0.00    -0.163 NA 
BRANCH   9  11
HETATM   11  N   UNL     1     -10.112  12.350  65.985  1.00  0.00    -0.246 NA 
HETATM   12  C   UNL     1     -10.635  13.556  66.652  1.00  0.00    -0.280 C  
HETATM   13  C   UNL     1     -12.154  12.273  64.555  1.00  0.00    -0.383 C  
HETATM   14  C   UNL     1     -12.162  13.732  66.454  1.00  0.00    -0.436 C  
HETATM   15  N   UNL     1     -12.661  13.560  65.071  1.00  0.00    -0.681 NA 
HETATM   16  C   UNL     1     -12.274  14.675  64.210  1.00  0.00    -0.408 C  
HETATM   17  C   UNL     1     -10.620  12.083  64.635  1.00  0.00    -0.307 C  
ENDBRANCH   9  11
BRANCH   8  18
HETATM   18  C   UNL     1     -10.051   8.422  68.978  1.00  0.00    -0.209 A  
HETATM   19  C   UNL     1     -10.938   7.780  71.223  1.00  0.00    -0.259 A  
HETATM   20  C   UNL     1     -11.535   6.651  70.704  1.00  0.00    -0.420 A  
HETATM   21  C   UNL     1     -10.198   8.622  70.384  1.00  0.00    -0.218 A  
HETATM   22  C   UNL     1     -11.407   6.394  69.348  1.00  0.00    -0.443 A  
HETATM   23  C   UNL     1     -10.709   7.271  68.473  1.00  0.00    -0.165 A  
HETATM   24  C   UNL     1     -10.742   6.844  67.036  1.00  0.00    -0.432 C  
ENDBRANCH   8  18
ENDBRANCH   2   5
BRANCH   4  25
HETATM   25  C   UNL     1      -6.587   7.027  67.627  1.00  0.00    -0.055 C  
HETATM   26  C   UNL     1      -5.130   6.751  67.170  1.00  0.00    -0.009 C  
HETATM   27  C   UNL     1      -7.314   7.625  66.417  1.00  0.00    -0.079 C  
BRANCH  25  28
HETATM   28  C   UNL     1      -7.356   5.714  67.946  1.00  0.00    -0.073 A  
HETATM   29  C   UNL     1      -8.478   4.265  69.582  1.00  0.00    -0.091 A  
HETATM   30  C   UNL     1      -7.779   5.439  69.259  1.00  0.00    -0.085 A  
HETATM   31  F   UNL     1      -9.398   1.530  66.549  1.00  0.00    -0.113 F  
HETATM   32  C   UNL     1      -8.871   3.969  71.011  1.00  0.00    -0.088 C  
HETATM   33  F   UNL     1      -7.671   2.237  65.434  1.00  0.00    -0.070 F  
HETATM   34  C   UNL     1      -8.795   3.359  68.560  1.00  0.00    -0.160 A  
HETATM   35  F   UNL     1     -10.216   3.824  71.162  1.00  0.00    -0.226 F  
HETATM   36  F   UNL     1      -8.500   4.942  71.891  1.00  0.00    -0.113 F  
HETATM   37  F   UNL     1      -9.596   3.216  65.191  1.00  0.00    -0.153 F  
HETATM   38  C   UNL     1      -8.769   2.659  66.119  1.00  0.00    -0.128 C  
HETATM   39  C   UNL     1      -8.423   3.619  67.233  1.00  0.00    -0.105 A  
HETATM   40  F   UNL     1      -8.316   2.816  71.474  1.00  0.00    -0.059 F  
HETATM   41  C   UNL     1      -7.712   4.798  66.940  1.00  0.00    -0.091 A  
ENDBRANCH  25  28
ENDBRANCH   4  25
TORSDOF 5
ENDMDL
MODEL       22
REMARK 921   NORMALIZED FREE ENERGY PREDICTED BY IDOCK:   -6.79 KCAL/MOL
REMARK 922        TOTAL FREE ENERGY PREDICTED BY IDOCK:  -10.41 KCAL/MOL
REMARK 923 INTER-LIGAND FREE ENERGY PREDICTED BY IDOCK:   -8.87 KCAL/MOL
REMARK 924 INTRA-LIGAND FREE ENERGY PREDICTED BY IDOCK:   -1.54 KCAL/MOL
REMARK 927      BINDING AFFINITY PREDICTED BY RF-SCORE:    0.00 PKD
ROOT
HETATM    1  C   UNL     1      -6.300   9.473  68.406  1.00  0.00    -0.052 C  
HETATM    2  N   UNL     1      -7.717   9.086  68.324  1.00  0.00    -0.095 N  
HETATM    3  O   UNL     1      -8.258  11.148  69.080  1.00  0.00    -0.137 OA 
HETATM    4  C   UNL     1      -8.652  10.098  68.543  1.00  0.00    -0.118 C  
ENDROOT
BRANCH   2   5
HETATM    5  C   UNL     1      -7.947   7.895  67.609  1.00  0.00    -0.124 A  
HETATM    6  C   UNL     1      -8.667   5.671  67.193  1.00  0.00    -0.108 A  
HETATM    7  C   UNL     1      -7.529   7.889  66.268  1.00  0.00    -0.079 A  
HETATM    8  C   UNL     1      -8.535   6.731  68.138  1.00  0.00    -0.121 A  
HETATM    9  C   UNL     1      -8.344   5.783  65.832  1.00  0.00    -0.130 A  
HETATM   10  N   UNL     1      -7.731   6.889  65.391  1.00  0.00    -0.100 NA 
BRANCH   9  11
HETATM   11  N   UNL     1      -8.668   4.805  64.914  1.00  0.00    -0.144 NA 
HETATM   12  C   UNL     1      -8.151   4.884  63.536  1.00  0.00    -0.101 C  
HETATM   13  C   UNL     1     -10.768   3.771  64.051  1.00  0.00    -0.242 C  
HETATM   14  C   UNL     1      -9.271   4.771  62.471  1.00  0.00    -0.073 C  
HETATM   15  N   UNL     1     -10.250   3.678  62.671  1.00  0.00    -0.157 NA 
HETATM   16  C   UNL     1      -9.662   2.367  62.404  1.00  0.00    -0.088 C  
HETATM   17  C   UNL     1      -9.693   3.785  65.165  1.00  0.00    -0.176 C  
ENDBRANCH   9  11
BRANCH   8  18
HETATM   18  C   UNL     1      -9.148   6.527  69.518  1.00  0.00    -0.140 A  
HETATM   19  C   UNL     1     -11.246   5.968  70.753  1.00  0.00    -0.340 A  
HETATM   20  C   UNL     1     -10.603   6.081  71.968  1.00  0.00    -0.267 A  
HETATM   21  C   UNL     1     -10.538   6.210  69.569  1.00  0.00    -0.350 A  
HETATM   22  C   UNL     1      -9.256   6.408  71.981  1.00  0.00    -0.148 A  
HETATM   23  C   UNL     1      -8.511   6.598  70.784  1.00  0.00    -0.134 A  
HETATM   24  C   UNL     1      -7.057   6.881  71.017  1.00  0.00    -0.071 C  
ENDBRANCH   8  18
ENDBRANCH   2   5
BRANCH   4  25
HETATM   25  C   UNL     1     -10.167  10.040  68.093  1.00  0.00    -0.205 C  
HETATM   26  C   UNL     1     -10.882   9.470  69.347  1.00  0.00    -0.226 C  
HETATM   27  C   UNL     1     -10.613   9.172  66.911  1.00  0.00    -0.237 C  
BRANCH  25  28
HETATM   28  C   UNL     1     -10.658  11.473  67.743  1.00  0.00    -0.227 A  
HETATM   29  C   UNL     1     -11.202  13.167  66.050  1.00  0.00    -0.316 A  
HETATM   30  C   UNL     1     -10.760  11.883  66.402  1.00  0.00    -0.303 A  
HETATM   31  F   UNL     1     -12.320  15.845  69.068  1.00  0.00    -0.342 F  
HETATM   32  C   UNL     1     -11.248  13.599  64.603  1.00  0.00    -0.373 C  
HETATM   33  F   UNL     1     -10.977  14.815  70.432  1.00  0.00    -0.259 F  
HETATM   34  C   UNL     1     -11.588  14.055  67.065  1.00  0.00    -0.394 A  
HETATM   35  F   UNL     1     -12.499  13.962  64.206  1.00  0.00    -0.426 F  
HETATM   36  F   UNL     1     -10.848  12.629  63.732  1.00  0.00    -0.363 F  
HETATM   37  F   UNL     1     -13.031  14.140  70.214  1.00  0.00    -0.371 F  
HETATM   38  C   UNL     1     -11.961  14.609  69.515  1.00  0.00    -0.319 C  
HETATM   39  C   UNL     1     -11.536  13.669  68.411  1.00  0.00    -0.346 A  
HETATM   40  F   UNL     1     -10.450  14.674  64.355  1.00  0.00    -0.364 F  
HETATM   41  C   UNL     1     -11.077  12.378  68.735  1.00  0.00    -0.307 A  
ENDBRANCH  25  28
ENDBRANCH   4  25
TORSDOF 5
ENDMDL
MODEL       23
REMARK 921   NORMALIZED FREE ENERGY PREDICTED BY IDOCK:   -6.69 KCAL/MOL
REMARK 922        TOTAL FREE ENERGY PREDICTED BY IDOCK:  -10.28 KCAL/MOL
REMARK 923 INTER-LIGAND FREE ENERGY PREDICTED BY IDOCK:   -8.14 KCAL/MOL
REMARK 924 INTRA-LIGAND FREE ENERGY PREDICTED BY IDOCK:   -2.14 KCAL/MOL
REMARK 927      BINDING AFFINITY PREDICTED BY RF-SCORE:    0.00 PKD
ROOT
HETATM    1  C   UNL     1      -7.687   9.319  70.915  1.00  0.00    -0.103 C  
HETATM    2  N   UNL     1      -7.413   9.104  69.485  1.00  0.00    -0.074 N  
HETATM    3  O   UNL     1      -6.069   7.381  70.066  1.00  0.00    -0.027 OA 
HETATM    4  C   UNL     1      -6.687   7.960  69.156  1.00  0.00    -0.048 C  
ENDROOT
BRANCH   2   5
HETATM    5  C   UNL     1      -8.279   9.805  68.623  1.00  0.00    -0.106 A  
HETATM    6  C   UNL     1     -10.308  10.443  67.569  1.00  0.00    -0.268 A  
HETATM    7  C   UNL     1      -7.683  10.785  67.812  1.00  0.00    -0.104 A  
HETATM    8  C   UNL     1      -9.664   9.583  68.506  1.00  0.00    -0.162 A  
HETATM    9  C   UNL     1      -9.668  11.491  66.889  1.00  0.00    -0.186 A  
HETATM   10  N   UNL     1      -8.339  11.621  66.988  1.00  0.00    -0.163 NA 
BRANCH   9  11
HETATM   11  N   UNL     1     -10.363  12.422  66.145  1.00  0.00    -0.242 NA 
HETATM   12  C   UNL     1     -10.826  13.673  66.772  1.00  0.00    -0.290 C  
HETATM   13  C   UNL     1     -12.393  12.415  64.694  1.00  0.00    -0.441 C  
HETATM   14  C   UNL     1     -12.339  13.925  66.552  1.00  0.00    -0.404 C  
HETATM   15  N   UNL     1     -12.834  13.741  65.169  1.00  0.00    -0.748 NA 
HETATM   16  C   UNL     1     -12.378  14.809  64.282  1.00  0.00    -0.320 C  
HETATM   17  C   UNL     1     -10.872  12.145  64.797  1.00  0.00    -0.307 C  
ENDBRANCH   9  11
BRANCH   8  18
HETATM   18  C   UNL     1     -10.543   8.654  69.334  1.00  0.00    -0.207 A  
HETATM   19  C   UNL     1     -11.328   6.298  69.602  1.00  0.00    -0.492 A  
HETATM   20  C   UNL     1     -12.105   6.643  70.688  1.00  0.00    -0.342 A  
HETATM   21  C   UNL     1     -10.591   7.284  68.935  1.00  0.00    -0.207 A  
HETATM   22  C   UNL     1     -12.115   7.965  71.107  1.00  0.00    -0.294 A  
HETATM   23  C   UNL     1     -11.325   8.965  70.475  1.00  0.00    -0.268 A  
HETATM   24  C   UNL     1     -11.430  10.314  71.122  1.00  0.00    -0.319 C  
ENDBRANCH   8  18
ENDBRANCH   2   5
BRANCH   4  25
HETATM   25  C   UNL     1      -6.646   7.299  67.720  1.00  0.00    -0.053 C  
HETATM   26  C   UNL     1      -5.158   6.884  67.570  1.00  0.00    -0.008 C  
HETATM   27  C   UNL     1      -6.999   8.103  66.464  1.00  0.00    -0.068 C  
BRANCH  25  28
HETATM   28  C   UNL     1      -7.599   6.071  67.689  1.00  0.00    -0.090 A  
HETATM   29  C   UNL     1      -9.075   4.572  66.420  1.00  0.00    -0.122 A  
HETATM   30  C   UNL     1      -8.212   5.677  66.486  1.00  0.00    -0.106 A  
HETATM   31  F   UNL     1      -9.800   2.333  69.883  1.00  0.00    -0.146 F  
HETATM   32  C   UNL     1      -9.764   4.205  65.126  1.00  0.00    -0.197 C  
HETATM   33  F   UNL     1      -9.377   4.102  71.074  1.00  0.00    -0.158 F  
HETATM   34  C   UNL     1      -9.304   3.818  67.580  1.00  0.00    -0.240 A  
HETATM   35  F   UNL     1      -9.461   2.944  64.713  1.00  0.00    -0.143 F  
HETATM   36  F   UNL     1      -9.441   5.025  64.086  1.00  0.00    -0.046 F  
HETATM   37  F   UNL     1      -7.761   2.767  70.500  1.00  0.00    -0.042 F  
HETATM   38  C   UNL     1      -8.905   3.347  70.044  1.00  0.00    -0.089 C  
HETATM   39  C   UNL     1      -8.680   4.158  68.789  1.00  0.00    -0.128 A  
HETATM   40  F   UNL     1     -11.121   4.250  65.229  1.00  0.00    -0.299 F  
HETATM   41  C   UNL     1      -7.829   5.278  68.828  1.00  0.00    -0.083 A  
ENDBRANCH  25  28
ENDBRANCH   4  25
TORSDOF 5
ENDMDL
MODEL       24
REMARK 921   NORMALIZED FREE ENERGY PREDICTED BY IDOCK:   -6.68 KCAL/MOL
REMARK 922        TOTAL FREE ENERGY PREDICTED BY IDOCK:  -10.28 KCAL/MOL
REMARK 923 INTER-LIGAND FREE ENERGY PREDICTED BY IDOCK:  -10.43 KCAL/MOL
REMARK 924 INTRA-LIGAND FREE ENERGY PREDICTED BY IDOCK:    0.16 KCAL/MOL
REMARK 927      BINDING AFFINITY PREDICTED BY RF-SCORE:    0.00 PKD
ROOT
HETATM    1  C   UNL     1      -7.496  12.442  67.344  1.00  0.00    -0.157 C  
HETATM    2  N   UNL     1      -8.843  12.091  67.824  1.00  0.00    -0.158 N  
HETATM    3  O   UNL     1      -9.471  14.228  67.434  1.00  0.00    -0.202 OA 
HETATM    4  C   UNL     1      -9.832  13.062  67.668  1.00  0.00    -0.212 C  
ENDROOT
BRANCH   2   5
HETATM    5  C   UNL     1      -9.063  10.706  67.953  1.00  0.00    -0.145 A  
HETATM    6  C   UNL     1      -9.358   8.445  67.294  1.00  0.00    -0.181 A  
HETATM    7  C   UNL     1      -9.229  10.226  69.263  1.00  0.00    -0.202 A  
HETATM    8  C   UNL     1      -9.146   9.793  66.885  1.00  0.00    -0.162 A  
HETATM    9  C   UNL     1      -9.384   8.020  68.631  1.00  0.00    -0.146 A  
HETATM   10  N   UNL     1      -9.364   8.934  69.611  1.00  0.00    -0.160 NA 
BRANCH   9  11
HETATM   11  N   UNL     1      -9.395   6.686  68.982  1.00  0.00    -0.134 NA 
HETATM   12  C   UNL     1     -10.643   6.053  69.444  1.00  0.00    -0.298 C  
HETATM   13  C   UNL     1      -8.097   5.221  70.529  1.00  0.00    -0.104 C  
HETATM   14  C   UNL     1     -10.475   5.320  70.799  1.00  0.00    -0.228 C  
HETATM   15  N   UNL     1      -9.289   4.442  70.920  1.00  0.00    -0.138 NA 
HETATM   16  C   UNL     1      -9.427   3.230  70.115  1.00  0.00    -0.163 C  
HETATM   17  C   UNL     1      -8.170   5.893  69.137  1.00  0.00    -0.106 C  
ENDBRANCH   9  11
BRANCH   8  18
HETATM   18  C   UNL     1      -8.908  10.053  65.402  1.00  0.00    -0.199 A  
HETATM   19  C   UNL     1      -9.979  10.774  63.264  1.00  0.00    -0.369 A  
HETATM   20  C   UNL     1      -8.792  10.627  62.579  1.00  0.00    -0.305 A  
HETATM   21  C   UNL     1     -10.033  10.470  64.630  1.00  0.00    -0.415 A  
HETATM   22  C   UNL     1      -7.670  10.204  63.273  1.00  0.00    -0.151 A  
HETATM   23  C   UNL     1      -7.697   9.949  64.672  1.00  0.00    -0.142 A  
HETATM   24  C   UNL     1      -6.363   9.563  65.240  1.00  0.00    -0.073 C  
ENDBRANCH   8  18
ENDBRANCH   2   5
BRANCH   4  25
HETATM   25  C   UNL     1     -11.388  12.778  67.695  1.00  0.00    -0.359 C  
HETATM   26  C   UNL     1     -11.518  11.468  66.874  1.00  0.00    -0.261 C  
HETATM   27  C   UNL     1     -12.387  13.769  67.088  1.00  0.00    -0.244 C  
BRANCH  25  28
HETATM   28  C   UNL     1     -11.854  12.592  69.166  1.00  0.00    -0.348 A  
HETATM   29  C   UNL     1     -12.470  11.097  71.016  1.00  0.00    -0.506 A  
HETATM   30  C   UNL     1     -12.052  11.302  69.692  1.00  0.00    -0.391 A  
HETATM   31  F   UNL     1     -13.082  14.407  73.505  1.00  0.00    -0.580 F  
HETATM   32  C   UNL     1     -12.728   9.703  71.537  1.00  0.00    -0.387 C  
HETATM   33  F   UNL     1     -13.512  15.608  71.745  1.00  0.00    -0.465 F  
HETATM   34  C   UNL     1     -12.660  12.209  71.848  1.00  0.00    -0.040 A  
HETATM   35  F   UNL     1     -11.949   9.394  72.610  1.00  0.00    -0.221 F  
HETATM   36  F   UNL     1     -12.496   8.725  70.615  1.00  0.00    -0.172 F  
HETATM   37  F   UNL     1     -11.466  15.407  72.448  1.00  0.00    -0.461 F  
HETATM   38  C   UNL     1     -12.624  14.715  72.260  1.00  0.00    -0.322 C  
HETATM   39  C   UNL     1     -12.436  13.508  71.370  1.00  0.00    -0.347 A  
HETATM   40  F   UNL     1     -14.015   9.530  71.946  1.00  0.00    -0.369 F  
HETATM   41  C   UNL     1     -12.029  13.684  70.035  1.00  0.00    -0.413 A  
ENDBRANCH  25  28
ENDBRANCH   4  25
TORSDOF 5
ENDMDL
MODEL       25
REMARK 921   NORMALIZED FREE ENERGY PREDICTED BY IDOCK:   -6.67 KCAL/MOL
REMARK 922        TOTAL FREE ENERGY PREDICTED BY IDOCK:  -10.26 KCAL/MOL
REMARK 923 INTER-LIGAND FREE ENERGY PREDICTED BY IDOCK:   -8.19 KCAL/MOL
REMARK 924 INTRA-LIGAND FREE ENERGY PREDICTED BY IDOCK:   -2.07 KCAL/MOL
REMARK 927      BINDING AFFINITY PREDICTED BY RF-SCORE:    0.00 PKD
ROOT
HETATM    1  C   UNL     1      -6.165  11.265  70.261  1.00  0.00    -0.124 C  
HETATM    2  N   UNL     1      -6.078  11.394  68.797  1.00  0.00    -0.047 N  
HETATM    3  O   UNL     1      -5.253   9.290  68.725  1.00  0.00    -0.037 OA 
HETATM    4  C   UNL     1      -5.744  10.239  68.090  1.00  0.00    -0.037 C  
ENDROOT
BRANCH   2   5
HETATM    5  C   UNL     1      -6.767  12.507  68.277  1.00  0.00    -0.079 A  
HETATM    6  C   UNL     1      -8.604  13.877  67.658  1.00  0.00    -0.190 A  
HETATM    7  C   UNL     1      -5.969  13.543  67.764  1.00  0.00    -0.131 A  
HETATM    8  C   UNL     1      -8.167  12.642  68.219  1.00  0.00    -0.164 A  
HETATM    9  C   UNL     1      -7.745  14.922  67.286  1.00  0.00    -0.197 A  
HETATM   10  N   UNL     1      -6.421  14.722  67.303  1.00  0.00    -0.263 NA 
BRANCH   9  11
HETATM   11  N   UNL     1      -8.213  16.172  66.934  1.00  0.00    -0.211 NA 
HETATM   12  C   UNL     1      -7.556  17.382  67.460  1.00  0.00    -0.187 C  
HETATM   13  C   UNL     1     -10.409  17.355  66.994  1.00  0.00    -0.318 C  
HETATM   14  C   UNL     1      -8.555  18.359  68.131  1.00  0.00    -0.284 C  
HETATM   15  N   UNL     1      -9.795  18.643  67.373  1.00  0.00    -0.308 NA 
HETATM   16  C   UNL     1      -9.536  19.481  66.204  1.00  0.00    -0.340 C  
HETATM   17  C   UNL     1      -9.483  16.378  66.229  1.00  0.00    -0.317 C  
ENDBRANCH   9  11
BRANCH   8  18
HETATM   18  C   UNL     1      -9.228  11.708  68.788  1.00  0.00    -0.042 A  
HETATM   19  C   UNL     1      -9.608   9.601  70.075  1.00  0.00    -0.281 A  
HETATM   20  C   UNL     1     -10.976   9.748  69.980  1.00  0.00    -0.319 A  
HETATM   21  C   UNL     1      -8.766  10.544  69.473  1.00  0.00    -0.040 A  
HETATM   22  C   UNL     1     -11.483  10.849  69.307  1.00  0.00    -0.372 A  
HETATM   23  C   UNL     1     -10.639  11.845  68.743  1.00  0.00    -0.234 A  
HETATM   24  C   UNL     1     -11.387  12.985  68.117  1.00  0.00    -0.329 C  
ENDBRANCH   8  18
ENDBRANCH   2   5
BRANCH   4  25
HETATM   25  C   UNL     1      -6.010  10.017  66.547  1.00  0.00    -0.060 C  
HETATM   26  C   UNL     1      -5.126   8.786  66.215  1.00  0.00    -0.030 C  
HETATM   27  C   UNL     1      -5.654  11.094  65.516  1.00  0.00     0.093 C  
BRANCH  25  28
HETATM   28  C   UNL     1      -7.520   9.729  66.318  1.00  0.00    -0.100 A  
HETATM   29  C   UNL     1      -9.678  10.398  65.351  1.00  0.00    -0.325 A  
HETATM   30  C   UNL     1      -8.312  10.628  65.580  1.00  0.00    -0.162 A  
HETATM   31  F   UNL     1     -11.443   6.907  66.843  1.00  0.00    -0.456 F  
HETATM   32  C   UNL     1     -10.516  11.407  64.604  1.00  0.00    -0.315 C  
HETATM   33  F   UNL     1      -9.943   6.861  68.416  1.00  0.00    -0.138 F  
HETATM   34  C   UNL     1     -10.260   9.220  65.842  1.00  0.00    -0.054 A  
HETATM   35  F   UNL     1     -11.089  10.883  63.485  1.00  0.00    -0.348 F  
HETATM   36  F   UNL     1      -9.812  12.497  64.185  1.00  0.00    -0.296 F  
HETATM   37  F   UNL     1      -9.548   5.895  66.510  1.00  0.00    -0.147 F  
HETATM   38  C   UNL     1     -10.104   7.004  67.072  1.00  0.00    -0.229 C  
HETATM   39  C   UNL     1      -9.493   8.283  66.549  1.00  0.00    -0.284 A  
HETATM   40  F   UNL     1     -11.540  11.893  65.357  1.00  0.00    -0.387 F  
HETATM   41  C   UNL     1      -8.129   8.546  66.774  1.00  0.00    -0.098 A  
ENDBRANCH  25  28
ENDBRANCH   4  25
TORSDOF 5
ENDMDL
MODEL       26
REMARK 921   NORMALIZED FREE ENERGY PREDICTED BY IDOCK:   -6.66 KCAL/MOL
REMARK 922        TOTAL FREE ENERGY PREDICTED BY IDOCK:  -10.24 KCAL/MOL
REMARK 923 INTER-LIGAND FREE ENERGY PREDICTED BY IDOCK:   -7.18 KCAL/MOL
REMARK 924 INTRA-LIGAND FREE ENERGY PREDICTED BY IDOCK:   -3.07 KCAL/MOL
REMARK 927      BINDING AFFINITY PREDICTED BY RF-SCORE:    0.00 PKD
ROOT
HETATM    1  C   UNL     1      -6.832   7.498  65.196  1.00  0.00    -0.047 C  
HETATM    2  N   UNL     1      -8.223   7.383  65.664  1.00  0.00    -0.132 N  
HETATM    3  O   UNL     1      -8.056   5.142  65.415  1.00  0.00    -0.110 OA 
HETATM    4  C   UNL     1      -8.698   6.093  65.895  1.00  0.00    -0.154 C  
ENDROOT
BRANCH   2   5
HETATM    5  C   UNL     1      -8.734   8.563  66.240  1.00  0.00    -0.142 A  
HETATM    6  C   UNL     1      -9.161  10.207  67.898  1.00  0.00    -0.133 A  
HETATM    7  C   UNL     1      -9.501   9.381  65.394  1.00  0.00    -0.253 A  
HETATM    8  C   UNL     1      -8.551   8.959  67.577  1.00  0.00    -0.120 A  
HETATM    9  C   UNL     1      -9.802  11.034  66.964  1.00  0.00    -0.182 A  
HETATM   10  N   UNL     1     -10.005  10.585  65.718  1.00  0.00    -0.244 NA 
BRANCH   9  11
HETATM   11  N   UNL     1     -10.205  12.319  67.269  1.00  0.00    -0.210 NA 
HETATM   12  C   UNL     1     -11.640  12.639  67.369  1.00  0.00    -0.360 C  
HETATM   13  C   UNL     1      -9.773  14.604  66.367  1.00  0.00    -0.295 C  
HETATM   14  C   UNL     1     -12.043  13.851  66.492  1.00  0.00    -0.449 C  
HETATM   15  N   UNL     1     -11.166  15.040  66.585  1.00  0.00    -0.332 NA 
HETATM   16  C   UNL     1     -11.320  15.729  67.865  1.00  0.00    -0.277 C  
HETATM   17  C   UNL     1      -9.283  13.460  67.287  1.00  0.00    -0.222 C  
ENDBRANCH   9  11
BRANCH   8  18
HETATM   18  C   UNL     1      -7.692   8.296  68.648  1.00  0.00    -0.114 A  
HETATM   19  C   UNL     1      -5.527   7.133  69.089  1.00  0.00    -0.015 A  
HETATM   20  C   UNL     1      -5.839   6.982  70.423  1.00  0.00    -0.024 A  
HETATM   21  C   UNL     1      -6.442   7.751  68.228  1.00  0.00    -0.057 A  
HETATM   22  C   UNL     1      -7.050   7.474  70.884  1.00  0.00    -0.059 A  
HETATM   23  C   UNL     1      -7.963   8.156  70.033  1.00  0.00    -0.105 A  
HETATM   24  C   UNL     1      -9.183   8.664  70.742  1.00  0.00    -0.223 C  
ENDBRANCH   8  18
ENDBRANCH   2   5
BRANCH   4  25
HETATM   25  C   UNL     1      -9.956   5.739  66.785  1.00  0.00    -0.207 C  
HETATM   26  C   UNL     1     -10.653   4.615  65.973  1.00  0.00    -0.244 C  
HETATM   27  C   UNL     1     -11.034   6.785  67.089  1.00  0.00    -0.458 C  
BRANCH  25  28
HETATM   28  C   UNL     1      -9.480   5.240  68.179  1.00  0.00    -0.151 A  
HETATM   29  C   UNL     1      -9.863   5.042  70.598  1.00  0.00    -0.282 A  
HETATM   30  C   UNL     1     -10.260   5.481  69.325  1.00  0.00    -0.315 A  
HETATM   31  F   UNL     1      -6.290   2.897  71.000  1.00  0.00    -0.017 F  
HETATM   32  C   UNL     1     -10.692   5.364  71.819  1.00  0.00    -0.204 C  
HETATM   33  F   UNL     1      -5.531   3.892  69.223  1.00  0.00    -0.010 F  
HETATM   34  C   UNL     1      -8.672   4.313  70.724  1.00  0.00    -0.125 A  
HETATM   35  F   UNL     1     -11.109   4.246  72.475  1.00  0.00    -0.190 F  
HETATM   36  F   UNL     1     -11.822   6.074  71.539  1.00  0.00    -0.342 F  
HETATM   37  F   UNL     1      -6.666   2.048  69.035  1.00  0.00    -0.028 F  
HETATM   38  C   UNL     1      -6.610   3.225  69.718  1.00  0.00    -0.033 C  
HETATM   39  C   UNL     1      -7.888   4.021  69.599  1.00  0.00    -0.052 A  
HETATM   40  F   UNL     1     -10.006   6.101  72.735  1.00  0.00    -0.168 F  
HETATM   41  C   UNL     1      -8.305   4.484  68.337  1.00  0.00    -0.092 A  
ENDBRANCH  25  28
ENDBRANCH   4  25
TORSDOF 5
ENDMDL
MODEL       27
REMARK 921   NORMALIZED FREE ENERGY PREDICTED BY IDOCK:   -6.65 KCAL/MOL
REMARK 922        TOTAL FREE ENERGY PREDICTED BY IDOCK:  -10.24 KCAL/MOL
REMARK 923 INTER-LIGAND FREE ENERGY PREDICTED BY IDOCK:   -8.10 KCAL/MOL
REMARK 924 INTRA-LIGAND FREE ENERGY PREDICTED BY IDOCK:   -2.14 KCAL/MOL
REMARK 927      BINDING AFFINITY PREDICTED BY RF-SCORE:    0.00 PKD
ROOT
HETATM    1  C   UNL     1     -10.708   5.814  66.844  1.00  0.00    -0.305 C  
HETATM    2  N   UNL     1      -9.647   6.770  67.204  1.00  0.00    -0.138 N  
HETATM    3  O   UNL     1      -8.205   5.031  67.314  1.00  0.00    -0.106 OA 
HETATM    4  C   UNL     1      -8.349   6.265  67.261  1.00  0.00    -0.109 C  
ENDROOT
BRANCH   2   5
HETATM    5  C   UNL     1      -9.997   8.119  67.000  1.00  0.00    -0.259 A  
HETATM    6  C   UNL     1     -10.809  10.291  67.507  1.00  0.00    -0.355 A  
HETATM    7  C   UNL     1      -9.765   8.630  65.713  1.00  0.00     0.017 A  
HETATM    8  C   UNL     1     -10.568   8.965  67.970  1.00  0.00    -0.226 A  
HETATM    9  C   UNL     1     -10.430  10.767  66.243  1.00  0.00    -0.226 A  
HETATM   10  N   UNL     1      -9.947   9.908  65.335  1.00  0.00    -0.316 NA 
BRANCH   9  11
HETATM   11  N   UNL     1     -10.501  12.103  65.905  1.00  0.00    -0.246 NA 
HETATM   12  C   UNL     1     -10.902  13.100  66.914  1.00  0.00    -0.265 C  
HETATM   13  C   UNL     1     -11.632  13.456  64.140  1.00  0.00    -0.398 C  
HETATM   14  C   UNL     1     -12.066  14.002  66.430  1.00  0.00    -0.455 C  
HETATM   15  N   UNL     1     -11.930  14.564  65.068  1.00  0.00    -0.396 NA 
HETATM   16  C   UNL     1     -10.906  15.605  65.010  1.00  0.00    -0.450 C  
HETATM   17  C   UNL     1     -10.413  12.581  64.520  1.00  0.00    -0.341 C  
ENDBRANCH   9  11
BRANCH   8  18
HETATM   18  C   UNL     1     -10.823   8.673  69.444  1.00  0.00    -0.108 A  
HETATM   19  C   UNL     1     -10.874   6.883  71.185  1.00  0.00    -0.270 A  
HETATM   20  C   UNL     1     -11.237   7.791  72.158  1.00  0.00    -0.348 A  
HETATM   21  C   UNL     1     -10.698   7.315  69.864  1.00  0.00    -0.257 A  
HETATM   22  C   UNL     1     -11.395   9.121  71.802  1.00  0.00    -0.451 A  
HETATM   23  C   UNL     1     -11.162   9.583  70.477  1.00  0.00    -0.345 A  
HETATM   24  C   UNL     1     -11.324  11.065  70.318  1.00  0.00    -0.291 C  
ENDBRANCH   8  18
ENDBRANCH   2   5
BRANCH   4  25
HETATM   25  C   UNL     1      -7.035   7.143  67.192  1.00  0.00    -0.078 C  
HETATM   26  C   UNL     1      -7.093   7.746  65.763  1.00  0.00    -0.061 C  
HETATM   27  C   UNL     1      -5.647   6.510  67.338  1.00  0.00    -0.012 C  
BRANCH  25  28
HETATM   28  C   UNL     1      -7.089   8.242  68.290  1.00  0.00    -0.081 A  
HETATM   29  C   UNL     1      -7.226   8.853  70.666  1.00  0.00    -0.075 A  
HETATM   30  C   UNL     1      -7.178   7.888  69.648  1.00  0.00    -0.070 A  
HETATM   31  F   UNL     1      -7.027  12.909  69.649  1.00  0.00    -0.041 F  
HETATM   32  C   UNL     1      -7.379   8.444  72.112  1.00  0.00    -0.098 C  
HETATM   33  F   UNL     1      -7.881  12.430  67.708  1.00  0.00    -0.115 F  
HETATM   34  C   UNL     1      -7.146  10.209  70.320  1.00  0.00    -0.146 A  
HETATM   35  F   UNL     1      -6.347   8.877  72.888  1.00  0.00    -0.107 F  
HETATM   36  F   UNL     1      -7.438   7.094  72.293  1.00  0.00    -0.081 F  
HETATM   37  F   UNL     1      -5.729  12.355  67.996  1.00  0.00    -0.051 F  
HETATM   38  C   UNL     1      -6.916  12.057  68.592  1.00  0.00    -0.096 C  
HETATM   39  C   UNL     1      -7.018  10.600  68.979  1.00  0.00    -0.080 A  
HETATM   40  F   UNL     1      -8.510   8.946  72.678  1.00  0.00    -0.183 F  
HETATM   41  C   UNL     1      -6.985   9.610  67.979  1.00  0.00    -0.078 A  
ENDBRANCH  25  28
ENDBRANCH   4  25
TORSDOF 5
ENDMDL
MODEL       28
REMARK 921   NORMALIZED FREE ENERGY PREDICTED BY IDOCK:   -6.63 KCAL/MOL
REMARK 922        TOTAL FREE ENERGY PREDICTED BY IDOCK:  -10.20 KCAL/MOL
REMARK 923 INTER-LIGAND FREE ENERGY PREDICTED BY IDOCK:   -8.65 KCAL/MOL
REMARK 924 INTRA-LIGAND FREE ENERGY PREDICTED BY IDOCK:   -1.55 KCAL/MOL
REMARK 927      BINDING AFFINITY PREDICTED BY RF-SCORE:    0.00 PKD
ROOT
HETATM    1  C   UNL     1      -6.164   7.344  68.415  1.00  0.00    -0.036 C  
HETATM    2  N   UNL     1      -7.501   6.991  67.912  1.00  0.00    -0.097 N  
HETATM    3  O   UNL     1      -7.340   5.038  69.040  1.00  0.00    -0.056 OA 
HETATM    4  C   UNL     1      -8.080   5.837  68.440  1.00  0.00    -0.108 C  
ENDROOT
BRANCH   2   5
HETATM    5  C   UNL     1      -8.198   8.067  67.329  1.00  0.00    -0.122 A  
HETATM    6  C   UNL     1      -9.090   9.457  65.624  1.00  0.00    -0.258 A  
HETATM    7  C   UNL     1      -8.800   8.970  68.221  1.00  0.00    -0.134 A  
HETATM    8  C   UNL     1      -8.314   8.306  65.947  1.00  0.00    -0.132 A  
HETATM    9  C   UNL     1      -9.771  10.240  66.568  1.00  0.00    -0.193 A  
HETATM   10  N   UNL     1      -9.579  10.010  67.873  1.00  0.00    -0.144 NA 
BRANCH   9  11
HETATM   11  N   UNL     1     -10.667  11.224  66.202  1.00  0.00    -0.266 NA 
HETATM   12  C   UNL     1     -10.704  11.710  64.812  1.00  0.00    -0.309 C  
HETATM   13  C   UNL     1     -11.254  13.513  67.003  1.00  0.00    -0.312 C  
HETATM   14  C   UNL     1     -10.591  13.253  64.716  1.00  0.00    -0.386 C  
HETATM   15  N   UNL     1     -11.459  14.026  65.634  1.00  0.00    -0.313 NA 
HETATM   16  C   UNL     1     -12.864  13.958  65.239  1.00  0.00    -0.398 C  
HETATM   17  C   UNL     1     -11.453  11.988  67.178  1.00  0.00    -0.335 C  
ENDBRANCH   9  11
BRANCH   8  18
HETATM   18  C   UNL     1      -7.836   7.429  64.795  1.00  0.00    -0.126 A  
HETATM   19  C   UNL     1      -8.090   5.205  63.688  1.00  0.00    -0.111 A  
HETATM   20  C   UNL     1      -7.146   5.531  62.737  1.00  0.00    -0.044 A  
HETATM   21  C   UNL     1      -8.402   6.123  64.699  1.00  0.00    -0.044 A  
HETATM   22  C   UNL     1      -6.547   6.780  62.794  1.00  0.00    -0.043 A  
HETATM   23  C   UNL     1      -6.897   7.743  63.780  1.00  0.00    -0.062 A  
HETATM   24  C   UNL     1      -6.180   9.052  63.626  1.00  0.00    -0.088 C  
ENDBRANCH   8  18
ENDBRANCH   2   5
BRANCH   4  25
HETATM   25  C   UNL     1      -9.624   5.500  68.396  1.00  0.00    -0.155 C  
HETATM   26  C   UNL     1      -9.643   4.004  67.984  1.00  0.00    -0.195 C  
HETATM   27  C   UNL     1     -10.569   6.226  67.433  1.00  0.00    -0.361 C  
BRANCH  25  28
HETATM   28  C   UNL     1     -10.243   5.723  69.805  1.00  0.00    -0.303 A  
HETATM   29  C   UNL     1     -11.617   7.084  71.320  1.00  0.00    -0.342 A  
HETATM   30  C   UNL     1     -11.040   6.853  70.062  1.00  0.00    -0.344 A  
HETATM   31  F   UNL     1     -11.010   4.303  74.391  1.00  0.00    -0.285 F  
HETATM   32  C   UNL     1     -12.422   8.335  71.583  1.00  0.00    -0.320 C  
HETATM   33  F   UNL     1      -9.138   3.724  73.450  1.00  0.00    -0.099 F  
HETATM   34  C   UNL     1     -11.421   6.142  72.341  1.00  0.00    -0.349 A  
HETATM   35  F   UNL     1     -13.699   8.061  71.969  1.00  0.00    -0.336 F  
HETATM   36  F   UNL     1     -12.530   9.151  70.497  1.00  0.00    -0.168 F  
HETATM   37  F   UNL     1     -10.991   2.745  72.875  1.00  0.00    -0.237 F  
HETATM   38  C   UNL     1     -10.455   3.955  73.197  1.00  0.00    -0.176 C  
HETATM   39  C   UNL     1     -10.663   4.985  72.111  1.00  0.00    -0.227 A  
HETATM   40  F   UNL     1     -11.887   9.100  72.573  1.00  0.00    -0.369 F  
HETATM   41  C   UNL     1     -10.087   4.786  70.843  1.00  0.00    -0.275 A  
ENDBRANCH  25  28
ENDBRANCH   4  25
TORSDOF 5
ENDMDL
MODEL       29
REMARK 921   NORMALIZED FREE ENERGY PREDICTED BY IDOCK:   -6.61 KCAL/MOL
REMARK 922        TOTAL FREE ENERGY PREDICTED BY IDOCK:  -10.18 KCAL/MOL
REMARK 923 INTER-LIGAND FREE ENERGY PREDICTED BY IDOCK:   -7.92 KCAL/MOL
REMARK 924 INTRA-LIGAND FREE ENERGY PREDICTED BY IDOCK:   -2.26 KCAL/MOL
REMARK 927      BINDING AFFINITY PREDICTED BY RF-SCORE:    0.00 PKD
ROOT
HETATM    1  C   UNL     1      -8.486   8.569  72.242  1.00  0.00    -0.148 C  
HETATM    2  N   UNL     1      -7.710   8.779  71.009  1.00  0.00    -0.107 N  
HETATM    3  O   UNL     1      -6.466   6.973  71.558  1.00  0.00    -0.041 OA 
HETATM    4  C   UNL     1      -6.790   7.786  70.675  1.00  0.00    -0.042 C  
ENDROOT
BRANCH   2   5
HETATM    5  C   UNL     1      -8.296   9.693  70.111  1.00  0.00    -0.198 A  
HETATM    6  C   UNL     1      -9.981  10.732  68.802  1.00  0.00    -0.201 A  
HETATM    7  C   UNL     1      -7.439  10.669  69.576  1.00  0.00    -0.130 A  
HETATM    8  C   UNL     1      -9.644   9.684  69.707  1.00  0.00    -0.242 A  
HETATM    9  C   UNL     1      -9.100  11.752  68.411  1.00  0.00    -0.176 A  
HETATM   10  N   UNL     1      -7.812  11.682  68.773  1.00  0.00    -0.125 NA 
BRANCH   9  11
HETATM   11  N   UNL     1      -9.518  12.854  67.693  1.00  0.00    -0.190 NA 
HETATM   12  C   UNL     1      -9.151  14.210  68.139  1.00  0.00    -0.193 C  
HETATM   13  C   UNL     1     -11.695  13.735  66.852  1.00  0.00    -0.395 C  
HETATM   14  C   UNL     1     -10.378  15.147  68.270  1.00  0.00    -0.231 C  
HETATM   15  N   UNL     1     -11.327  15.137  67.133  1.00  0.00    -0.323 NA 
HETATM   16  C   UNL     1     -10.768  15.793  65.954  1.00  0.00    -0.313 C  
HETATM   17  C   UNL     1     -10.507  12.772  66.613  1.00  0.00    -0.257 C  
ENDBRANCH   9  11
BRANCH   8  18
HETATM   18  C   UNL     1     -10.774   8.796  70.213  1.00  0.00    -0.249 A  
HETATM   19  C   UNL     1     -11.659   6.461  70.269  1.00  0.00    -0.451 A  
HETATM   20  C   UNL     1     -12.750   6.855  71.014  1.00  0.00    -0.269 A  
HETATM   21  C   UNL     1     -10.716   7.414  69.863  1.00  0.00    -0.254 A  
HETATM   22  C   UNL     1     -12.870   8.190  71.365  1.00  0.00    -0.270 A  
HETATM   23  C   UNL     1     -11.890   9.157  71.010  1.00  0.00    -0.354 A  
HETATM   24  C   UNL     1     -12.176  10.530  71.543  1.00  0.00    -0.385 C  
ENDBRANCH   8  18
ENDBRANCH   2   5
BRANCH   4  25
HETATM   25  C   UNL     1      -6.178   7.569  69.232  1.00  0.00    -0.035 C  
HETATM   26  C   UNL     1      -5.290   6.311  69.416  1.00  0.00    -0.012 C  
HETATM   27  C   UNL     1      -5.291   8.633  68.578  1.00  0.00    -0.037 C  
BRANCH  25  28
HETATM   28  C   UNL     1      -7.328   7.327  68.214  1.00  0.00    -0.100 A  
HETATM   29  C   UNL     1      -8.693   8.129  66.336  1.00  0.00    -0.168 A  
HETATM   30  C   UNL     1      -7.664   8.315  67.272  1.00  0.00    -0.101 A  
HETATM   31  F   UNL     1     -10.788   4.504  66.293  1.00  0.00    -0.280 F  
HETATM   32  C   UNL     1      -9.070   9.230  65.372  1.00  0.00    -0.222 C  
HETATM   33  F   UNL     1     -10.333   4.255  68.404  1.00  0.00    -0.077 F  
HETATM   34  C   UNL     1      -9.382   6.908  66.318  1.00  0.00    -0.144 A  
HETATM   35  F   UNL     1      -8.944   8.850  64.071  1.00  0.00    -0.179 F  
HETATM   36  F   UNL     1      -8.310  10.354  65.506  1.00  0.00    -0.143 F  
HETATM   37  F   UNL     1      -8.947   3.519  66.899  1.00  0.00    -0.114 F  
HETATM   38  C   UNL     1      -9.774   4.559  67.200  1.00  0.00    -0.197 C  
HETATM   39  C   UNL     1      -9.050   5.885  67.217  1.00  0.00    -0.111 A  
HETATM   40  F   UNL     1     -10.361   9.633  65.522  1.00  0.00    -0.351 F  
HETATM   41  C   UNL     1      -8.021   6.105  68.152  1.00  0.00    -0.107 A  
ENDBRANCH  25  28
ENDBRANCH   4  25
TORSDOF 5
ENDMDL
MODEL       30
REMARK 921   NORMALIZED FREE ENERGY PREDICTED BY IDOCK:   -6.56 KCAL/MOL
REMARK 922        TOTAL FREE ENERGY PREDICTED BY IDOCK:  -10.12 KCAL/MOL
REMARK 923 INTER-LIGAND FREE ENERGY PREDICTED BY IDOCK:   -9.87 KCAL/MOL
REMARK 924 INTRA-LIGAND FREE ENERGY PREDICTED BY IDOCK:   -0.25 KCAL/MOL
REMARK 927      BINDING AFFINITY PREDICTED BY RF-SCORE:    0.00 PKD
ROOT
HETATM    1  C   UNL     1     -11.791  12.927  69.533  1.00  0.00    -0.320 C  
HETATM    2  N   UNL     1     -10.833  13.111  68.430  1.00  0.00    -0.253 N  
HETATM    3  O   UNL     1     -11.127  15.344  68.632  1.00  0.00    -0.259 OA 
HETATM    4  C   UNL     1     -10.441  14.421  68.160  1.00  0.00    -0.237 C  
ENDROOT
BRANCH   2   5
HETATM    5  C   UNL     1     -10.107  11.950  68.100  1.00  0.00    -0.198 A  
HETATM    6  C   UNL     1      -9.326  10.130  66.792  1.00  0.00    -0.190 A  
HETATM    7  C   UNL     1      -9.267  11.441  69.104  1.00  0.00     0.179 A  
HETATM    8  C   UNL     1     -10.178  11.269  66.871  1.00  0.00    -0.254 A  
HETATM    9  C   UNL     1      -8.414   9.757  67.791  1.00  0.00    -0.121 A  
HETATM   10  N   UNL     1      -8.428  10.399  68.966  1.00  0.00    -0.146 NA 
BRANCH   9  11
HETATM   11  N   UNL     1      -7.470   8.769  67.597  1.00  0.00    -0.092 NA 
HETATM   12  C   UNL     1      -7.395   8.061  66.307  1.00  0.00    -0.078 C  
HETATM   13  C   UNL     1      -6.789   6.674  68.769  1.00  0.00    -0.070 C  
HETATM   14  C   UNL     1      -7.437   6.520  66.468  1.00  0.00    -0.086 C  
HETATM   15  N   UNL     1      -6.546   5.951  67.505  1.00  0.00    -0.054 NA 
HETATM   16  C   UNL     1      -5.141   6.018  67.109  1.00  0.00    -0.005 C  
HETATM   17  C   UNL     1      -6.661   8.215  68.689  1.00  0.00    -0.058 C  
ENDBRANCH   9  11
BRANCH   8  18
HETATM   18  C   UNL     1     -10.935  11.674  65.611  1.00  0.00    -0.322 A  
HETATM   19  C   UNL     1     -12.888  12.962  64.735  1.00  0.00    -0.359 A  
HETATM   20  C   UNL     1     -12.583  12.609  63.437  1.00  0.00    -0.369 A  
HETATM   21  C   UNL     1     -12.097  12.484  65.787  1.00  0.00    -0.443 A  
HETATM   22  C   UNL     1     -11.477  11.806  63.207  1.00  0.00    -0.332 A  
HETATM   23  C   UNL     1     -10.631  11.362  64.262  1.00  0.00    -0.416 A  
HETATM   24  C   UNL     1      -9.455  10.558  63.793  1.00  0.00    -0.342 C  
ENDBRANCH   8  18
ENDBRANCH   2   5
BRANCH   4  25
HETATM   25  C   UNL     1      -9.141  14.826  67.354  1.00  0.00    -0.202 C  
HETATM   26  C   UNL     1      -9.564  14.608  65.877  1.00  0.00    -0.303 C  
HETATM   27  C   UNL     1      -7.821  14.070  67.542  1.00  0.00    -0.197 C  
BRANCH  25  28
HETATM   28  C   UNL     1      -8.794  16.313  67.647  1.00  0.00    -0.195 A  
HETATM   29  C   UNL     1      -7.260  17.978  68.603  1.00  0.00    -0.276 A  
HETATM   30  C   UNL     1      -7.607  16.647  68.325  1.00  0.00    -0.181 A  
HETATM   31  F   UNL     1      -9.787  21.061  67.322  1.00  0.00    -0.622 F  
HETATM   32  C   UNL     1      -6.008  18.303  69.383  1.00  0.00    -0.247 C  
HETATM   33  F   UNL     1     -11.462  19.678  67.409  1.00  0.00    -0.437 F  
HETATM   34  C   UNL     1      -8.104  19.006  68.160  1.00  0.00    -0.347 A  
HETATM   35  F   UNL     1      -5.150  19.096  68.684  1.00  0.00    -0.181 F  
HETATM   36  F   UNL     1      -5.288  17.202  69.741  1.00  0.00    -0.150 F  
HETATM   37  F   UNL     1     -10.279  19.838  65.594  1.00  0.00    -0.481 F  
HETATM   38  C   UNL     1     -10.187  19.813  66.952  1.00  0.00    -0.456 C  
HETATM   39  C   UNL     1      -9.276  18.714  67.448  1.00  0.00    -0.292 A  
HETATM   40  F   UNL     1      -6.273  18.968  70.540  1.00  0.00    -0.208 F  
HETATM   41  C   UNL     1      -9.604  17.370  67.194  1.00  0.00    -0.265 A  
ENDBRANCH  25  28
ENDBRANCH   4  25
TORSDOF 5
ENDMDL
MODEL       31
REMARK 921   NORMALIZED FREE ENERGY PREDICTED BY IDOCK:   -6.54 KCAL/MOL
REMARK 922        TOTAL FREE ENERGY PREDICTED BY IDOCK:  -10.09 KCAL/MOL
REMARK 923 INTER-LIGAND FREE ENERGY PREDICTED BY IDOCK:   -8.45 KCAL/MOL
REMARK 924 INTRA-LIGAND FREE ENERGY PREDICTED BY IDOCK:   -1.64 KCAL/MOL
REMARK 927      BINDING AFFINITY PREDICTED BY RF-SCORE:    0.00 PKD
ROOT
HETATM    1  C   UNL     1      -6.359   7.108  68.809  1.00  0.00    -0.031 C  
HETATM    2  N   UNL     1      -7.711   7.309  68.262  1.00  0.00    -0.118 N  
HETATM    3  O   UNL     1      -8.070   5.090  68.505  1.00  0.00    -0.085 OA 
HETATM    4  C   UNL     1      -8.569   6.211  68.306  1.00  0.00    -0.116 C  
ENDROOT
BRANCH   2   5
HETATM    5  C   UNL     1      -8.106   8.659  68.188  1.00  0.00    -0.115 A  
HETATM    6  C   UNL     1      -8.585  10.770  67.215  1.00  0.00    -0.130 A  
HETATM    7  C   UNL     1      -8.487   9.259  69.399  1.00  0.00    -0.137 A  
HETATM    8  C   UNL     1      -8.126   9.436  67.015  1.00  0.00    -0.105 A  
HETATM    9  C   UNL     1      -9.074  11.262  68.435  1.00  0.00    -0.170 A  
HETATM   10  N   UNL     1      -8.977  10.504  69.535  1.00  0.00    -0.099 NA 
BRANCH   9  11
HETATM   11  N   UNL     1      -9.690  12.493  68.541  1.00  0.00    -0.175 NA 
HETATM   12  C   UNL     1     -11.136  12.574  68.813  1.00  0.00    -0.270 C  
HETATM   13  C   UNL     1      -9.851  14.552  67.143  1.00  0.00    -0.245 C  
HETATM   14  C   UNL     1     -11.885  13.467  67.791  1.00  0.00    -0.362 C  
HETATM   15  N   UNL     1     -11.266  14.779  67.499  1.00  0.00    -0.320 NA 
HETATM   16  C   UNL     1     -11.396  15.704  68.623  1.00  0.00    -0.357 C  
HETATM   17  C   UNL     1      -9.026  13.750  68.178  1.00  0.00    -0.190 C  
ENDBRANCH   9  11
BRANCH   8  18
HETATM   18  C   UNL     1      -7.852   8.990  65.583  1.00  0.00    -0.102 A  
HETATM   19  C   UNL     1      -6.302   7.691  64.118  1.00  0.00    -0.049 A  
HETATM   20  C   UNL     1      -7.053   7.988  63.000  1.00  0.00    -0.088 A  
HETATM   21  C   UNL     1      -6.682   8.202  65.365  1.00  0.00    -0.052 A  
HETATM   22  C   UNL     1      -8.189   8.769  63.149  1.00  0.00    -0.182 A  
HETATM   23  C   UNL     1      -8.619   9.244  64.418  1.00  0.00    -0.216 A  
HETATM   24  C   UNL     1      -9.905  10.014  64.369  1.00  0.00    -0.203 C  
ENDBRANCH   8  18
ENDBRANCH   2   5
BRANCH   4  25
HETATM   25  C   UNL     1     -10.145   6.291  68.194  1.00  0.00    -0.173 C  
HETATM   26  C   UNL     1     -10.530   4.881  67.673  1.00  0.00    -0.013 C  
HETATM   27  C   UNL     1     -10.825   7.297  67.260  1.00  0.00    -0.354 C  
BRANCH  25  28
HETATM   28  C   UNL     1     -10.749   6.578  69.598  1.00  0.00    -0.323 A  
HETATM   29  C   UNL     1     -11.203   5.838  71.896  1.00  0.00    -0.289 A  
HETATM   30  C   UNL     1     -10.671   5.612  70.617  1.00  0.00    -0.333 A  
HETATM   31  F   UNL     1     -13.016   9.518  72.737  1.00  0.00    -0.407 F  
HETATM   32  C   UNL     1     -11.155   4.762  72.955  1.00  0.00    -0.224 C  
HETATM   33  F   UNL     1     -13.495   9.725  70.627  1.00  0.00    -0.339 F  
HETATM   34  C   UNL     1     -11.797   7.078  72.175  1.00  0.00    -0.314 A  
HETATM   35  F   UNL     1     -10.482   5.157  74.070  1.00  0.00    -0.206 F  
HETATM   36  F   UNL     1     -10.544   3.616  72.539  1.00  0.00    -0.233 F  
HETATM   37  F   UNL     1     -11.589  10.445  71.384  1.00  0.00    -0.406 F  
HETATM   38  C   UNL     1     -12.484   9.424  71.486  1.00  0.00    -0.366 C  
HETATM   39  C   UNL     1     -11.859   8.079  71.196  1.00  0.00    -0.307 A  
HETATM   40  F   UNL     1     -12.394   4.390  73.377  1.00  0.00    -0.252 F  
HETATM   41  C   UNL     1     -11.329   7.819  69.919  1.00  0.00     0.008 A  
ENDBRANCH  25  28
ENDBRANCH   4  25
TORSDOF 5
ENDMDL
MODEL       32
REMARK 921   NORMALIZED FREE ENERGY PREDICTED BY IDOCK:   -6.48 KCAL/MOL
REMARK 922        TOTAL FREE ENERGY PREDICTED BY IDOCK:  -10.02 KCAL/MOL
REMARK 923 INTER-LIGAND FREE ENERGY PREDICTED BY IDOCK:   -7.17 KCAL/MOL
REMARK 924 INTRA-LIGAND FREE ENERGY PREDICTED BY IDOCK:   -2.85 KCAL/MOL
REMARK 927      BINDING AFFINITY PREDICTED BY RF-SCORE:    0.00 PKD
ROOT
HETATM    1  C   UNL     1      -6.603  11.268  66.310  1.00  0.00    -0.018 C  
HETATM    2  N   UNL     1      -6.635  11.754  67.699  1.00  0.00    -0.076 N  
HETATM    3  O   UNL     1      -5.678  13.674  66.984  1.00  0.00    -0.057 OA 
HETATM    4  C   UNL     1      -6.279  13.087  67.900  1.00  0.00    -0.134 C  
ENDROOT
BRANCH   2   5
HETATM    5  C   UNL     1      -7.435  10.977  68.560  1.00  0.00    -0.106 A  
HETATM    6  C   UNL     1      -9.402  10.137  69.590  1.00  0.00    -0.215 A  
HETATM    7  C   UNL     1      -6.751  10.085  69.402  1.00  0.00    -0.060 A  
HETATM    8  C   UNL     1      -8.838  11.045  68.648  1.00  0.00    -0.164 A  
HETATM    9  C   UNL     1      -8.663   9.181  70.304  1.00  0.00    -0.200 A  
HETATM   10  N   UNL     1      -7.325   9.197  70.232  1.00  0.00    -0.077 NA 
BRANCH   9  11
HETATM   11  N   UNL     1      -9.265   8.192  71.055  1.00  0.00    -0.148 NA 
HETATM   12  C   UNL     1      -9.712   6.944  70.412  1.00  0.00    -0.172 C  
HETATM   13  C   UNL     1     -11.193   8.052  72.632  1.00  0.00    -0.397 C  
HETATM   14  C   UNL     1     -11.194   6.612  70.719  1.00  0.00    -0.315 C  
HETATM   15  N   UNL     1     -11.605   6.724  72.136  1.00  0.00    -0.279 NA 
HETATM   16  C   UNL     1     -11.044   5.648  72.951  1.00  0.00    -0.292 C  
HETATM   17  C   UNL     1      -9.696   8.397  72.442  1.00  0.00    -0.306 C  
ENDBRANCH   9  11
BRANCH   8  18
HETATM   18  C   UNL     1      -9.798  11.855  67.784  1.00  0.00    -0.187 A  
HETATM   19  C   UNL     1     -10.211  12.753  65.491  1.00  0.00    -0.293 A  
HETATM   20  C   UNL     1     -11.394  13.336  65.893  1.00  0.00    -0.333 A  
HETATM   21  C   UNL     1      -9.429  12.056  66.421  1.00  0.00    -0.238 A  
HETATM   22  C   UNL     1     -11.792  13.191  67.213  1.00  0.00    -0.420 A  
HETATM   23  C   UNL     1     -11.038  12.437  68.153  1.00  0.00    -0.288 A  
HETATM   24  C   UNL     1     -11.676  12.351  69.508  1.00  0.00    -0.388 C  
ENDBRANCH   8  18
ENDBRANCH   2   5
BRANCH   4  25
HETATM   25  C   UNL     1      -6.645  13.936  69.184  1.00  0.00    -0.111 C  
HETATM   26  C   UNL     1      -5.416  14.868  69.348  1.00  0.00    -0.091 C  
HETATM   27  C   UNL     1      -6.863  13.265  70.545  1.00  0.00     1.118 C  
BRANCH  25  28
HETATM   28  C   UNL     1      -7.951  14.736  68.920  1.00  0.00    -0.160 A  
HETATM   29  C   UNL     1     -10.119  15.569  69.720  1.00  0.00    -0.291 A  
HETATM   30  C   UNL     1      -8.930  14.852  69.923  1.00  0.00     0.346 A  
HETATM   31  F   UNL     1     -10.755  17.481  66.050  1.00  0.00    -0.332 F  
HETATM   32  C   UNL     1     -11.178  15.630  70.797  1.00  0.00    -0.367 C  
HETATM   33  F   UNL     1      -9.462  16.014  65.101  1.00  0.00    -0.123 F  
HETATM   34  C   UNL     1     -10.320  16.218  68.494  1.00  0.00    -0.261 A  
HETATM   35  F   UNL     1     -11.450  16.905  71.189  1.00  0.00    -0.305 F  
HETATM   36  F   UNL     1     -10.839  14.957  71.933  1.00  0.00    -0.286 F  
HETATM   37  F   UNL     1      -8.612  17.827  65.944  1.00  0.00    -0.208 F  
HETATM   38  C   UNL     1      -9.547  16.862  66.162  1.00  0.00    -0.254 C  
HETATM   39  C   UNL     1      -9.350  16.156  67.483  1.00  0.00    -0.217 A  
HETATM   40  F   UNL     1     -12.364  15.102  70.390  1.00  0.00    -0.305 F  
HETATM   41  C   UNL     1      -8.173  15.420  67.711  1.00  0.00    -0.159 A  
ENDBRANCH  25  28
ENDBRANCH   4  25
TORSDOF 5
ENDMDL
MODEL       33
REMARK 921   NORMALIZED FREE ENERGY PREDICTED BY IDOCK:   -6.44 KCAL/MOL
REMARK 922        TOTAL FREE ENERGY PREDICTED BY IDOCK:   -9.96 KCAL/MOL
REMARK 923 INTER-LIGAND FREE ENERGY PREDICTED BY IDOCK:   -7.40 KCAL/MOL
REMARK 924 INTRA-LIGAND FREE ENERGY PREDICTED BY IDOCK:   -2.56 KCAL/MOL
REMARK 927      BINDING AFFINITY PREDICTED BY RF-SCORE:    0.00 PKD
ROOT
HETATM    1  C   UNL     1      -6.300  11.078  66.016  1.00  0.00    -0.060 C  
HETATM    2  N   UNL     1      -6.502  11.568  67.389  1.00  0.00    -0.083 N  
HETATM    3  O   UNL     1      -5.228  13.363  66.868  1.00  0.00     0.054 OA 
HETATM    4  C   UNL     1      -6.032  12.851  67.667  1.00  0.00    -0.148 C  
ENDROOT
BRANCH   2   5
HETATM    5  C   UNL     1      -7.513  10.891  68.098  1.00  0.00    -0.091 A  
HETATM    6  C   UNL     1      -9.647   9.953  68.547  1.00  0.00    -0.159 A  
HETATM    7  C   UNL     1      -7.161  10.411  69.370  1.00  0.00    -0.109 A  
HETATM    8  C   UNL     1      -8.827  10.684  67.639  1.00  0.00    -0.131 A  
HETATM    9  C   UNL     1      -9.187   9.391  69.748  1.00  0.00    -0.196 A  
HETATM   10  N   UNL     1      -7.947   9.668  70.170  1.00  0.00    -0.164 NA 
BRANCH   9  11
HETATM   11  N   UNL     1      -9.956   8.526  70.500  1.00  0.00    -0.184 NA 
HETATM   12  C   UNL     1      -9.939   7.081  70.213  1.00  0.00    -0.179 C  
HETATM   13  C   UNL     1     -12.358   8.355  71.150  1.00  0.00    -0.200 C  
HETATM   14  C   UNL     1     -11.361   6.496  70.018  1.00  0.00    -0.410 C  
HETATM   15  N   UNL     1     -12.368   6.884  71.031  1.00  0.00    -0.383 NA 
HETATM   16  C   UNL     1     -12.121   6.237  72.318  1.00  0.00    -0.206 C  
HETATM   17  C   UNL     1     -10.978   8.988  71.447  1.00  0.00    -0.324 C  
ENDBRANCH   9  11
BRANCH   8  18
HETATM   18  C   UNL     1      -9.413  11.023  66.273  1.00  0.00    -0.219 A  
HETATM   19  C   UNL     1     -10.424  12.836  64.885  1.00  0.00    -0.342 A  
HETATM   20  C   UNL     1     -10.572  11.982  63.813  1.00  0.00    -0.478 A  
HETATM   21  C   UNL     1      -9.883  12.357  66.085  1.00  0.00    -0.263 A  
HETATM   22  C   UNL     1     -10.152  10.668  63.946  1.00  0.00    -0.356 A  
HETATM   23  C   UNL     1      -9.547  10.183  65.138  1.00  0.00    -0.354 A  
HETATM   24  C   UNL     1      -9.107   8.752  65.052  1.00  0.00    -0.047 C  
ENDBRANCH   8  18
ENDBRANCH   2   5
BRANCH   4  25
HETATM   25  C   UNL     1      -6.502  13.740  68.888  1.00  0.00    -0.100 C  
HETATM   26  C   UNL     1      -5.422  14.852  68.946  1.00  0.00    -0.087 C  
HETATM   27  C   UNL     1      -6.599  13.159  70.303  1.00  0.00     0.366 C  
BRANCH  25  28
HETATM   28  C   UNL     1      -7.916  14.316  68.596  1.00  0.00    -0.139 A  
HETATM   29  C   UNL     1      -9.363  15.800  67.276  1.00  0.00    -0.219 A  
HETATM   30  C   UNL     1      -8.101  15.261  67.570  1.00  0.00    -0.192 A  
HETATM   31  F   UNL     1     -12.695  14.514  69.462  1.00  0.00    -0.287 F  
HETATM   32  C   UNL     1      -9.523  16.855  66.207  1.00  0.00    -0.271 C  
HETATM   33  F   UNL     1     -11.381  14.054  71.131  1.00  0.00    -0.127 F  
HETATM   34  C   UNL     1     -10.477  15.355  68.003  1.00  0.00    -0.257 A  
HETATM   35  F   UNL     1     -10.375  16.470  65.218  1.00  0.00    -0.333 F  
HETATM   36  F   UNL     1      -8.355  17.182  65.585  1.00  0.00    -0.189 F  
HETATM   37  F   UNL     1     -11.756  12.558  69.600  1.00  0.00    -0.321 F  
HETATM   38  C   UNL     1     -11.531  13.888  69.788  1.00  0.00    -0.215 C  
HETATM   39  C   UNL     1     -10.338  14.386  69.007  1.00  0.00    -0.204 A  
HETATM   40  F   UNL     1     -10.023  18.022  66.699  1.00  0.00    -0.295 F  
HETATM   41  C   UNL     1      -9.058  13.873  69.288  1.00  0.00     0.506 A  
ENDBRANCH  25  28
ENDBRANCH   4  25
TORSDOF 5
ENDMDL
MODEL       34
REMARK 921   NORMALIZED FREE ENERGY PREDICTED BY IDOCK:   -6.42 KCAL/MOL
REMARK 922        TOTAL FREE ENERGY PREDICTED BY IDOCK:   -9.94 KCAL/MOL
REMARK 923 INTER-LIGAND FREE ENERGY PREDICTED BY IDOCK:   -8.62 KCAL/MOL
REMARK 924 INTRA-LIGAND FREE ENERGY PREDICTED BY IDOCK:   -1.33 KCAL/MOL
REMARK 927      BINDING AFFINITY PREDICTED BY RF-SCORE:    0.00 PKD
ROOT
HETATM    1  C   UNL     1      -6.286  14.508  71.018  1.00  0.00     0.017 C  
HETATM    2  N   UNL     1      -6.729  14.910  69.673  1.00  0.00    -0.161 N  
HETATM    3  O   UNL     1      -5.882  16.967  70.078  1.00  0.00    -0.221 OA 
HETATM    4  C   UNL     1      -6.315  16.166  69.231  1.00  0.00    -0.174 C  
ENDROOT
BRANCH   2   5
HETATM    5  C   UNL     1      -7.113  13.834  68.849  1.00  0.00    -0.107 A  
HETATM    6  C   UNL     1      -8.549  12.344  67.687  1.00  0.00    -0.172 A  
HETATM    7  C   UNL     1      -6.067  13.076  68.296  1.00  0.00    -0.086 A  
HETATM    8  C   UNL     1      -8.439  13.462  68.564  1.00  0.00    -0.079 A  
HETATM    9  C   UNL     1      -7.457  11.716  67.068  1.00  0.00    -0.150 A  
HETATM   10  N   UNL     1      -6.213  12.067  67.419  1.00  0.00    -0.120 NA 
BRANCH   9  11
HETATM   11  N   UNL     1      -7.614  10.769  66.077  1.00  0.00    -0.148 NA 
HETATM   12  C   UNL     1      -6.435  10.221  65.384  1.00  0.00    -0.123 C  
HETATM   13  C   UNL     1      -8.927  10.574  63.965  1.00  0.00    -0.217 C  
HETATM   14  C   UNL     1      -6.549  10.321  63.842  1.00  0.00    -0.075 C  
HETATM   15  N   UNL     1      -7.835   9.879  63.256  1.00  0.00    -0.140 NA 
HETATM   16  C   UNL     1      -7.989   8.427  63.319  1.00  0.00    -0.161 C  
HETATM   17  C   UNL     1      -8.921  10.423  65.506  1.00  0.00    -0.176 C  
ENDBRANCH   9  11
BRANCH   8  18
HETATM   18  C   UNL     1      -9.725  14.176  68.964  1.00  0.00     0.001 A  
HETATM   19  C   UNL     1     -10.667  16.213  70.060  1.00  0.00    -0.318 A  
HETATM   20  C   UNL     1     -11.957  15.772  69.852  1.00  0.00    -0.346 A  
HETATM   21  C   UNL     1      -9.588  15.421  69.648  1.00  0.00    -0.233 A  
HETATM   22  C   UNL     1     -12.150  14.558  69.212  1.00  0.00    -0.325 A  
HETATM   23  C   UNL     1     -11.065  13.772  68.735  1.00  0.00    -0.295 A  
HETATM   24  C   UNL     1     -11.493  12.528  68.014  1.00  0.00    -0.368 C  
ENDBRANCH   8  18
ENDBRANCH   2   5
BRANCH   4  25
HETATM   25  C   UNL     1      -6.287  16.628  67.718  1.00  0.00    -0.158 C  
HETATM   26  C   UNL     1      -5.739  15.377  66.982  1.00  0.00     0.700 C  
HETATM   27  C   UNL     1      -5.424  17.809  67.264  1.00  0.00    -0.152 C  
BRANCH  25  28
HETATM   28  C   UNL     1      -7.729  16.987  67.261  1.00  0.00    -0.196 A  
HETATM   29  C   UNL     1      -9.785  16.367  66.068  1.00  0.00    -0.356 A  
HETATM   30  C   UNL     1      -8.480  16.077  66.495  1.00  0.00    -0.348 A  
HETATM   31  F   UNL     1     -11.530  20.015  67.151  1.00  0.00    -0.281 F  
HETATM   32  C   UNL     1     -10.548  15.393  65.200  1.00  0.00    -0.434 C  
HETATM   33  F   UNL     1      -9.543  20.887  67.285  1.00  0.00    -0.576 F  
HETATM   34  C   UNL     1     -10.369  17.585  66.445  1.00  0.00    -0.334 A  
HETATM   35  F   UNL     1     -11.714  14.987  65.773  1.00  0.00    -0.334 F  
HETATM   36  F   UNL     1      -9.854  14.254  64.920  1.00  0.00    -0.371 F  
HETATM   37  F   UNL     1     -10.419  19.907  69.016  1.00  0.00    -0.496 F  
HETATM   38  C   UNL     1     -10.285  19.811  67.664  1.00  0.00    -0.434 C  
HETATM   39  C   UNL     1      -9.664  18.501  67.239  1.00  0.00    -0.313 A  
HETATM   40  F   UNL     1     -10.888  15.927  63.995  1.00  0.00    -0.112 F  
HETATM   41  C   UNL     1      -8.353  18.188  67.643  1.00  0.00    -0.244 A  
ENDBRANCH  25  28
ENDBRANCH   4  25
TORSDOF 5
ENDMDL
MODEL       35
REMARK 921   NORMALIZED FREE ENERGY PREDICTED BY IDOCK:   -6.40 KCAL/MOL
REMARK 922        TOTAL FREE ENERGY PREDICTED BY IDOCK:   -9.92 KCAL/MOL
REMARK 923 INTER-LIGAND FREE ENERGY PREDICTED BY IDOCK:   -8.31 KCAL/MOL
REMARK 924 INTRA-LIGAND FREE ENERGY PREDICTED BY IDOCK:   -1.60 KCAL/MOL
REMARK 927      BINDING AFFINITY PREDICTED BY RF-SCORE:    0.00 PKD
ROOT
HETATM    1  C   UNL     1     -12.972  14.320  65.603  1.00  0.00    -0.182 C  
HETATM    2  N   UNL     1     -11.841  14.122  66.524  1.00  0.00    -0.401 N  
HETATM    3  O   UNL     1     -12.264  11.901  66.467  1.00  0.00    -0.483 OA 
HETATM    4  C   UNL     1     -11.464  12.803  66.773  1.00  0.00    -0.343 C  
ENDROOT
BRANCH   2   5
HETATM    5  C   UNL     1     -11.016  15.255  66.673  1.00  0.00    -0.297 A  
HETATM    6  C   UNL     1      -9.924  17.066  67.750  1.00  0.00    -0.280 A  
HETATM    7  C   UNL     1     -10.361  15.698  65.513  1.00  0.00    -0.396 A  
HETATM    8  C   UNL     1     -10.824  15.967  67.871  1.00  0.00    -0.333 A  
HETATM    9  C   UNL     1      -9.204  17.371  66.585  1.00  0.00    -0.261 A  
HETATM   10  N   UNL     1      -9.468  16.702  65.455  1.00  0.00    -0.429 NA 
BRANCH   9  11
HETATM   11  N   UNL     1      -8.199  18.317  66.565  1.00  0.00    -0.263 NA 
HETATM   12  C   UNL     1      -6.876  18.002  67.132  1.00  0.00    -0.187 C  
HETATM   13  C   UNL     1      -7.940  20.684  67.310  1.00  0.00    -0.273 C  
HETATM   14  C   UNL     1      -6.404  19.057  68.164  1.00  0.00    -0.218 C  
HETATM   15  N   UNL     1      -6.549  20.474  67.759  1.00  0.00    -0.281 NA 
HETATM   16  C   UNL     1      -5.587  20.844  66.723  1.00  0.00    -0.202 C  
HETATM   17  C   UNL     1      -8.434  19.720  66.204  1.00  0.00    -0.341 C  
ENDBRANCH   9  11
BRANCH   8  18
HETATM   18  C   UNL     1     -11.344  15.629  69.263  1.00  0.00    -0.348 A  
HETATM   19  C   UNL     1     -13.397  15.230  70.628  1.00  0.00    -0.320 A  
HETATM   20  C   UNL     1     -12.644  15.010  71.762  1.00  0.00    -0.409 A  
HETATM   21  C   UNL     1     -12.760  15.554  69.424  1.00  0.00     0.263 A  
HETATM   22  C   UNL     1     -11.263  15.091  71.670  1.00  0.00    -0.221 A  
HETATM   23  C   UNL     1     -10.600  15.361  70.441  1.00  0.00    -0.274 A  
HETATM   24  C   UNL     1      -9.104  15.341  70.545  1.00  0.00     1.211 C  
ENDBRANCH   8  18
ENDBRANCH   2   5
BRANCH   4  25
HETATM   25  C   UNL     1     -10.060  12.358  67.350  1.00  0.00    -0.205 C  
HETATM   26  C   UNL     1     -10.373  12.065  68.841  1.00  0.00    -0.117 C  
HETATM   27  C   UNL     1      -8.859  13.309  67.339  1.00  0.00    -0.204 C  
BRANCH  25  28
HETATM   28  C   UNL     1      -9.570  11.088  66.598  1.00  0.00    -0.216 A  
HETATM   29  C   UNL     1      -8.836   8.744  66.660  1.00  0.00    -0.153 A  
HETATM   30  C   UNL     1      -9.277   9.909  67.307  1.00  0.00    -0.156 A  
HETATM   31  F   UNL     1      -8.442   8.742  62.492  1.00  0.00    -0.172 F  
HETATM   32  C   UNL     1      -8.475   7.510  67.453  1.00  0.00    -0.115 C  
HETATM   33  F   UNL     1      -8.111  10.890  62.556  1.00  0.00    -0.177 F  
HETATM   34  C   UNL     1      -8.719   8.746  65.263  1.00  0.00    -0.216 A  
HETATM   35  F   UNL     1      -9.222   6.428  67.102  1.00  0.00    -0.120 F  
HETATM   36  F   UNL     1      -8.644   7.658  68.798  1.00  0.00    -0.126 F  
HETATM   37  F   UNL     1     -10.133  10.106  62.406  1.00  0.00    -0.175 F  
HETATM   38  C   UNL     1      -8.930   9.903  63.012  1.00  0.00    -0.259 C  
HETATM   39  C   UNL     1      -9.038   9.891  64.519  1.00  0.00    -0.296 A  
HETATM   40  F   UNL     1      -7.176   7.142  67.280  1.00  0.00    -0.075 F  
HETATM   41  C   UNL     1      -9.467  11.048  65.196  1.00  0.00    -0.265 A  
ENDBRANCH  25  28
ENDBRANCH   4  25
TORSDOF 5
ENDMDL
MODEL       36
REMARK 921   NORMALIZED FREE ENERGY PREDICTED BY IDOCK:   -6.39 KCAL/MOL
REMARK 922        TOTAL FREE ENERGY PREDICTED BY IDOCK:   -9.90 KCAL/MOL
REMARK 923 INTER-LIGAND FREE ENERGY PREDICTED BY IDOCK:   -8.06 KCAL/MOL
REMARK 924 INTRA-LIGAND FREE ENERGY PREDICTED BY IDOCK:   -1.84 KCAL/MOL
REMARK 927      BINDING AFFINITY PREDICTED BY RF-SCORE:    0.00 PKD
ROOT
HETATM    1  C   UNL     1      -6.453  10.793  66.727  1.00  0.00    -0.096 C  
HETATM    2  N   UNL     1      -7.646  10.258  67.401  1.00  0.00    -0.094 N  
HETATM    3  O   UNL     1      -8.014  12.322  68.250  1.00  0.00    -0.149 OA 
HETATM    4  C   UNL     1      -8.473  11.187  68.032  1.00  0.00    -0.135 C  
ENDROOT
BRANCH   2   5
HETATM    5  C   UNL     1      -8.037   8.982  66.951  1.00  0.00    -0.112 A  
HETATM    6  C   UNL     1      -8.851   7.315  65.471  1.00  0.00     0.011 A  
HETATM    7  C   UNL     1      -7.910   7.935  67.879  1.00  0.00    -0.127 A  
HETATM    8  C   UNL     1      -8.551   8.693  65.674  1.00  0.00    -0.191 A  
HETATM    9  C   UNL     1      -8.576   6.302  66.402  1.00  0.00    -0.133 A  
HETATM   10  N   UNL     1      -8.144   6.634  67.626  1.00  0.00    -0.118 NA 
BRANCH   9  11
HETATM   11  N   UNL     1      -8.698   4.962  66.094  1.00  0.00    -0.116 NA 
HETATM   12  C   UNL     1      -7.494   4.123  65.953  1.00  0.00    -0.081 C  
HETATM   13  C   UNL     1      -9.824   3.619  64.319  1.00  0.00    -0.184 C  
HETATM   14  C   UNL     1      -7.464   3.345  64.613  1.00  0.00    -0.075 C  
HETATM   15  N   UNL     1      -8.715   2.649  64.238  1.00  0.00    -0.091 NA 
HETATM   16  C   UNL     1      -8.959   1.479  65.079  1.00  0.00    -0.123 C  
HETATM   17  C   UNL     1      -9.966   4.354  65.674  1.00  0.00    -0.236 C  
ENDBRANCH   9  11
BRANCH   8  18
HETATM   18  C   UNL     1      -8.692   9.630  64.480  1.00  0.00    -0.227 A  
HETATM   19  C   UNL     1     -10.195  11.270  63.345  1.00  0.00    -0.454 A  
HETATM   20  C   UNL     1      -9.270  11.480  62.345  1.00  0.00     0.135 A  
HETATM   21  C   UNL     1      -9.917  10.352  64.366  1.00  0.00    -0.388 A  
HETATM   22  C   UNL     1      -8.069  10.789  62.392  1.00  0.00    -0.238 A  
HETATM   23  C   UNL     1      -7.750   9.899  63.454  1.00  0.00    -0.145 A  
HETATM   24  C   UNL     1      -6.377   9.304  63.350  1.00  0.00    -0.091 C  
ENDBRANCH   8  18
ENDBRANCH   2   5
BRANCH   4  25
HETATM   25  C   UNL     1      -9.983  10.930  68.429  1.00  0.00    -0.188 C  
HETATM   26  C   UNL     1      -9.878  10.433  69.895  1.00  0.00    -0.052 C  
HETATM   27  C   UNL     1     -10.836   9.898  67.683  1.00  0.00    -0.318 C  
BRANCH  25  28
HETATM   28  C   UNL     1     -10.780  12.260  68.321  1.00  0.00    -0.244 A  
HETATM   29  C   UNL     1     -11.903  13.946  66.930  1.00  0.00    -0.453 A  
HETATM   30  C   UNL     1     -11.179  12.750  67.064  1.00  0.00    -0.336 A  
HETATM   31  F   UNL     1     -12.968  16.090  70.364  1.00  0.00    -0.375 F  
HETATM   32  C   UNL     1     -12.270  14.477  65.564  1.00  0.00    -0.282 C  
HETATM   33  F   UNL     1     -11.249  15.240  71.387  1.00  0.00    -0.354 F  
HETATM   34  C   UNL     1     -12.268  14.652  68.084  1.00  0.00    -0.094 A  
HETATM   35  F   UNL     1     -13.615  14.614  65.402  1.00  0.00    -0.145 F  
HETATM   36  F   UNL     1     -11.852  13.680  64.539  1.00  0.00    -0.356 F  
HETATM   37  F   UNL     1     -13.152  14.189  71.403  1.00  0.00    -0.368 F  
HETATM   38  C   UNL     1     -12.319  14.918  70.610  1.00  0.00    -0.344 C  
HETATM   39  C   UNL     1     -11.920  14.175  69.356  1.00  0.00    -0.382 A  
HETATM   40  F   UNL     1     -11.736  15.705  65.323  1.00  0.00    -0.168 F  
HETATM   41  C   UNL     1     -11.185  12.980  69.460  1.00  0.00    -0.146 A  
ENDBRANCH  25  28
ENDBRANCH   4  25
TORSDOF 5
ENDMDL
MODEL       37
REMARK 921   NORMALIZED FREE ENERGY PREDICTED BY IDOCK:   -6.37 KCAL/MOL
REMARK 922        TOTAL FREE ENERGY PREDICTED BY IDOCK:   -9.87 KCAL/MOL
REMARK 923 INTER-LIGAND FREE ENERGY PREDICTED BY IDOCK:   -8.85 KCAL/MOL
REMARK 924 INTRA-LIGAND FREE ENERGY PREDICTED BY IDOCK:   -1.02 KCAL/MOL
REMARK 927      BINDING AFFINITY PREDICTED BY RF-SCORE:    0.00 PKD
ROOT
HETATM    1  C   UNL     1     -11.130   7.461  67.404  1.00  0.00     0.004 C  
HETATM    2  N   UNL     1      -9.977   8.326  67.701  1.00  0.00    -0.177 N  
HETATM    3  O   UNL     1     -10.754   9.785  66.158  1.00  0.00    -0.024 OA 
HETATM    4  C   UNL     1      -9.977   9.588  67.108  1.00  0.00    -0.204 C  
ENDROOT
BRANCH   2   5
HETATM    5  C   UNL     1      -9.272   7.965  68.866  1.00  0.00    -0.144 A  
HETATM    6  C   UNL     1      -8.809   7.722  71.181  1.00  0.00    -0.143 A  
HETATM    7  C   UNL     1      -8.034   7.332  68.668  1.00  0.00    -0.124 A  
HETATM    8  C   UNL     1      -9.704   8.205  70.184  1.00  0.00    -0.175 A  
HETATM    9  C   UNL     1      -7.649   6.981  70.908  1.00  0.00    -0.086 A  
HETATM   10  N   UNL     1      -7.248   6.832  69.639  1.00  0.00    -0.078 NA 
BRANCH   9  11
HETATM   11  N   UNL     1      -6.916   6.364  71.902  1.00  0.00    -0.078 NA 
HETATM   12  C   UNL     1      -6.390   5.003  71.695  1.00  0.00    -0.030 C  
HETATM   13  C   UNL     1      -7.234   5.859  74.324  1.00  0.00    -0.088 C  
HETATM   14  C   UNL     1      -6.778   4.034  72.841  1.00  0.00    -0.046 C  
HETATM   15  N   UNL     1      -6.576   4.542  74.217  1.00  0.00    -0.061 NA 
HETATM   16  C   UNL     1      -5.159   4.618  74.565  1.00  0.00    -0.008 C  
HETATM   17  C   UNL     1      -6.807   6.902  73.262  1.00  0.00    -0.074 C  
ENDBRANCH   9  11
BRANCH   8  18
HETATM   18  C   UNL     1     -11.036   8.783  70.648  1.00  0.00    -0.285 A  
HETATM   19  C   UNL     1     -12.378  10.877  70.879  1.00  0.00    -0.501 A  
HETATM   20  C   UNL     1     -13.433  10.182  71.433  1.00  0.00    -0.325 A  
HETATM   21  C   UNL     1     -11.208  10.194  70.523  1.00  0.00    -0.411 A  
HETATM   22  C   UNL     1     -13.313   8.811  71.598  1.00  0.00    -0.402 A  
HETATM   23  C   UNL     1     -12.154   8.097  71.187  1.00  0.00    -0.281 A  
HETATM   24  C   UNL     1     -12.254   6.615  71.395  1.00  0.00    -0.378 C  
ENDBRANCH   8  18
ENDBRANCH   2   5
BRANCH   4  25
HETATM   25  C   UNL     1      -9.112  10.817  67.601  1.00  0.00    -0.148 C  
HETATM   26  C   UNL     1      -7.930  10.838  66.596  1.00  0.00    -0.139 C  
HETATM   27  C   UNL     1      -8.489  10.841  69.001  1.00  0.00    -0.137 C  
BRANCH  25  28
HETATM   28  C   UNL     1      -9.965  12.115  67.522  1.00  0.00    -0.202 A  
HETATM   29  C   UNL     1     -11.298  13.692  66.191  1.00  0.00    -0.324 A  
HETATM   30  C   UNL     1     -10.520  12.529  66.298  1.00  0.00    -0.268 A  
HETATM   31  F   UNL     1     -12.054  15.970  69.621  1.00  0.00    -0.330 F  
HETATM   32  C   UNL     1     -11.834  14.143  64.852  1.00  0.00    -0.402 C  
HETATM   33  F   UNL     1     -10.202  15.227  70.482  1.00  0.00    -0.279 F  
HETATM   34  C   UNL     1     -11.558  14.443  67.345  1.00  0.00    -0.398 A  
HETATM   35  F   UNL     1     -13.192  14.229  64.837  1.00  0.00    -0.239 F  
HETATM   36  F   UNL     1     -11.503  13.310  63.824  1.00  0.00    -0.406 F  
HETATM   37  F   UNL     1     -12.050  14.119  70.760  1.00  0.00    -0.347 F  
HETATM   38  C   UNL     1     -11.339  14.833  69.845  1.00  0.00    -0.271 C  
HETATM   39  C   UNL     1     -11.054  14.041  68.590  1.00  0.00    -0.286 A  
HETATM   40  F   UNL     1     -11.376  15.374  64.496  1.00  0.00    -0.386 F  
HETATM   41  C   UNL     1     -10.268  12.877  68.665  1.00  0.00    -0.170 A  
ENDBRANCH  25  28
ENDBRANCH   4  25
TORSDOF 5
ENDMDL
MODEL       38
REMARK 921   NORMALIZED FREE ENERGY PREDICTED BY IDOCK:   -6.33 KCAL/MOL
REMARK 922        TOTAL FREE ENERGY PREDICTED BY IDOCK:   -9.82 KCAL/MOL
REMARK 923 INTER-LIGAND FREE ENERGY PREDICTED BY IDOCK:   -7.45 KCAL/MOL
REMARK 924 INTRA-LIGAND FREE ENERGY PREDICTED BY IDOCK:   -2.37 KCAL/MOL
REMARK 927      BINDING AFFINITY PREDICTED BY RF-SCORE:    0.00 PKD
ROOT
HETATM    1  C   UNL     1     -10.096   4.700  66.943  1.00  0.00    -0.191 C  
HETATM    2  N   UNL     1      -9.168   5.720  67.457  1.00  0.00    -0.109 N  
HETATM    3  O   UNL     1      -7.665   4.073  67.835  1.00  0.00    -0.067 OA 
HETATM    4  C   UNL     1      -7.870   5.296  67.738  1.00  0.00    -0.092 C  
ENDROOT
BRANCH   2   5
HETATM    5  C   UNL     1      -9.557   7.045  67.176  1.00  0.00    -0.149 A  
HETATM    6  C   UNL     1     -10.555   9.172  67.510  1.00  0.00    -0.317 A  
HETATM    7  C   UNL     1      -9.163   7.553  65.928  1.00  0.00     0.021 A  
HETATM    8  C   UNL     1     -10.313   7.868  68.031  1.00  0.00    -0.264 A  
HETATM    9  C   UNL     1     -10.016   9.654  66.307  1.00  0.00    -0.264 A  
HETATM   10  N   UNL     1      -9.356   8.813  65.500  1.00  0.00    -0.154 NA 
BRANCH   9  11
HETATM   11  N   UNL     1     -10.110  10.979  65.935  1.00  0.00    -0.240 NA 
HETATM   12  C   UNL     1     -10.964  11.904  66.702  1.00  0.00    -0.291 C  
HETATM   13  C   UNL     1     -10.659  12.228  63.846  1.00  0.00    -0.427 C  
HETATM   14  C   UNL     1     -11.963  12.676  65.804  1.00  0.00    -0.446 C  
HETATM   15  N   UNL     1     -11.401  13.277  64.573  1.00  0.00    -0.347 NA 
HETATM   16  C   UNL     1     -10.553  14.429  64.870  1.00  0.00    -0.434 C  
HETATM   17  C   UNL     1      -9.574  11.491  64.668  1.00  0.00    -0.162 C  
ENDBRANCH   9  11
BRANCH   8  18
HETATM   18  C   UNL     1     -10.771   7.579  69.456  1.00  0.00    -0.222 A  
HETATM   19  C   UNL     1     -11.285   5.773  71.103  1.00  0.00    -0.211 A  
HETATM   20  C   UNL     1     -11.611   6.700  72.071  1.00  0.00    -0.341 A  
HETATM   21  C   UNL     1     -10.901   6.208  69.828  1.00  0.00    -0.421 A  
HETATM   22  C   UNL     1     -11.524   8.048  71.759  1.00  0.00    -0.324 A  
HETATM   23  C   UNL     1     -11.078   8.503  70.487  1.00  0.00    -0.265 A  
HETATM   24  C   UNL     1     -10.994   9.996  70.377  1.00  0.00    -0.384 C  
ENDBRANCH   8  18
ENDBRANCH   2   5
BRANCH   4  25
HETATM   25  C   UNL     1      -6.616   6.251  67.873  1.00  0.00    -0.062 C  
HETATM   26  C   UNL     1      -6.438   6.799  66.432  1.00  0.00    -0.047 C  
HETATM   27  C   UNL     1      -5.248   5.711  68.302  1.00  0.00    -0.004 C  
BRANCH  25  28
HETATM   28  C   UNL     1      -6.935   7.382  68.890  1.00  0.00    -0.078 A  
HETATM   29  C   UNL     1      -7.349   9.761  69.347  1.00  0.00    -0.087 A  
HETATM   30  C   UNL     1      -7.059   8.715  68.457  1.00  0.00    -0.073 A  
HETATM   31  F   UNL     1      -7.935   8.894  73.401  1.00  0.00    -0.081 F  
HETATM   32  C   UNL     1      -7.421  11.190  68.863  1.00  0.00    -0.125 C  
HETATM   33  F   UNL     1      -6.662   7.146  73.177  1.00  0.00    -0.064 F  
HETATM   34  C   UNL     1      -7.557   9.462  70.701  1.00  0.00    -0.163 A  
HETATM   35  F   UNL     1      -8.634  11.760  69.099  1.00  0.00    -0.015 F  
HETATM   36  F   UNL     1      -7.201  11.323  67.524  1.00  0.00    -0.084 F  
HETATM   37  F   UNL     1      -8.796   6.992  72.793  1.00  0.00    -0.127 F  
HETATM   38  C   UNL     1      -7.715   7.802  72.617  1.00  0.00    -0.105 C  
HETATM   39  C   UNL     1      -7.480   8.140  71.163  1.00  0.00    -0.074 A  
HETATM   40  F   UNL     1      -6.505  11.992  69.472  1.00  0.00    -0.093 F  
HETATM   41  C   UNL     1      -7.175   7.114  70.250  1.00  0.00    -0.071 A  
ENDBRANCH  25  28
ENDBRANCH   4  25
TORSDOF 5
ENDMDL
MODEL       39
REMARK 921   NORMALIZED FREE ENERGY PREDICTED BY IDOCK:   -6.33 KCAL/MOL
REMARK 922        TOTAL FREE ENERGY PREDICTED BY IDOCK:   -9.82 KCAL/MOL
REMARK 923 INTER-LIGAND FREE ENERGY PREDICTED BY IDOCK:   -7.76 KCAL/MOL
REMARK 924 INTRA-LIGAND FREE ENERGY PREDICTED BY IDOCK:   -2.07 KCAL/MOL
REMARK 927      BINDING AFFINITY PREDICTED BY RF-SCORE:    0.00 PKD
ROOT
HETATM    1  C   UNL     1     -10.946  11.160  65.761  1.00  0.00    -0.091 C  
HETATM    2  N   UNL     1      -9.794  10.594  66.482  1.00  0.00    -0.197 N  
HETATM    3  O   UNL     1      -9.633  12.540  67.623  1.00  0.00    -0.181 OA 
HETATM    4  C   UNL     1      -9.296  11.346  67.545  1.00  0.00    -0.164 C  
ENDROOT
BRANCH   2   5
HETATM    5  C   UNL     1      -9.635   9.205  66.310  1.00  0.00    -0.255 A  
HETATM    6  C   UNL     1      -8.763   7.171  65.454  1.00  0.00     0.015 A  
HETATM    7  C   UNL     1     -10.468   8.387  67.091  1.00  0.00    -0.310 A  
HETATM    8  C   UNL     1      -8.734   8.595  65.417  1.00  0.00    -0.208 A  
HETATM    9  C   UNL     1      -9.531   6.419  66.356  1.00  0.00    -0.133 A  
HETATM   10  N   UNL     1     -10.417   7.044  67.143  1.00  0.00    -0.277 NA 
BRANCH   9  11
HETATM   11  N   UNL     1      -9.384   5.054  66.493  1.00  0.00    -0.133 NA 
HETATM   12  C   UNL     1      -8.469   4.508  67.511  1.00  0.00    -0.103 C  
HETATM   13  C   UNL     1      -8.829   3.143  64.989  1.00  0.00    -0.126 C  
HETATM   14  C   UNL     1      -7.457   3.494  66.920  1.00  0.00    -0.075 C  
HETATM   15  N   UNL     1      -8.020   2.463  66.019  1.00  0.00    -0.081 NA 
HETATM   16  C   UNL     1      -8.805   1.473  66.753  1.00  0.00    -0.116 C  
HETATM   17  C   UNL     1      -9.926   4.094  65.525  1.00  0.00    -0.203 C  
ENDBRANCH   9  11
BRANCH   8  18
HETATM   18  C   UNL     1      -7.675   9.259  64.545  1.00  0.00    -0.114 A  
HETATM   19  C   UNL     1      -5.250   9.825  64.363  1.00  0.00    -0.065 A  
HETATM   20  C   UNL     1      -5.447  10.434  63.142  1.00  0.00    -0.151 A  
HETATM   21  C   UNL     1      -6.341   9.278  65.050  1.00  0.00    -0.067 A  
HETATM   22  C   UNL     1      -6.727  10.464  62.612  1.00  0.00    -0.135 A  
HETATM   23  C   UNL     1      -7.834   9.861  63.271  1.00  0.00    -0.146 A  
HETATM   24  C   UNL     1      -9.117   9.949  62.499  1.00  0.00    -0.303 C  
ENDBRANCH   8  18
ENDBRANCH   2   5
BRANCH   4  25
HETATM   25  C   UNL     1      -8.387  10.774  68.707  1.00  0.00    -0.147 C  
HETATM   26  C   UNL     1      -7.622  12.031  69.201  1.00  0.00     0.149 C  
HETATM   27  C   UNL     1      -7.326   9.703  68.432  1.00  0.00    -0.075 C  
BRANCH  25  28
HETATM   28  C   UNL     1      -9.289  10.168  69.818  1.00  0.00    -0.183 A  
HETATM   29  C   UNL     1      -9.556   8.646  71.729  1.00  0.00    -0.360 A  
HETATM   30  C   UNL     1      -8.771   9.212  70.712  1.00  0.00    -0.285 A  
HETATM   31  F   UNL     1     -13.533   9.877  72.171  1.00  0.00    -0.451 F  
HETATM   32  C   UNL     1      -8.990   7.581  72.639  1.00  0.00    -0.144 C  
HETATM   33  F   UNL     1     -13.579  10.374  70.055  1.00  0.00    -0.137 F  
HETATM   34  C   UNL     1     -10.883   9.072  71.880  1.00  0.00    -0.413 A  
HETATM   35  F   UNL     1      -9.027   7.942  73.951  1.00  0.00    -0.276 F  
HETATM   36  F   UNL     1      -7.688   7.274  72.374  1.00  0.00    -0.085 F  
HETATM   37  F   UNL     1     -12.917  11.853  71.504  1.00  0.00    -0.466 F  
HETATM   38  C   UNL     1     -12.846  10.529  71.192  1.00  0.00    -0.416 C  
HETATM   39  C   UNL     1     -11.422  10.050  71.032  1.00  0.00    -0.463 A  
HETATM   40  F   UNL     1      -9.673   6.407  72.554  1.00  0.00    -0.162 F  
HETATM   41  C   UNL     1     -10.616  10.591  70.014  1.00  0.00    -0.223 A  
ENDBRANCH  25  28
ENDBRANCH   4  25
TORSDOF 5
ENDMDL
MODEL       40
REMARK 921   NORMALIZED FREE ENERGY PREDICTED BY IDOCK:   -6.33 KCAL/MOL
REMARK 922        TOTAL FREE ENERGY PREDICTED BY IDOCK:   -9.82 KCAL/MOL
REMARK 923 INTER-LIGAND FREE ENERGY PREDICTED BY IDOCK:   -7.46 KCAL/MOL
REMARK 924 INTRA-LIGAND FREE ENERGY PREDICTED BY IDOCK:   -2.35 KCAL/MOL
REMARK 927      BINDING AFFINITY PREDICTED BY RF-SCORE:    0.00 PKD
ROOT
HETATM    1  C   UNL     1      -5.311  10.482  66.608  1.00  0.00    -0.048 C  
HETATM    2  N   UNL     1      -6.048  11.204  67.658  1.00  0.00    -0.047 N  
HETATM    3  O   UNL     1      -5.206  13.134  66.834  1.00  0.00    -0.137 OA 
HETATM    4  C   UNL     1      -6.048  12.596  67.573  1.00  0.00    -0.157 C  
ENDROOT
BRANCH   2   5
HETATM    5  C   UNL     1      -7.008  10.420  68.328  1.00  0.00    -0.070 A  
HETATM    6  C   UNL     1      -8.837   8.935  68.615  1.00  0.00    -0.137 A  
HETATM    7  C   UNL     1      -6.956  10.446  69.731  1.00  0.00    -0.138 A  
HETATM    8  C   UNL     1      -8.004   9.647  67.704  1.00  0.00    -0.106 A  
HETATM    9  C   UNL     1      -8.643   8.907  70.004  1.00  0.00    -0.142 A  
HETATM   10  N   UNL     1      -7.721   9.708  70.555  1.00  0.00    -0.227 NA 
BRANCH   9  11
HETATM   11  N   UNL     1      -9.345   8.054  70.831  1.00  0.00    -0.152 NA 
HETATM   12  C   UNL     1      -9.745   6.720  70.348  1.00  0.00    -0.175 C  
HETATM   13  C   UNL     1     -11.436   8.175  72.185  1.00  0.00    -0.350 C  
HETATM   14  C   UNL     1     -11.259   6.447  70.536  1.00  0.00    -0.352 C  
HETATM   15  N   UNL     1     -11.820   6.786  71.864  1.00  0.00    -0.311 NA 
HETATM   16  C   UNL     1     -11.374   5.852  72.896  1.00  0.00    -0.226 C  
HETATM   17  C   UNL     1      -9.921   8.480  72.112  1.00  0.00    -0.317 C  
ENDBRANCH   9  11
BRANCH   8  18
HETATM   18  C   UNL     1      -8.201   9.387  66.215  1.00  0.00    -0.111 A  
HETATM   19  C   UNL     1      -9.345  10.184  64.143  1.00  0.00    -0.340 A  
HETATM   20  C   UNL     1      -8.783   9.168  63.399  1.00  0.00    -0.147 A  
HETATM   21  C   UNL     1      -9.077  10.269  65.515  1.00  0.00    -0.211 A  
HETATM   22  C   UNL     1      -7.940   8.267  64.031  1.00  0.00    -0.147 A  
HETATM   23  C   UNL     1      -7.612   8.377  65.411  1.00  0.00    -0.092 A  
HETATM   24  C   UNL     1      -6.634   7.343  65.882  1.00  0.00    -0.045 C  
ENDBRANCH   8  18
ENDBRANCH   2   5
BRANCH   4  25
HETATM   25  C   UNL     1      -7.090  13.544  68.292  1.00  0.00    -0.110 C  
HETATM   26  C   UNL     1      -6.650  14.959  67.831  1.00  0.00    -0.173 C  
HETATM   27  C   UNL     1      -7.192  13.599  69.820  1.00  0.00     0.439 C  
BRANCH  25  28
HETATM   28  C   UNL     1      -8.526  13.195  67.809  1.00  0.00    -0.185 A  
HETATM   29  C   UNL     1     -10.721  12.185  68.257  1.00  0.00    -0.248 A  
HETATM   30  C   UNL     1      -9.417  12.513  68.659  1.00  0.00    -0.010 A  
HETATM   31  F   UNL     1     -12.037  13.321  64.449  1.00  0.00    -0.389 F  
HETATM   32  C   UNL     1     -11.636  11.402  69.170  1.00  0.00    -0.314 C  
HETATM   33  F   UNL     1      -9.976  13.277  63.760  1.00  0.00    -0.251 F  
HETATM   34  C   UNL     1     -11.160  12.580  66.986  1.00  0.00    -0.326 A  
HETATM   35  F   UNL     1     -12.783  12.076  69.460  1.00  0.00    -0.038 F  
HETATM   36  F   UNL     1     -11.072  11.094  70.372  1.00  0.00    -0.304 F  
HETATM   37  F   UNL     1     -10.791  15.094  64.629  1.00  0.00    -0.389 F  
HETATM   38  C   UNL     1     -10.778  13.738  64.758  1.00  0.00    -0.416 C  
HETATM   39  C   UNL     1     -10.314  13.294  66.126  1.00  0.00    -0.290 A  
HETATM   40  F   UNL     1     -12.025  10.217  68.626  1.00  0.00    -0.208 F  
HETATM   41  C   UNL     1      -9.007  13.599  66.550  1.00  0.00    -0.068 A  
ENDBRANCH  25  28
ENDBRANCH   4  25
TORSDOF 5
ENDMDL
MODEL       41
REMARK 921   NORMALIZED FREE ENERGY PREDICTED BY IDOCK:   -6.33 KCAL/MOL
REMARK 922        TOTAL FREE ENERGY PREDICTED BY IDOCK:   -9.82 KCAL/MOL
REMARK 923 INTER-LIGAND FREE ENERGY PREDICTED BY IDOCK:   -7.48 KCAL/MOL
REMARK 924 INTRA-LIGAND FREE ENERGY PREDICTED BY IDOCK:   -2.34 KCAL/MOL
REMARK 927      BINDING AFFINITY PREDICTED BY RF-SCORE:    0.00 PKD
ROOT
HETATM    1  C   UNL     1     -11.079   6.155  67.280  1.00  0.00    -0.236 C  
HETATM    2  N   UNL     1     -10.039   6.851  68.054  1.00  0.00    -0.158 N  
HETATM    3  O   UNL     1      -8.724   5.028  67.810  1.00  0.00    -0.104 OA 
HETATM    4  C   UNL     1      -8.793   6.229  68.123  1.00  0.00    -0.113 C  
ENDROOT
BRANCH   2   5
HETATM    5  C   UNL     1     -10.282   8.227  68.234  1.00  0.00    -0.208 A  
HETATM    6  C   UNL     1     -10.696  10.266  69.376  1.00  0.00    -0.272 A  
HETATM    7  C   UNL     1     -10.338   9.003  67.065  1.00  0.00    -0.269 A  
HETATM    8  C   UNL     1     -10.487   8.860  69.475  1.00  0.00    -0.229 A  
HETATM    9  C   UNL     1     -10.609  10.996  68.181  1.00  0.00    -0.191 A  
HETATM   10  N   UNL     1     -10.473  10.341  67.020  1.00  0.00    -0.242 NA 
BRANCH   9  11
HETATM   11  N   UNL     1     -10.621  12.376  68.155  1.00  0.00    -0.209 NA 
HETATM   12  C   UNL     1     -11.111  13.132  69.321  1.00  0.00    -0.145 C  
HETATM   13  C   UNL     1     -11.532  14.140  66.645  1.00  0.00    -0.366 C  
HETATM   14  C   UNL     1     -12.201  14.167  68.944  1.00  0.00    -0.222 C  
HETATM   15  N   UNL     1     -11.910  15.019  67.769  1.00  0.00    -0.287 NA 
HETATM   16  C   UNL     1     -10.868  16.003  68.056  1.00  0.00    -0.335 C  
HETATM   17  C   UNL     1     -10.376  13.152  66.934  1.00  0.00    -0.247 C  
ENDBRANCH   9  11
BRANCH   8  18
HETATM   18  C   UNL     1     -10.382   8.256  70.870  1.00  0.00    -0.225 A  
HETATM   19  C   UNL     1      -9.105   8.300  73.016  1.00  0.00    -0.319 A  
HETATM   20  C   UNL     1      -9.912   7.321  73.557  1.00  0.00    -0.366 A  
HETATM   21  C   UNL     1      -9.324   8.732  71.702  1.00  0.00    -0.345 A  
HETATM   22  C   UNL     1     -10.943   6.807  72.786  1.00  0.00    -0.303 A  
HETATM   23  C   UNL     1     -11.213   7.278  71.472  1.00  0.00    -0.273 A  
HETATM   24  C   UNL     1     -12.410   6.636  70.836  1.00  0.00    -0.260 C  
ENDBRANCH   8  18
ENDBRANCH   2   5
BRANCH   4  25
HETATM   25  C   UNL     1      -7.441   6.955  68.504  1.00  0.00    -0.096 C  
HETATM   26  C   UNL     1      -6.370   5.868  68.223  1.00  0.00    -0.044 C  
HETATM   27  C   UNL     1      -7.182   7.459  69.928  1.00  0.00    -0.081 C  
BRANCH  25  28
HETATM   28  C   UNL     1      -7.253   8.205  67.599  1.00  0.00    -0.092 A  
HETATM   29  C   UNL     1      -7.203   9.202  65.354  1.00  0.00    -0.085 A  
HETATM   30  C   UNL     1      -7.363   8.095  66.201  1.00  0.00    -0.070 A  
HETATM   31  F   UNL     1      -6.439  12.964  67.026  1.00  0.00    -0.154 F  
HETATM   32  C   UNL     1      -7.272   9.043  63.853  1.00  0.00    -0.096 C  
HETATM   33  F   UNL     1      -5.536  11.980  68.741  1.00  0.00    -0.050 F  
HETATM   34  C   UNL     1      -6.961  10.462  65.921  1.00  0.00    -0.131 A  
HETATM   35  F   UNL     1      -8.253   9.803  63.293  1.00  0.00    -0.126 F  
HETATM   36  F   UNL     1      -7.518   7.764  63.451  1.00  0.00    -0.087 F  
HETATM   37  F   UNL     1      -7.672  12.379  68.718  1.00  0.00    -0.118 F  
HETATM   38  C   UNL     1      -6.634  11.970  67.937  1.00  0.00    -0.076 C  
HETATM   39  C   UNL     1      -6.881  10.617  67.312  1.00  0.00    -0.079 A  
HETATM   40  F   UNL     1      -6.115   9.411  63.237  1.00  0.00    -0.087 F  
HETATM   41  C   UNL     1      -7.034   9.487  68.136  1.00  0.00    -0.078 A  
ENDBRANCH  25  28
ENDBRANCH   4  25
TORSDOF 5
ENDMDL
MODEL       42
REMARK 921   NORMALIZED FREE ENERGY PREDICTED BY IDOCK:   -6.29 KCAL/MOL
REMARK 922        TOTAL FREE ENERGY PREDICTED BY IDOCK:   -9.77 KCAL/MOL
REMARK 923 INTER-LIGAND FREE ENERGY PREDICTED BY IDOCK:   -8.14 KCAL/MOL
REMARK 924 INTRA-LIGAND FREE ENERGY PREDICTED BY IDOCK:   -1.63 KCAL/MOL
REMARK 927      BINDING AFFINITY PREDICTED BY RF-SCORE:    0.00 PKD
ROOT
HETATM    1  C   UNL     1      -6.432  10.593  67.006  1.00  0.00    -0.079 C  
HETATM    2  N   UNL     1      -7.644  10.018  67.614  1.00  0.00    -0.090 N  
HETATM    3  O   UNL     1      -8.023  12.019  68.598  1.00  0.00    -0.138 OA 
HETATM    4  C   UNL     1      -8.481  10.905  68.289  1.00  0.00    -0.134 C  
ENDROOT
BRANCH   2   5
HETATM    5  C   UNL     1      -8.028   8.779  67.065  1.00  0.00    -0.095 A  
HETATM    6  C   UNL     1      -8.907   7.239  65.488  1.00  0.00     0.011 A  
HETATM    7  C   UNL     1      -7.792   7.649  67.866  1.00  0.00    -0.117 A  
HETATM    8  C   UNL     1      -8.636   8.600  65.808  1.00  0.00    -0.184 A  
HETATM    9  C   UNL     1      -8.523   6.149  66.284  1.00  0.00    -0.132 A  
HETATM   10  N   UNL     1      -8.004   6.373  67.498  1.00  0.00    -0.115 NA 
BRANCH   9  11
HETATM   11  N   UNL     1      -8.627   4.843  65.849  1.00  0.00    -0.118 NA 
HETATM   12  C   UNL     1      -7.414   4.030  65.654  1.00  0.00    -0.081 C  
HETATM   13  C   UNL     1      -9.707   3.665  63.933  1.00  0.00    -0.161 C  
HETATM   14  C   UNL     1      -7.350   3.382  64.248  1.00  0.00    -0.063 C  
HETATM   15  N   UNL     1      -8.587   2.715  63.783  1.00  0.00    -0.086 NA 
HETATM   16  C   UNL     1      -8.836   1.470  64.505  1.00  0.00    -0.102 C  
HETATM   17  C   UNL     1      -9.881   4.268  65.348  1.00  0.00    -0.211 C  
ENDBRANCH   9  11
BRANCH   8  18
HETATM   18  C   UNL     1      -8.904   9.647  64.733  1.00  0.00    -0.242 A  
HETATM   19  C   UNL     1     -10.599  11.237  63.818  1.00  0.00    -0.455 A  
HETATM   20  C   UNL     1      -9.726  11.656  62.835  1.00  0.00    -0.233 A  
HETATM   21  C   UNL     1     -10.200  10.243  64.721  1.00  0.00    -0.238 A  
HETATM   22  C   UNL     1      -8.460  11.095  62.786  1.00  0.00    -0.107 A  
HETATM   23  C   UNL     1      -8.022  10.129  63.733  1.00  0.00    -0.153 A  
HETATM   24  C   UNL     1      -6.598   9.699  63.541  1.00  0.00    -0.110 C  
ENDBRANCH   8  18
ENDBRANCH   2   5
BRANCH   4  25
HETATM   25  C   UNL     1     -10.001  10.629  68.631  1.00  0.00    -0.188 C  
HETATM   26  C   UNL     1      -9.955  10.238  70.132  1.00  0.00    -0.050 C  
HETATM   27  C   UNL     1     -10.787   9.521  67.921  1.00  0.00    -0.240 C  
BRANCH  25  28
HETATM   28  C   UNL     1     -10.829  11.922  68.392  1.00  0.00    -0.263 A  
HETATM   29  C   UNL     1     -11.795  14.006  69.263  1.00  0.00    -0.389 A  
HETATM   30  C   UNL     1     -11.055  12.827  69.444  1.00  0.00    -0.129 A  
HETATM   31  F   UNL     1     -13.319  14.903  65.468  1.00  0.00    -0.027 F  
HETATM   32  C   UNL     1     -12.071  14.932  70.425  1.00  0.00    -0.330 C  
HETATM   33  F   UNL     1     -13.357  12.776  65.018  1.00  0.00    -0.379 F  
HETATM   34  C   UNL     1     -12.291  14.307  67.987  1.00  0.00    -0.007 A  
HETATM   35  F   UNL     1     -11.586  16.187  70.218  1.00  0.00    -0.315 F  
HETATM   36  F   UNL     1     -11.521  14.510  71.599  1.00  0.00    -0.342 F  
HETATM   37  F   UNL     1     -11.565  13.939  64.618  1.00  0.00    -0.333 F  
HETATM   38  C   UNL     1     -12.570  13.766  65.521  1.00  0.00    -0.512 C  
HETATM   39  C   UNL     1     -12.053  13.448  66.905  1.00  0.00    -0.406 A  
HETATM   40  F   UNL     1     -13.401  15.080  70.668  1.00  0.00    -0.401 F  
HETATM   41  C   UNL     1     -11.318  12.267  67.119  1.00  0.00    -0.398 A  
ENDBRANCH  25  28
ENDBRANCH   4  25
TORSDOF 5
ENDMDL
MODEL       43
REMARK 921   NORMALIZED FREE ENERGY PREDICTED BY IDOCK:   -6.27 KCAL/MOL
REMARK 922        TOTAL FREE ENERGY PREDICTED BY IDOCK:   -9.74 KCAL/MOL
REMARK 923 INTER-LIGAND FREE ENERGY PREDICTED BY IDOCK:   -8.41 KCAL/MOL
REMARK 924 INTRA-LIGAND FREE ENERGY PREDICTED BY IDOCK:   -1.33 KCAL/MOL
REMARK 927      BINDING AFFINITY PREDICTED BY RF-SCORE:    0.00 PKD
ROOT
HETATM    1  C   UNL     1     -11.988  12.245  68.592  1.00  0.00    -0.227 C  
HETATM    2  N   UNL     1     -10.520  12.192  68.515  1.00  0.00    -0.230 N  
HETATM    3  O   UNL     1     -10.641   9.973  68.933  1.00  0.00    -0.200 OA 
HETATM    4  C   UNL     1      -9.941  10.924  68.545  1.00  0.00    -0.182 C  
ENDROOT
BRANCH   2   5
HETATM    5  C   UNL     1      -9.930  13.353  67.978  1.00  0.00    -0.239 A  
HETATM    6  C   UNL     1      -9.296  14.956  66.346  1.00  0.00    -0.327 A  
HETATM    7  C   UNL     1      -9.253  14.180  68.888  1.00  0.00    -0.001 A  
HETATM    8  C   UNL     1      -9.956  13.723  66.620  1.00  0.00    -0.279 A  
HETATM    9  C   UNL     1      -8.753  15.796  67.331  1.00  0.00    -0.183 A  
HETATM   10  N   UNL     1      -8.699  15.371  68.600  1.00  0.00    -0.180 NA 
BRANCH   9  11
HETATM   11  N   UNL     1      -8.300  17.069  67.047  1.00  0.00    -0.193 NA 
HETATM   12  C   UNL     1      -6.896  17.430  67.312  1.00  0.00    -0.168 C  
HETATM   13  C   UNL     1      -8.992  19.396  67.623  1.00  0.00    -0.304 C  
HETATM   14  C   UNL     1      -6.762  18.714  68.170  1.00  0.00    -0.224 C  
HETATM   15  N   UNL     1      -7.597  19.863  67.754  1.00  0.00    -0.281 NA 
HETATM   16  C   UNL     1      -7.113  20.465  66.514  1.00  0.00    -0.253 C  
HETATM   17  C   UNL     1      -9.199  18.174  66.695  1.00  0.00    -0.290 C  
ENDBRANCH   9  11
BRANCH   8  18
HETATM   18  C   UNL     1     -10.697  13.048  65.473  1.00  0.00    -0.299 A  
HETATM   19  C   UNL     1     -10.510  11.359  63.642  1.00  0.00    -0.472 A  
HETATM   20  C   UNL     1     -11.809  11.594  63.244  1.00  0.00    -0.232 A  
HETATM   21  C   UNL     1      -9.969  12.086  64.710  1.00  0.00    -0.241 A  
HETATM   22  C   UNL     1     -12.557  12.535  63.935  1.00  0.00    -0.485 A  
HETATM   23  C   UNL     1     -12.040  13.237  65.058  1.00  0.00    -0.447 A  
HETATM   24  C   UNL     1     -13.032  14.160  65.701  1.00  0.00    -0.284 C  
ENDBRANCH   8  18
ENDBRANCH   2   5
BRANCH   4  25
HETATM   25  C   UNL     1      -8.476  10.588  68.051  1.00  0.00    -0.120 C  
HETATM   26  C   UNL     1      -7.684  10.449  69.378  1.00  0.00    -0.158 C  
HETATM   27  C   UNL     1      -7.687  11.570  67.178  1.00  0.00    -0.160 C  
BRANCH  25  28
HETATM   28  C   UNL     1      -8.494   9.261  67.242  1.00  0.00    -0.125 A  
HETATM   29  C   UNL     1      -8.826   6.828  67.178  1.00  0.00    -0.119 A  
HETATM   30  C   UNL     1      -8.797   8.044  67.878  1.00  0.00    -0.130 A  
HETATM   31  F   UNL     1      -8.056   6.817  63.063  1.00  0.00    -0.113 F  
HETATM   32  C   UNL     1      -9.100   5.528  67.898  1.00  0.00    -0.107 C  
HETATM   33  F   UNL     1      -6.859   8.614  63.316  1.00  0.00    -0.088 F  
HETATM   34  C   UNL     1      -8.580   6.832  65.797  1.00  0.00    -0.144 A  
HETATM   35  F   UNL     1     -10.195   4.882  67.410  1.00  0.00    -0.202 F  
HETATM   36  F   UNL     1      -9.325   5.683  69.234  1.00  0.00    -0.117 F  
HETATM   37  F   UNL     1      -8.996   8.774  62.957  1.00  0.00    -0.155 F  
HETATM   38  C   UNL     1      -8.058   8.054  63.633  1.00  0.00    -0.099 C  
HETATM   39  C   UNL     1      -8.311   8.031  65.122  1.00  0.00    -0.139 A  
HETATM   40  F   UNL     1      -8.068   4.648  67.793  1.00  0.00    -0.093 F  
HETATM   41  C   UNL     1      -8.277   9.234  65.852  1.00  0.00    -0.116 A  
ENDBRANCH  25  28
ENDBRANCH   4  25
TORSDOF 5
ENDMDL
MODEL       44
REMARK 921   NORMALIZED FREE ENERGY PREDICTED BY IDOCK:   -6.25 KCAL/MOL
REMARK 922        TOTAL FREE ENERGY PREDICTED BY IDOCK:   -9.71 KCAL/MOL
REMARK 923 INTER-LIGAND FREE ENERGY PREDICTED BY IDOCK:   -8.92 KCAL/MOL
REMARK 924 INTRA-LIGAND FREE ENERGY PREDICTED BY IDOCK:   -0.80 KCAL/MOL
REMARK 927      BINDING AFFINITY PREDICTED BY RF-SCORE:    0.00 PKD
ROOT
HETATM    1  C   UNL     1     -10.447  12.635  64.736  1.00  0.00    -0.320 C  
HETATM    2  N   UNL     1     -10.658  13.312  66.026  1.00  0.00    -0.282 N  
HETATM    3  O   UNL     1     -11.801  11.490  66.723  1.00  0.00    -0.511 OA 
HETATM    4  C   UNL     1     -11.235  12.550  67.041  1.00  0.00    -0.302 C  
ENDROOT
BRANCH   2   5
HETATM    5  C   UNL     1      -9.861  14.459  66.210  1.00  0.00    -0.304 A  
HETATM    6  C   UNL     1      -7.980  15.765  66.833  1.00  0.00    -0.285 A  
HETATM    7  C   UNL     1     -10.428  15.677  65.800  1.00  0.00    -0.366 A  
HETATM    8  C   UNL     1      -8.575  14.471  66.780  1.00  0.00    -0.163 A  
HETATM    9  C   UNL     1      -8.555  16.921  66.284  1.00  0.00    -0.284 A  
HETATM   10  N   UNL     1      -9.806  16.870  65.808  1.00  0.00    -0.554 NA 
BRANCH   9  11
HETATM   11  N   UNL     1      -7.865  18.112  66.181  1.00  0.00    -0.440 NA 
HETATM   12  C   UNL     1      -6.419  18.105  65.896  1.00  0.00    -0.269 C  
HETATM   13  C   UNL     1      -7.563  20.146  67.593  1.00  0.00    -0.304 C  
HETATM   14  C   UNL     1      -5.607  18.942  66.916  1.00  0.00    -0.148 C  
HETATM   15  N   UNL     1      -6.141  20.288  67.224  1.00  0.00    -0.182 NA 
HETATM   16  C   UNL     1      -5.964  21.211  66.106  1.00  0.00    -0.276 C  
HETATM   17  C   UNL     1      -8.446  19.405  66.560  1.00  0.00    -0.337 C  
ENDBRANCH   9  11
BRANCH   8  18
HETATM   18  C   UNL     1      -7.722  13.282  67.207  1.00  0.00    -0.100 A  
HETATM   19  C   UNL     1      -7.118  10.916  66.683  1.00  0.00    -0.135 A  
HETATM   20  C   UNL     1      -6.249  10.864  67.753  1.00  0.00    -0.051 A  
HETATM   21  C   UNL     1      -7.847  12.086  66.439  1.00  0.00     0.240 A  
HETATM   22  C   UNL     1      -6.103  11.990  68.548  1.00  0.00    -0.051 A  
HETATM   23  C   UNL     1      -6.793  13.203  68.276  1.00  0.00    -0.103 A  
HETATM   24  C   UNL     1      -6.445  14.318  69.217  1.00  0.00    -0.115 C  
ENDBRANCH   8  18
ENDBRANCH   2   5
BRANCH   4  25
HETATM   25  C   UNL     1     -11.161  12.896  68.583  1.00  0.00    -0.321 C  
HETATM   26  C   UNL     1     -12.519  13.599  68.848  1.00  0.00     0.185 C  
HETATM   27  C   UNL     1     -10.077  13.826  69.138  1.00  0.00     0.112 C  
BRANCH  25  28
HETATM   28  C   UNL     1     -11.017  11.582  69.401  1.00  0.00    -0.233 A  
HETATM   29  C   UNL     1     -12.027   9.861  70.835  1.00  0.00    -0.434 A  
HETATM   30  C   UNL     1     -12.121  11.047  70.089  1.00  0.00    -0.438 A  
HETATM   31  F   UNL     1      -8.379   7.811  70.969  1.00  0.00    -0.106 F  
HETATM   32  C   UNL     1     -13.215   9.340  71.609  1.00  0.00    -0.388 C  
HETATM   33  F   UNL     1      -7.348   9.691  70.614  1.00  0.00    -0.109 F  
HETATM   34  C   UNL     1     -10.806   9.172  70.865  1.00  0.00    -0.345 A  
HETATM   35  F   UNL     1     -13.583   8.089  71.220  1.00  0.00    -0.331 F  
HETATM   36  F   UNL     1     -14.331  10.113  71.480  1.00  0.00     0.155 F  
HETATM   37  F   UNL     1      -8.012   8.483  68.934  1.00  0.00    -0.107 F  
HETATM   38  C   UNL     1      -8.376   8.916  70.173  1.00  0.00    -0.139 C  
HETATM   39  C   UNL     1      -9.694   9.655  70.161  1.00  0.00    -0.301 A  
HETATM   40  F   UNL     1     -12.970   9.260  72.946  1.00  0.00    -0.425 F  
HETATM   41  C   UNL     1      -9.814  10.853  69.431  1.00  0.00    -0.055 A  
ENDBRANCH  25  28
ENDBRANCH   4  25
TORSDOF 5
ENDMDL
MODEL       45
REMARK 921   NORMALIZED FREE ENERGY PREDICTED BY IDOCK:   -6.25 KCAL/MOL
REMARK 922        TOTAL FREE ENERGY PREDICTED BY IDOCK:   -9.71 KCAL/MOL
REMARK 923 INTER-LIGAND FREE ENERGY PREDICTED BY IDOCK:   -9.15 KCAL/MOL
REMARK 924 INTRA-LIGAND FREE ENERGY PREDICTED BY IDOCK:   -0.56 KCAL/MOL
REMARK 927      BINDING AFFINITY PREDICTED BY RF-SCORE:    0.00 PKD
ROOT
HETATM    1  C   UNL     1     -11.043  11.187  64.031  1.00  0.00    -0.099 C  
HETATM    2  N   UNL     1     -10.170  11.326  65.209  1.00  0.00    -0.261 N  
HETATM    3  O   UNL     1     -10.710  13.521  65.271  1.00  0.00    -0.298 OA 
HETATM    4  C   UNL     1     -10.207  12.554  65.868  1.00  0.00    -0.261 C  
ENDROOT
BRANCH   2   5
HETATM    5  C   UNL     1      -9.769  10.100  65.775  1.00  0.00    -0.245 A  
HETATM    6  C   UNL     1      -8.392   8.220  66.225  1.00  0.00    -0.124 A  
HETATM    7  C   UNL     1     -10.680   9.502  66.660  1.00  0.00    -0.016 A  
HETATM    8  C   UNL     1      -8.556   9.439  65.506  1.00  0.00    -0.169 A  
HETATM    9  C   UNL     1      -9.291   7.749  67.195  1.00  0.00    -0.150 A  
HETATM   10  N   UNL     1     -10.459   8.381  67.370  1.00  0.00    -0.282 NA 
BRANCH   9  11
HETATM   11  N   UNL     1      -9.002   6.672  68.008  1.00  0.00    -0.118 NA 
HETATM   12  C   UNL     1      -8.651   5.370  67.413  1.00  0.00    -0.108 C  
HETATM   13  C   UNL     1     -10.123   5.491  69.898  1.00  0.00    -0.235 C  
HETATM   14  C   UNL     1      -9.515   4.209  67.968  1.00  0.00    -0.160 C  
HETATM   15  N   UNL     1      -9.672   4.162  69.439  1.00  0.00    -0.193 NA 
HETATM   16  C   UNL     1      -8.436   3.754  70.104  1.00  0.00    -0.060 C  
HETATM   17  C   UNL     1      -9.238   6.682  69.456  1.00  0.00    -0.143 C  
ENDBRANCH   9  11
BRANCH   8  18
HETATM   18  C   UNL     1      -7.383   9.928  64.665  1.00  0.00    -0.140 A  
HETATM   19  C   UNL     1      -6.579  10.346  62.338  1.00  0.00    -0.148 A  
HETATM   20  C   UNL     1      -5.358  10.787  62.801  1.00  0.00    -0.177 A  
HETATM   21  C   UNL     1      -7.549   9.907  63.248  1.00  0.00    -0.137 A  
HETATM   22  C   UNL     1      -5.132  10.808  64.168  1.00  0.00    -0.129 A  
HETATM   23  C   UNL     1      -6.128  10.422  65.106  1.00  0.00    -0.124 A  
HETATM   24  C   UNL     1      -5.704  10.581  66.536  1.00  0.00    -0.069 C  
ENDBRANCH   8  18
ENDBRANCH   2   5
BRANCH   4  25
HETATM   25  C   UNL     1      -9.719  12.796  67.353  1.00  0.00    -0.197 C  
HETATM   26  C   UNL     1      -8.176  12.876  67.206  1.00  0.00    -0.176 C  
HETATM   27  C   UNL     1      -9.995  11.770  68.458  1.00  0.00    -0.203 C  
BRANCH  25  28
HETATM   28  C   UNL     1     -10.322  14.127  67.885  1.00  0.00    -0.234 A  
HETATM   29  C   UNL     1     -11.604  15.330  69.602  1.00  0.00    -0.340 A  
HETATM   30  C   UNL     1     -11.048  14.147  69.090  1.00  0.00    -0.295 A  
HETATM   31  F   UNL     1     -11.034  18.922  67.528  1.00  0.00    -0.484 F  
HETATM   32  C   UNL     1     -12.427  15.313  70.869  1.00  0.00    -0.388 C  
HETATM   33  F   UNL     1     -10.833  17.787  65.685  1.00  0.00    -0.372 F  
HETATM   34  C   UNL     1     -11.398  16.532  68.909  1.00  0.00    -0.206 A  
HETATM   35  F   UNL     1     -11.909  16.116  71.838  1.00  0.00    -0.447 F  
HETATM   36  F   UNL     1     -12.535  14.075  71.431  1.00  0.00    -0.376 F  
HETATM   37  F   UNL     1      -9.086  18.174  66.918  1.00  0.00    -0.248 F  
HETATM   38  C   UNL     1     -10.406  17.847  66.976  1.00  0.00    -0.362 C  
HETATM   39  C   UNL     1     -10.648  16.557  67.725  1.00  0.00    -0.332 A  
HETATM   40  F   UNL     1     -13.702  15.743  70.667  1.00  0.00    -0.405 F  
HETATM   41  C   UNL     1     -10.113  15.353  67.230  1.00  0.00    -0.238 A  
ENDBRANCH  25  28
ENDBRANCH   4  25
TORSDOF 5
ENDMDL
MODEL       46
REMARK 921   NORMALIZED FREE ENERGY PREDICTED BY IDOCK:   -6.24 KCAL/MOL
REMARK 922        TOTAL FREE ENERGY PREDICTED BY IDOCK:   -9.70 KCAL/MOL
REMARK 923 INTER-LIGAND FREE ENERGY PREDICTED BY IDOCK:   -7.92 KCAL/MOL
REMARK 924 INTRA-LIGAND FREE ENERGY PREDICTED BY IDOCK:   -1.78 KCAL/MOL
REMARK 927      BINDING AFFINITY PREDICTED BY RF-SCORE:    0.00 PKD
ROOT
HETATM    1  C   UNL     1      -7.117   8.507  69.823  1.00  0.00    -0.051 C  
HETATM    2  N   UNL     1      -7.699   8.932  68.539  1.00  0.00    -0.097 N  
HETATM    3  O   UNL     1      -9.015   7.093  68.599  1.00  0.00    -0.132 OA 
HETATM    4  C   UNL     1      -8.796   8.203  68.082  1.00  0.00    -0.132 C  
ENDROOT
BRANCH   2   5
HETATM    5  C   UNL     1      -7.380  10.254  68.174  1.00  0.00    -0.085 A  
HETATM    6  C   UNL     1      -6.492  12.037  66.882  1.00  0.00    -0.060 A  
HETATM    7  C   UNL     1      -7.808  11.259  69.058  1.00  0.00    -0.079 A  
HETATM    8  C   UNL     1      -6.663  10.629  67.022  1.00  0.00    -0.086 A  
HETATM    9  C   UNL     1      -7.062  12.990  67.740  1.00  0.00    -0.139 A  
HETATM   10  N   UNL     1      -7.682  12.583  68.855  1.00  0.00     0.012 NA 
BRANCH   9  11
HETATM   11  N   UNL     1      -7.039  14.341  67.461  1.00  0.00    -0.184 NA 
HETATM   12  C   UNL     1      -5.820  15.129  67.719  1.00  0.00    -0.115 C  
HETATM   13  C   UNL     1      -8.429  16.326  68.054  1.00  0.00    -0.174 C  
HETATM   14  C   UNL     1      -6.094  16.386  68.582  1.00  0.00    -0.126 C  
HETATM   15  N   UNL     1      -7.254  17.212  68.178  1.00  0.00    -0.187 NA 
HETATM   16  C   UNL     1      -6.997  17.941  66.939  1.00  0.00    -0.181 C  
HETATM   17  C   UNL     1      -8.245  15.105  67.121  1.00  0.00    -0.221 C  
ENDBRANCH   9  11
BRANCH   8  18
HETATM   18  C   UNL     1      -6.183   9.741  65.881  1.00  0.00    -0.072 A  
HETATM   19  C   UNL     1      -6.005   9.535  63.398  1.00  0.00    -0.093 A  
HETATM   20  C   UNL     1      -5.395   8.304  63.508  1.00  0.00    -0.057 A  
HETATM   21  C   UNL     1      -6.408  10.216  64.554  1.00  0.00    -0.129 A  
HETATM   22  C   UNL     1      -5.171   7.782  64.773  1.00  0.00    -0.029 A  
HETATM   23  C   UNL     1      -5.520   8.490  65.956  1.00  0.00    -0.034 A  
HETATM   24  C   UNL     1      -5.134   7.779  67.219  1.00  0.00    -0.027 C  
ENDBRANCH   8  18
ENDBRANCH   2   5
BRANCH   4  25
HETATM   25  C   UNL     1      -9.832   8.713  67.001  1.00  0.00    -0.284 C  
HETATM   26  C   UNL     1     -10.762   7.486  66.803  1.00  0.00    -0.169 C  
HETATM   27  C   UNL     1      -9.376   9.140  65.602  1.00  0.00    -0.300 C  
BRANCH  25  28
HETATM   28  C   UNL     1     -10.602   9.942  67.562  1.00  0.00    -0.333 A  
HETATM   29  C   UNL     1     -11.472  12.217  67.243  1.00  0.00    -0.426 A  
HETATM   30  C   UNL     1     -10.780  11.091  66.771  1.00  0.00    -0.319 A  
HETATM   31  F   UNL     1     -13.120  12.140  71.091  1.00  0.00    -0.379 F  
HETATM   32  C   UNL     1     -11.600  13.459  66.392  1.00  0.00    -0.346 C  
HETATM   33  F   UNL     1     -11.601  10.700  71.676  1.00  0.00    -0.238 F  
HETATM   34  C   UNL     1     -12.033  12.180  68.528  1.00  0.00    -0.273 A  
HETATM   35  F   UNL     1     -12.897  13.793  66.148  1.00  0.00    -0.442 F  
HETATM   36  F   UNL     1     -11.009  13.344  65.169  1.00  0.00    -0.282 F  
HETATM   37  F   UNL     1     -13.475  10.014  70.816  1.00  0.00    -0.438 F  
HETATM   38  C   UNL     1     -12.520  10.978  70.712  1.00  0.00    -0.396 C  
HETATM   39  C   UNL     1     -11.909  11.038  69.331  1.00  0.00    -0.407 A  
HETATM   40  F   UNL     1     -11.035  14.550  66.977  1.00  0.00    -0.287 F  
HETATM   41  C   UNL     1     -11.199   9.928  68.835  1.00  0.00    -0.126 A  
ENDBRANCH  25  28
ENDBRANCH   4  25
TORSDOF 5
ENDMDL
MODEL       47
REMARK 921   NORMALIZED FREE ENERGY PREDICTED BY IDOCK:   -6.22 KCAL/MOL
REMARK 922        TOTAL FREE ENERGY PREDICTED BY IDOCK:   -9.68 KCAL/MOL
REMARK 923 INTER-LIGAND FREE ENERGY PREDICTED BY IDOCK:   -9.04 KCAL/MOL
REMARK 924 INTRA-LIGAND FREE ENERGY PREDICTED BY IDOCK:   -0.64 KCAL/MOL
REMARK 927      BINDING AFFINITY PREDICTED BY RF-SCORE:    0.00 PKD
ROOT
HETATM    1  C   UNL     1      -6.558  10.681  67.093  1.00  0.00    -0.076 C  
HETATM    2  N   UNL     1      -7.774  10.150  67.730  1.00  0.00    -0.090 N  
HETATM    3  O   UNL     1      -8.119  12.195  68.632  1.00  0.00    -0.127 OA 
HETATM    4  C   UNL     1      -8.595  11.076  68.373  1.00  0.00    -0.149 C  
ENDROOT
BRANCH   2   5
HETATM    5  C   UNL     1      -8.179   8.894  67.236  1.00  0.00    -0.104 A  
HETATM    6  C   UNL     1      -9.082   7.301  65.726  1.00  0.00     0.005 A  
HETATM    7  C   UNL     1      -7.965   7.798  68.087  1.00  0.00    -0.122 A  
HETATM    8  C   UNL     1      -8.787   8.671  65.987  1.00  0.00    -0.213 A  
HETATM    9  C   UNL     1      -8.720   6.241  66.571  1.00  0.00    -0.131 A  
HETATM   10  N   UNL     1      -8.199   6.510  67.775  1.00  0.00    -0.115 NA 
BRANCH   9  11
HETATM   11  N   UNL     1      -8.846   4.920  66.194  1.00  0.00    -0.120 NA 
HETATM   12  C   UNL     1      -7.677   4.023  66.240  1.00  0.00    -0.090 C  
HETATM   13  C   UNL     1      -9.691   3.691  64.194  1.00  0.00    -0.172 C  
HETATM   14  C   UNL     1      -7.439   3.285  64.898  1.00  0.00    -0.072 C  
HETATM   15  N   UNL     1      -8.631   2.667  64.276  1.00  0.00    -0.090 NA 
HETATM   16  C   UNL     1      -9.079   1.487  65.013  1.00  0.00    -0.121 C  
HETATM   17  C   UNL     1     -10.043   4.392  65.528  1.00  0.00    -0.236 C  
ENDBRANCH   9  11
BRANCH   8  18
HETATM   18  C   UNL     1      -9.034   9.673  64.866  1.00  0.00    -0.260 A  
HETATM   19  C   UNL     1     -10.532  11.505  64.065  1.00  0.00    -0.424 A  
HETATM   20  C   UNL     1      -9.778  11.671  62.923  1.00  0.00    -0.233 A  
HETATM   21  C   UNL     1     -10.179  10.516  64.992  1.00  0.00    -0.365 A  
HETATM   22  C   UNL     1      -8.666  10.865  62.736  1.00  0.00    -0.276 A  
HETATM   23  C   UNL     1      -8.262   9.898  63.698  1.00  0.00    -0.157 A  
HETATM   24  C   UNL     1      -6.997   9.178  63.334  1.00  0.00    -0.089 C  
ENDBRANCH   8  18
ENDBRANCH   2   5
BRANCH   4  25
HETATM   25  C   UNL     1     -10.116  10.836  68.734  1.00  0.00    -0.202 C  
HETATM   26  C   UNL     1     -10.037   9.936  69.996  1.00  0.00    -0.308 C  
HETATM   27  C   UNL     1     -11.063  10.129  67.758  1.00  0.00    -0.293 C  
BRANCH  25  28
HETATM   28  C   UNL     1     -10.798  12.200  69.035  1.00  0.00    -0.208 A  
HETATM   29  C   UNL     1     -12.230  13.575  70.482  1.00  0.00    -0.433 A  
HETATM   30  C   UNL     1     -11.603  12.357  70.178  1.00  0.00    -0.159 A  
HETATM   31  F   UNL     1     -11.645  16.864  67.959  1.00  0.00    -0.185 F  
HETATM   32  C   UNL     1     -13.134  13.699  71.686  1.00  0.00    -0.372 C  
HETATM   33  F   UNL     1     -11.284  15.494  66.311  1.00  0.00    -0.314 F  
HETATM   34  C   UNL     1     -12.020  14.677  69.640  1.00  0.00    -0.368 A  
HETATM   35  F   UNL     1     -12.709  14.651  72.562  1.00  0.00    -0.357 F  
HETATM   36  F   UNL     1     -13.238  12.548  72.410  1.00  0.00    -0.575 F  
HETATM   37  F   UNL     1      -9.637  16.123  67.581  1.00  0.00    -0.217 F  
HETATM   38  C   UNL     1     -10.946  15.750  67.604  1.00  0.00    -0.302 C  
HETATM   39  C   UNL     1     -11.194  14.568  68.513  1.00  0.00    -0.285 A  
HETATM   40  F   UNL     1     -14.407  14.042  71.348  1.00  0.00    -0.369 F  
HETATM   41  C   UNL     1     -10.587  13.332  68.226  1.00  0.00    -0.262 A  
ENDBRANCH  25  28
ENDBRANCH   4  25
TORSDOF 5
ENDMDL
MODEL       48
REMARK 921   NORMALIZED FREE ENERGY PREDICTED BY IDOCK:   -6.21 KCAL/MOL
REMARK 922        TOTAL FREE ENERGY PREDICTED BY IDOCK:   -9.66 KCAL/MOL
REMARK 923 INTER-LIGAND FREE ENERGY PREDICTED BY IDOCK:   -9.21 KCAL/MOL
REMARK 924 INTRA-LIGAND FREE ENERGY PREDICTED BY IDOCK:   -0.45 KCAL/MOL
REMARK 927      BINDING AFFINITY PREDICTED BY RF-SCORE:    0.00 PKD
ROOT
HETATM    1  C   UNL     1     -12.101   9.495  70.548  1.00  0.00    -0.085 C  
HETATM    2  N   UNL     1     -11.232   9.709  69.380  1.00  0.00    -0.139 N  
HETATM    3  O   UNL     1     -11.292  11.926  69.820  1.00  0.00    -0.235 OA 
HETATM    4  C   UNL     1     -10.742  11.001  69.197  1.00  0.00    -0.234 C  
ENDROOT
BRANCH   2   5
HETATM    5  C   UNL     1     -10.653   8.530  68.871  1.00  0.00    -0.144 A  
HETATM    6  C   UNL     1      -9.434   6.493  68.863  1.00  0.00    -0.129 A  
HETATM    7  C   UNL     1     -10.852   8.283  67.503  1.00  0.00    -0.023 A  
HETATM    8  C   UNL     1      -9.889   7.613  69.618  1.00  0.00    -0.181 A  
HETATM    9  C   UNL     1      -9.783   6.247  67.526  1.00  0.00    -0.117 A  
HETATM   10  N   UNL     1     -10.459   7.179  66.843  1.00  0.00    -0.298 NA 
BRANCH   9  11
HETATM   11  N   UNL     1      -9.486   5.058  66.892  1.00  0.00    -0.134 NA 
HETATM   12  C   UNL     1      -8.260   4.319  67.244  1.00  0.00    -0.100 C  
HETATM   13  C   UNL     1      -9.257   4.285  64.532  1.00  0.00    -0.155 C  
HETATM   14  C   UNL     1      -7.395   3.975  66.006  1.00  0.00    -0.076 C  
HETATM   15  N   UNL     1      -8.117   3.401  64.848  1.00  0.00    -0.089 NA 
HETATM   16  C   UNL     1      -8.553   2.031  65.105  1.00  0.00    -0.107 C  
HETATM   17  C   UNL     1     -10.214   4.582  65.711  1.00  0.00    -0.265 C  
ENDBRANCH   9  11
BRANCH   8  18
HETATM   18  C   UNL     1      -9.618   7.613  71.118  1.00  0.00    -0.168 A  
HETATM   19  C   UNL     1      -8.083   8.434  72.909  1.00  0.00    -0.166 A  
HETATM   20  C   UNL     1      -8.827   7.805  73.884  1.00  0.00    -0.329 A  
HETATM   21  C   UNL     1      -8.459   8.316  71.565  1.00  0.00    -0.179 A  
HETATM   22  C   UNL     1      -9.951   7.088  73.505  1.00  0.00    -0.321 A  
HETATM   23  C   UNL     1     -10.379   7.010  72.151  1.00  0.00    -0.214 A  
HETATM   24  C   UNL     1     -11.653   6.241  71.965  1.00  0.00    -0.372 C  
ENDBRANCH   8  18
ENDBRANCH   2   5
BRANCH   4  25
HETATM   25  C   UNL     1      -9.487  11.374  68.310  1.00  0.00    -0.187 C  
HETATM   26  C   UNL     1      -8.418  10.347  68.768  1.00  0.00    -0.132 C  
HETATM   27  C   UNL     1      -8.828  12.754  68.405  1.00  0.00    -0.117 C  
BRANCH  25  28
HETATM   28  C   UNL     1      -9.848  11.207  66.807  1.00  0.00    -0.230 A  
HETATM   29  C   UNL     1     -11.265  11.812  64.893  1.00  0.00    -0.328 A  
HETATM   30  C   UNL     1     -10.913  11.935  66.246  1.00  0.00    -0.345 A  
HETATM   31  F   UNL     1      -9.045   9.259  62.426  1.00  0.00    -0.243 F  
HETATM   32  C   UNL     1     -12.449  12.563  64.331  1.00  0.00    -0.446 C  
HETATM   33  F   UNL     1      -8.534   8.071  64.173  1.00  0.00    -0.128 F  
HETATM   34  C   UNL     1     -10.509  10.965  64.069  1.00  0.00    -0.379 A  
HETATM   35  F   UNL     1     -12.102  13.393  63.309  1.00  0.00    -0.561 F  
HETATM   36  F   UNL     1     -13.081  13.348  65.249  1.00  0.00    -0.499 F  
HETATM   37  F   UNL     1      -7.292   9.762  63.609  1.00  0.00    -0.105 F  
HETATM   38  C   UNL     1      -8.585   9.348  63.705  1.00  0.00    -0.211 C  
HETATM   39  C   UNL     1      -9.417  10.253  64.584  1.00  0.00    -0.351 A  
HETATM   40  F   UNL     1     -13.403  11.732  63.831  1.00  0.00    -0.500 F  
HETATM   41  C   UNL     1      -9.095  10.387  65.947  1.00  0.00    -0.192 A  
ENDBRANCH  25  28
ENDBRANCH   4  25
TORSDOF 5
ENDMDL
MODEL       49
REMARK 921   NORMALIZED FREE ENERGY PREDICTED BY IDOCK:   -6.11 KCAL/MOL
REMARK 922        TOTAL FREE ENERGY PREDICTED BY IDOCK:   -9.53 KCAL/MOL
REMARK 923 INTER-LIGAND FREE ENERGY PREDICTED BY IDOCK:   -6.95 KCAL/MOL
REMARK 924 INTRA-LIGAND FREE ENERGY PREDICTED BY IDOCK:   -2.58 KCAL/MOL
REMARK 927      BINDING AFFINITY PREDICTED BY RF-SCORE:    0.00 PKD
ROOT
HETATM    1  C   UNL     1      -6.449  10.918  66.129  1.00  0.00    -0.114 C  
HETATM    2  N   UNL     1      -6.474   9.838  67.129  1.00  0.00    -0.069 N  
HETATM    3  O   UNL     1      -6.003  11.380  68.714  1.00  0.00    -0.043 OA 
HETATM    4  C   UNL     1      -6.392  10.226  68.466  1.00  0.00    -0.051 C  
ENDROOT
BRANCH   2   5
HETATM    5  C   UNL     1      -7.021   8.629  66.655  1.00  0.00    -0.079 A  
HETATM    6  C   UNL     1      -8.567   7.165  65.608  1.00  0.00    -0.119 A  
HETATM    7  C   UNL     1      -6.257   7.474  66.886  1.00  0.00    -0.048 A  
HETATM    8  C   UNL     1      -8.259   8.500  65.999  1.00  0.00    -0.118 A  
HETATM    9  C   UNL     1      -7.693   6.077  65.757  1.00  0.00    -0.097 A  
HETATM   10  N   UNL     1      -6.554   6.239  66.442  1.00  0.00    -0.047 NA 
BRANCH   9  11
HETATM   11  N   UNL     1      -7.945   4.844  65.191  1.00  0.00    -0.095 NA 
HETATM   12  C   UNL     1      -8.762   4.746  63.968  1.00  0.00    -0.138 C  
HETATM   13  C   UNL     1      -8.871   2.661  65.967  1.00  0.00    -0.136 C  
HETATM   14  C   UNL     1      -9.933   3.742  64.112  1.00  0.00    -0.193 C  
HETATM   15  N   UNL     1      -9.593   2.427  64.701  1.00  0.00    -0.110 NA 
HETATM   16  C   UNL     1      -8.811   1.605  63.779  1.00  0.00    -0.089 C  
HETATM   17  C   UNL     1      -7.629   3.579  65.863  1.00  0.00    -0.081 C  
ENDBRANCH   9  11
BRANCH   8  18
HETATM   18  C   UNL     1      -9.211   9.605  65.555  1.00  0.00    -0.291 A  
HETATM   19  C   UNL     1     -10.879  11.290  66.338  1.00  0.00    -0.306 A  
HETATM   20  C   UNL     1     -11.096  11.727  65.048  1.00  0.00    -0.343 A  
HETATM   21  C   UNL     1      -9.980  10.242  66.574  1.00  0.00    -0.280 A  
HETATM   22  C   UNL     1     -10.392  11.128  64.015  1.00  0.00    -0.437 A  
HETATM   23  C   UNL     1      -9.433  10.104  64.247  1.00  0.00    -0.366 A  
HETATM   24  C   UNL     1      -8.737   9.638  63.003  1.00  0.00    -0.229 C  
ENDBRANCH   8  18
ENDBRANCH   2   5
BRANCH   4  25
HETATM   25  C   UNL     1      -6.826   9.329  69.694  1.00  0.00    -0.055 C  
HETATM   26  C   UNL     1      -6.464  10.214  70.917  1.00  0.00     0.033 C  
HETATM   27  C   UNL     1      -6.184   7.961  69.946  1.00  0.00    -0.026 C  
BRANCH  25  28
HETATM   28  C   UNL     1      -8.352   9.045  69.613  1.00  0.00    -0.125 A  
HETATM   29  C   UNL     1     -10.191   7.462  69.221  1.00  0.00    -0.199 A  
HETATM   30  C   UNL     1      -8.820   7.756  69.299  1.00  0.00    -0.139 A  
HETATM   31  F   UNL     1     -12.978  10.485  70.009  1.00  0.00    -0.349 F  
HETATM   32  C   UNL     1     -10.664   6.083  68.826  1.00  0.00    -0.308 C  
HETATM   33  F   UNL     1     -11.508  11.958  69.382  1.00  0.00    -0.282 F  
HETATM   34  C   UNL     1     -11.119   8.476  69.499  1.00  0.00     0.039 A  
HETATM   35  F   UNL     1     -11.440   5.505  69.783  1.00  0.00    -0.274 F  
HETATM   36  F   UNL     1      -9.648   5.205  68.591  1.00  0.00    -0.139 F  
HETATM   37  F   UNL     1     -11.573  11.302  71.452  1.00  0.00    -0.037 F  
HETATM   38  C   UNL     1     -11.679  10.861  70.169  1.00  0.00    -0.347 C  
HETATM   39  C   UNL     1     -10.690   9.763  69.853  1.00  0.00    -0.303 A  
HETATM   40  F   UNL     1     -11.415   6.096  67.691  1.00  0.00    -0.355 F  
HETATM   41  C   UNL     1      -9.310  10.031  69.912  1.00  0.00    -0.207 A  
ENDBRANCH  25  28
ENDBRANCH   4  25
TORSDOF 5
ENDMDL
MODEL       50
REMARK 921   NORMALIZED FREE ENERGY PREDICTED BY IDOCK:   -6.11 KCAL/MOL
REMARK 922        TOTAL FREE ENERGY PREDICTED BY IDOCK:   -9.53 KCAL/MOL
REMARK 923 INTER-LIGAND FREE ENERGY PREDICTED BY IDOCK:   -8.67 KCAL/MOL
REMARK 924 INTRA-LIGAND FREE ENERGY PREDICTED BY IDOCK:   -0.86 KCAL/MOL
REMARK 927      BINDING AFFINITY PREDICTED BY RF-SCORE:    0.00 PKD
ROOT
HETATM    1  C   UNL     1      -5.983  10.924  68.836  1.00  0.00    -0.040 C  
HETATM    2  N   UNL     1      -7.420  10.755  68.570  1.00  0.00    -0.093 N  
HETATM    3  O   UNL     1      -7.682  12.974  68.916  1.00  0.00    -0.045 OA 
HETATM    4  C   UNL     1      -8.178  11.922  68.478  1.00  0.00    -0.126 C  
ENDROOT
BRANCH   2   5
HETATM    5  C   UNL     1      -7.757   9.508  68.006  1.00  0.00    -0.087 A  
HETATM    6  C   UNL     1      -8.615   7.299  67.882  1.00  0.00    -0.120 A  
HETATM    7  C   UNL     1      -7.429   9.335  66.651  1.00  0.00    -0.093 A  
HETATM    8  C   UNL     1      -8.367   8.443  68.694  1.00  0.00    -0.120 A  
HETATM    9  C   UNL     1      -8.378   7.245  66.500  1.00  0.00    -0.121 A  
HETATM   10  N   UNL     1      -7.740   8.261  65.904  1.00  0.00    -0.084 NA 
BRANCH   9  11
HETATM   11  N   UNL     1      -8.811   6.195  65.717  1.00  0.00    -0.150 NA 
HETATM   12  C   UNL     1     -10.018   5.440  66.096  1.00  0.00    -0.132 C  
HETATM   13  C   UNL     1      -7.810   4.105  64.793  1.00  0.00    -0.085 C  
HETATM   14  C   UNL     1      -9.771   3.911  66.155  1.00  0.00    -0.160 C  
HETATM   15  N   UNL     1      -9.046   3.325  65.005  1.00  0.00    -0.138 NA 
HETATM   16  C   UNL     1      -9.874   3.292  63.801  1.00  0.00    -0.154 C  
HETATM   17  C   UNL     1      -8.009   5.631  64.626  1.00  0.00    -0.120 C  
ENDBRANCH   9  11
BRANCH   8  18
HETATM   18  C   UNL     1      -8.897   8.424  70.124  1.00  0.00    -0.141 A  
HETATM   19  C   UNL     1     -10.943   8.174  71.534  1.00  0.00    -0.294 A  
HETATM   20  C   UNL     1     -10.209   8.339  72.690  1.00  0.00    -0.368 A  
HETATM   21  C   UNL     1     -10.302   8.241  70.290  1.00  0.00    -0.211 A  
HETATM   22  C   UNL     1      -8.842   8.543  72.588  1.00  0.00    -0.225 A  
HETATM   23  C   UNL     1      -8.170   8.553  71.334  1.00  0.00    -0.186 A  
HETATM   24  C   UNL     1      -6.684   8.723  71.449  1.00  0.00    -0.081 C  
ENDBRANCH   8  18
ENDBRANCH   2   5
BRANCH   4  25
HETATM   25  C   UNL     1      -9.598  12.024  67.789  1.00  0.00    -0.193 C  
HETATM   26  C   UNL     1     -10.426  10.945  68.535  1.00  0.00    -0.209 C  
HETATM   27  C   UNL     1      -9.777  11.748  66.292  1.00  0.00    -0.242 C  
BRANCH  25  28
HETATM   28  C   UNL     1     -10.174  13.452  68.003  1.00  0.00    -0.243 A  
HETATM   29  C   UNL     1     -11.368  15.059  69.428  1.00  0.00    -0.314 A  
HETATM   30  C   UNL     1     -10.838  13.779  69.199  1.00  0.00    -0.205 A  
HETATM   31  F   UNL     1     -10.908  18.017  66.501  1.00  0.00    -0.310 F  
HETATM   32  C   UNL     1     -12.125  15.366  70.699  1.00  0.00    -0.369 C  
HETATM   33  F   UNL     1     -10.800  16.458  64.990  1.00  0.00    -0.398 F  
HETATM   34  C   UNL     1     -11.199  16.049  68.449  1.00  0.00    -0.364 A  
HETATM   35  F   UNL     1     -11.559  16.379  71.411  1.00  0.00    -0.440 F  
HETATM   36  F   UNL     1     -12.203  14.308  71.555  1.00  0.00    -0.368 F  
HETATM   37  F   UNL     1      -8.993  17.118  66.000  1.00  0.00    -0.281 F  
HETATM   38  C   UNL     1     -10.308  16.831  66.203  1.00  0.00    -0.330 C  
HETATM   39  C   UNL     1     -10.510  15.770  67.260  1.00  0.00    -0.308 A  
HETATM   40  F   UNL     1     -13.410  15.747  70.460  1.00  0.00    -0.467 F  
HETATM   41  C   UNL     1     -10.000  14.475  67.053  1.00  0.00    -0.255 A  
ENDBRANCH  25  28
ENDBRANCH   4  25
TORSDOF 5
ENDMDL
MODEL       51
REMARK 921   NORMALIZED FREE ENERGY PREDICTED BY IDOCK:   -6.06 KCAL/MOL
REMARK 922        TOTAL FREE ENERGY PREDICTED BY IDOCK:   -9.48 KCAL/MOL
REMARK 923 INTER-LIGAND FREE ENERGY PREDICTED BY IDOCK:  -10.02 KCAL/MOL
REMARK 924 INTRA-LIGAND FREE ENERGY PREDICTED BY IDOCK:    0.54 KCAL/MOL
REMARK 927      BINDING AFFINITY PREDICTED BY RF-SCORE:    0.00 PKD
ROOT
HETATM    1  C   UNL     1     -12.780  13.806  66.123  1.00  0.00    -0.283 C  
HETATM    2  N   UNL     1     -11.675  13.427  67.019  1.00  0.00    -0.359 N  
HETATM    3  O   UNL     1     -11.826  11.321  66.211  1.00  0.00    -0.142 OA 
HETATM    4  C   UNL     1     -11.154  12.144  66.856  1.00  0.00    -0.297 C  
ENDROOT
BRANCH   2   5
HETATM    5  C   UNL     1     -11.000  14.522  67.594  1.00  0.00    -0.288 A  
HETATM    6  C   UNL     1     -10.311  16.065  69.261  1.00  0.00    -0.251 A  
HETATM    7  C   UNL     1     -10.165  15.254  66.734  1.00  0.00    -0.272 A  
HETATM    8  C   UNL     1     -11.117  14.936  68.934  1.00  0.00    -0.267 A  
HETATM    9  C   UNL     1      -9.400  16.666  68.379  1.00  0.00    -0.224 A  
HETATM   10  N   UNL     1      -9.370  16.275  67.099  1.00  0.00    -0.219 NA 
BRANCH   9  11
HETATM   11  N   UNL     1      -8.498  17.626  68.791  1.00  0.00    -0.255 NA 
HETATM   12  C   UNL     1      -8.825  19.056  68.646  1.00  0.00    -0.352 C  
HETATM   13  C   UNL     1      -6.097  18.146  68.358  1.00  0.00    -0.188 C  
HETATM   14  C   UNL     1      -7.719  19.848  67.903  1.00  0.00    -0.294 C  
HETATM   15  N   UNL     1      -6.331  19.604  68.355  1.00  0.00    -0.246 NA 
HETATM   16  C   UNL     1      -6.075  20.193  69.667  1.00  0.00    -0.354 C  
HETATM   17  C   UNL     1      -7.117  17.312  69.171  1.00  0.00    -0.204 C  
ENDBRANCH   9  11
BRANCH   8  18
HETATM   18  C   UNL     1     -11.877  14.257  70.068  1.00  0.00    -0.378 A  
HETATM   19  C   UNL     1     -12.813  12.088  70.879  1.00  0.00    -0.205 A  
HETATM   20  C   UNL     1     -13.288  12.683  72.028  1.00  0.00    -0.555 A  
HETATM   21  C   UNL     1     -12.150  12.864  69.920  1.00  0.00    -0.335 A  
HETATM   22  C   UNL     1     -13.071  14.039  72.216  1.00  0.00    -0.516 A  
HETATM   23  C   UNL     1     -12.347  14.826  71.278  1.00  0.00    -0.390 A  
HETATM   24  C   UNL     1     -12.169  16.254  71.701  1.00  0.00    -0.264 C  
ENDBRANCH   8  18
ENDBRANCH   2   5
BRANCH   4  25
HETATM   25  C   UNL     1      -9.734  11.674  67.371  1.00  0.00    -0.186 C  
HETATM   26  C   UNL     1      -9.965  11.467  68.891  1.00  0.00    -0.117 C  
HETATM   27  C   UNL     1      -8.502  12.577  67.239  1.00  0.00    -0.185 C  
BRANCH  25  28
HETATM   28  C   UNL     1      -9.337  10.351  66.657  1.00  0.00    -0.185 A  
HETATM   29  C   UNL     1      -7.951   9.173  65.005  1.00  0.00    -0.120 A  
HETATM   30  C   UNL     1      -8.337  10.349  65.667  1.00  0.00    -0.163 A  
HETATM   31  F   UNL     1      -9.773   5.549  66.041  1.00  0.00    -0.168 F  
HETATM   32  C   UNL     1      -6.915   9.210  63.907  1.00  0.00    -0.089 C  
HETATM   33  F   UNL     1     -11.535   6.654  66.673  1.00  0.00    -0.410 F  
HETATM   34  C   UNL     1      -8.556   7.961  65.366  1.00  0.00    -0.118 A  
HETATM   35  F   UNL     1      -5.838   8.424  64.180  1.00  0.00    -0.060 F  
HETATM   36  F   UNL     1      -6.414  10.456  63.671  1.00  0.00    -0.138 F  
HETATM   37  F   UNL     1      -9.919   6.291  68.079  1.00  0.00    -0.125 F  
HETATM   38  C   UNL     1     -10.179   6.617  66.783  1.00  0.00    -0.195 C  
HETATM   39  C   UNL     1      -9.530   7.918  66.374  1.00  0.00    -0.258 A  
HETATM   40  F   UNL     1      -7.404   8.774  62.714  1.00  0.00    -0.097 F  
HETATM   41  C   UNL     1      -9.905   9.115  67.012  1.00  0.00    -0.267 A  
ENDBRANCH  25  28
ENDBRANCH   4  25
TORSDOF 5
ENDMDL
MODEL       52
REMARK 921   NORMALIZED FREE ENERGY PREDICTED BY IDOCK:   -6.06 KCAL/MOL
REMARK 922        TOTAL FREE ENERGY PREDICTED BY IDOCK:   -9.48 KCAL/MOL
REMARK 923 INTER-LIGAND FREE ENERGY PREDICTED BY IDOCK:   -7.47 KCAL/MOL
REMARK 924 INTRA-LIGAND FREE ENERGY PREDICTED BY IDOCK:   -2.01 KCAL/MOL
REMARK 927      BINDING AFFINITY PREDICTED BY RF-SCORE:    0.00 PKD
ROOT
HETATM    1  C   UNL     1      -6.878  10.964  66.146  1.00  0.00    -0.100 C  
HETATM    2  N   UNL     1      -6.868   9.862  67.122  1.00  0.00    -0.082 N  
HETATM    3  O   UNL     1      -6.172  11.340  68.687  1.00  0.00    -0.043 OA 
HETATM    4  C   UNL     1      -6.643  10.213  68.453  1.00  0.00    -0.053 C  
ENDROOT
BRANCH   2   5
HETATM    5  C   UNL     1      -7.519   8.695  66.678  1.00  0.00    -0.089 A  
HETATM    6  C   UNL     1      -9.192   7.346  65.670  1.00  0.00     0.157 A  
HETATM    7  C   UNL     1      -6.857   7.483  66.933  1.00  0.00    -0.070 A  
HETATM    8  C   UNL     1      -8.767   8.658  66.029  1.00  0.00    -0.196 A  
HETATM    9  C   UNL     1      -8.414   6.190  65.841  1.00  0.00    -0.145 A  
HETATM   10  N   UNL     1      -7.261   6.269  66.519  1.00  0.00    -0.072 NA 
BRANCH   9  11
HETATM   11  N   UNL     1      -8.775   4.971  65.304  1.00  0.00    -0.145 NA 
HETATM   12  C   UNL     1      -8.036   4.424  64.152  1.00  0.00    -0.095 C  
HETATM   13  C   UNL     1     -10.871   3.936  64.434  1.00  0.00    -0.127 C  
HETATM   14  C   UNL     1      -8.970   4.026  62.981  1.00  0.00    -0.112 C  
HETATM   15  N   UNL     1     -10.166   3.233  63.344  1.00  0.00    -0.171 NA 
HETATM   16  C   UNL     1      -9.817   1.866  63.724  1.00  0.00    -0.130 C  
HETATM   17  C   UNL     1     -10.009   4.271  65.676  1.00  0.00    -0.224 C  
ENDBRANCH   9  11
BRANCH   8  18
HETATM   18  C   UNL     1      -9.623   9.830  65.564  1.00  0.00    -0.348 A  
HETATM   19  C   UNL     1     -11.173  11.641  66.309  1.00  0.00    -0.332 A  
HETATM   20  C   UNL     1     -11.330  12.088  65.014  1.00  0.00    -0.365 A  
HETATM   21  C   UNL     1     -10.362  10.529  66.565  1.00  0.00    -0.294 A  
HETATM   22  C   UNL     1     -10.653  11.433  63.997  1.00  0.00    -0.444 A  
HETATM   23  C   UNL     1      -9.780  10.340  64.250  1.00  0.00    -0.373 A  
HETATM   24  C   UNL     1      -9.097   9.817  63.022  1.00  0.00    -0.271 C  
ENDBRANCH   8  18
ENDBRANCH   2   5
BRANCH   4  25
HETATM   25  C   UNL     1      -7.008   9.310  69.699  1.00  0.00    -0.056 C  
HETATM   26  C   UNL     1      -6.427  10.112  70.894  1.00  0.00     0.033 C  
HETATM   27  C   UNL     1      -6.467   7.882  69.832  1.00  0.00    -0.037 C  
BRANCH  25  28
HETATM   28  C   UNL     1      -8.553   9.161  69.795  1.00  0.00    -0.144 A  
HETATM   29  C   UNL     1     -10.775  10.204  69.900  1.00  0.00    -0.340 A  
HETATM   30  C   UNL     1      -9.377  10.301  69.818  1.00  0.00    -0.116 A  
HETATM   31  F   UNL     1     -12.561   6.419  70.012  1.00  0.00    -0.155 F  
HETATM   32  C   UNL     1     -11.632  11.446  69.980  1.00  0.00    -0.299 C  
HETATM   33  F   UNL     1     -10.739   5.622  70.890  1.00  0.00    -0.286 F  
HETATM   34  C   UNL     1     -11.368   8.934  69.924  1.00  0.00     0.006 A  
HETATM   35  F   UNL     1     -12.527  11.528  68.958  1.00  0.00    -0.315 F  
HETATM   36  F   UNL     1     -10.916  12.605  69.942  1.00  0.00    -0.071 F  
HETATM   37  F   UNL     1     -10.957   5.707  68.729  1.00  0.00    -0.321 F  
HETATM   38  C   UNL     1     -11.206   6.400  69.875  1.00  0.00    -0.420 C  
HETATM   39  C   UNL     1     -10.581   7.775  69.864  1.00  0.00    -0.239 A  
HETATM   40  F   UNL     1     -12.366  11.499  71.126  1.00  0.00    -0.437 F  
HETATM   41  C   UNL     1      -9.181   7.903  69.794  1.00  0.00    -0.150 A  
ENDBRANCH  25  28
ENDBRANCH   4  25
TORSDOF 5
ENDMDL
MODEL       53
REMARK 921   NORMALIZED FREE ENERGY PREDICTED BY IDOCK:   -6.02 KCAL/MOL
REMARK 922        TOTAL FREE ENERGY PREDICTED BY IDOCK:   -9.42 KCAL/MOL
REMARK 923 INTER-LIGAND FREE ENERGY PREDICTED BY IDOCK:   -7.37 KCAL/MOL
REMARK 924 INTRA-LIGAND FREE ENERGY PREDICTED BY IDOCK:   -2.05 KCAL/MOL
REMARK 927      BINDING AFFINITY PREDICTED BY RF-SCORE:    0.00 PKD
ROOT
HETATM    1  C   UNL     1      -6.317  10.604  70.509  1.00  0.00    -0.074 C  
HETATM    2  N   UNL     1      -6.185  10.828  69.060  1.00  0.00    -0.041 N  
HETATM    3  O   UNL     1      -5.250   8.776  68.892  1.00  0.00    -0.032 OA 
HETATM    4  C   UNL     1      -5.767   9.737  68.298  1.00  0.00    -0.043 C  
ENDROOT
BRANCH   2   5
HETATM    5  C   UNL     1      -6.912  11.936  68.582  1.00  0.00    -0.095 A  
HETATM    6  C   UNL     1      -8.794  13.281  68.051  1.00  0.00    -0.190 A  
HETATM    7  C   UNL     1      -6.151  12.993  68.057  1.00  0.00    -0.112 A  
HETATM    8  C   UNL     1      -8.315  12.046  68.576  1.00  0.00    -0.104 A  
HETATM    9  C   UNL     1      -7.968  14.347  67.664  1.00  0.00    -0.179 A  
HETATM   10  N   UNL     1      -6.641  14.171  67.630  1.00  0.00    -0.218 NA 
BRANCH   9  11
HETATM   11  N   UNL     1      -8.470  15.593  67.348  1.00  0.00    -0.162 NA 
HETATM   12  C   UNL     1      -9.041  16.449  68.403  1.00  0.00    -0.214 C  
HETATM   13  C   UNL     1     -10.133  16.506  65.728  1.00  0.00    -0.303 C  
HETATM   14  C   UNL     1     -10.465  16.952  68.057  1.00  0.00    -0.347 C  
HETATM   15  N   UNL     1     -10.648  17.497  66.693  1.00  0.00    -0.254 NA 
HETATM   16  C   UNL     1      -9.994  18.794  66.534  1.00  0.00    -0.380 C  
HETATM   17  C   UNL     1      -8.676  16.042  65.966  1.00  0.00    -0.232 C  
ENDBRANCH   9  11
BRANCH   8  18
HETATM   18  C   UNL     1      -9.339  11.085  69.169  1.00  0.00    -0.039 A  
HETATM   19  C   UNL     1      -9.637   9.037  70.567  1.00  0.00    -0.264 A  
HETATM   20  C   UNL     1     -11.008   9.096  70.424  1.00  0.00    -0.290 A  
HETATM   21  C   UNL     1      -8.832   9.992  69.934  1.00  0.00    -0.177 A  
HETATM   22  C   UNL     1     -11.555  10.124  69.673  1.00  0.00    -0.216 A  
HETATM   23  C   UNL     1     -10.753  11.135  69.075  1.00  0.00    -0.265 A  
HETATM   24  C   UNL     1     -11.545  12.190  68.361  1.00  0.00    -0.381 C  
ENDBRANCH   8  18
ENDBRANCH   2   5
BRANCH   4  25
HETATM   25  C   UNL     1      -5.967   9.599  66.735  1.00  0.00    -0.059 C  
HETATM   26  C   UNL     1      -5.200   8.292  66.400  1.00  0.00    -0.028 C  
HETATM   27  C   UNL     1      -5.442  10.667  65.769  1.00  0.00    -0.121 C  
BRANCH  25  28
HETATM   28  C   UNL     1      -7.484   9.482  66.415  1.00  0.00    -0.097 A  
HETATM   29  C   UNL     1      -9.610   8.276  66.662  1.00  0.00    -0.299 A  
HETATM   30  C   UNL     1      -8.238   8.411  66.928  1.00  0.00    -0.103 A  
HETATM   31  F   UNL     1     -11.539  11.174  64.336  1.00  0.00    -0.243 F  
HETATM   32  C   UNL     1     -10.383   7.086  67.179  1.00  0.00    -0.281 C  
HETATM   33  F   UNL     1      -9.644  11.603  63.360  1.00  0.00    -0.281 F  
HETATM   34  C   UNL     1     -10.253   9.257  65.894  1.00  0.00    -0.054 A  
HETATM   35  F   UNL     1     -11.419   7.447  67.985  1.00  0.00     0.071 F  
HETATM   36  F   UNL     1      -9.626   6.221  67.913  1.00  0.00    -0.121 F  
HETATM   37  F   UNL     1     -10.187  12.649  65.186  1.00  0.00    -0.279 F  
HETATM   38  C   UNL     1     -10.224  11.430  64.580  1.00  0.00    -0.299 C  
HETATM   39  C   UNL     1      -9.541  10.358  65.397  1.00  0.00    -0.303 A  
HETATM   40  F   UNL     1     -10.929   6.344  66.177  1.00  0.00    -0.102 F  
HETATM   41  C   UNL     1      -8.164  10.461  65.670  1.00  0.00    -0.158 A  
ENDBRANCH  25  28
ENDBRANCH   4  25
TORSDOF 5
ENDMDL
MODEL       54
REMARK 921   NORMALIZED FREE ENERGY PREDICTED BY IDOCK:   -6.02 KCAL/MOL
REMARK 922        TOTAL FREE ENERGY PREDICTED BY IDOCK:   -9.42 KCAL/MOL
REMARK 923 INTER-LIGAND FREE ENERGY PREDICTED BY IDOCK:   -9.05 KCAL/MOL
REMARK 924 INTRA-LIGAND FREE ENERGY PREDICTED BY IDOCK:   -0.37 KCAL/MOL
REMARK 927      BINDING AFFINITY PREDICTED BY RF-SCORE:    0.00 PKD
ROOT
HETATM    1  C   UNL     1      -6.992   8.745  69.878  1.00  0.00    -0.046 C  
HETATM    2  N   UNL     1      -7.769   8.935  68.642  1.00  0.00    -0.096 N  
HETATM    3  O   UNL     1      -7.680   6.698  68.318  1.00  0.00    -0.102 OA 
HETATM    4  C   UNL     1      -8.210   7.777  68.001  1.00  0.00    -0.123 C  
ENDROOT
BRANCH   2   5
HETATM    5  C   UNL     1      -8.343  10.215  68.515  1.00  0.00    -0.116 A  
HETATM    6  C   UNL     1      -9.847  12.010  68.901  1.00  0.00     0.039 A  
HETATM    7  C   UNL     1      -7.715  11.086  67.610  1.00  0.00    -0.112 A  
HETATM    8  C   UNL     1      -9.487  10.664  69.201  1.00  0.00    -0.185 A  
HETATM    9  C   UNL     1      -9.093  12.865  68.083  1.00  0.00    -0.207 A  
HETATM   10  N   UNL     1      -8.049  12.373  67.405  1.00  0.00    -0.169 NA 
BRANCH   9  11
HETATM   11  N   UNL     1      -9.366  14.214  67.975  1.00  0.00    -0.196 NA 
HETATM   12  C   UNL     1     -10.684  14.736  68.379  1.00  0.00    -0.243 C  
HETATM   13  C   UNL     1      -9.252  15.936  66.174  1.00  0.00    -0.349 C  
HETATM   14  C   UNL     1     -11.352  15.589  67.271  1.00  0.00    -0.167 C  
HETATM   15  N   UNL     1     -10.490  16.603  66.623  1.00  0.00    -0.287 NA 
HETATM   16  C   UNL     1     -10.204  17.723  67.516  1.00  0.00    -0.356 C  
HETATM   17  C   UNL     1      -8.487  15.150  67.266  1.00  0.00    -0.198 C  
ENDBRANCH   9  11
BRANCH   8  18
HETATM   18  C   UNL     1     -10.276   9.946  70.289  1.00  0.00    -0.322 A  
HETATM   19  C   UNL     1     -10.115   8.357  72.209  1.00  0.00    -0.382 A  
HETATM   20  C   UNL     1     -11.472   8.444  72.441  1.00  0.00    -0.451 A  
HETATM   21  C   UNL     1      -9.546   9.071  71.147  1.00  0.00    -0.356 A  
HETATM   22  C   UNL     1     -12.236   9.263  71.624  1.00  0.00    -0.445 A  
HETATM   23  C   UNL     1     -11.661  10.038  70.580  1.00  0.00    -0.400 A  
HETATM   24  C   UNL     1     -12.650  10.905  69.858  1.00  0.00    -0.211 C  
ENDBRANCH   8  18
ENDBRANCH   2   5
BRANCH   4  25
HETATM   25  C   UNL     1      -9.388   7.722  66.947  1.00  0.00    -0.212 C  
HETATM   26  C   UNL     1     -10.646   7.986  67.815  1.00  0.00    -0.239 C  
HETATM   27  C   UNL     1      -9.677   6.449  66.144  1.00  0.00    -0.004 C  
BRANCH  25  28
HETATM   28  C   UNL     1      -9.177   8.829  65.876  1.00  0.00    -0.282 A  
HETATM   29  C   UNL     1      -9.958  10.882  64.775  1.00  0.00    -0.366 A  
HETATM   30  C   UNL     1     -10.118   9.864  65.728  1.00  0.00    -0.317 A  
HETATM   31  F   UNL     1      -6.551  10.889  62.341  1.00  0.00    -0.146 F  
HETATM   32  C   UNL     1     -11.013  11.949  64.600  1.00  0.00    -0.316 C  
HETATM   33  F   UNL     1      -6.421   8.732  62.575  1.00  0.00    -0.094 F  
HETATM   34  C   UNL     1      -8.808  10.886  63.972  1.00  0.00    -0.055 A  
HETATM   35  F   UNL     1     -10.525  13.203  64.805  1.00  0.00    -0.300 F  
HETATM   36  F   UNL     1     -12.068  11.817  65.453  1.00  0.00    -0.308 F  
HETATM   37  F   UNL     1      -5.448  10.040  64.011  1.00  0.00    -0.072 F  
HETATM   38  C   UNL     1      -6.580   9.892  63.269  1.00  0.00    -0.125 C  
HETATM   39  C   UNL     1      -7.830   9.892  64.117  1.00  0.00    -0.142 A  
HETATM   40  F   UNL     1     -11.545  11.955  63.347  1.00  0.00    -0.467 F  
HETATM   41  C   UNL     1      -8.023   8.878  65.073  1.00  0.00    -0.125 A  
ENDBRANCH  25  28
ENDBRANCH   4  25
TORSDOF 5
ENDMDL
MODEL       55
REMARK 921   NORMALIZED FREE ENERGY PREDICTED BY IDOCK:   -5.97 KCAL/MOL
REMARK 922        TOTAL FREE ENERGY PREDICTED BY IDOCK:   -9.36 KCAL/MOL
REMARK 923 INTER-LIGAND FREE ENERGY PREDICTED BY IDOCK:   -7.41 KCAL/MOL
REMARK 924 INTRA-LIGAND FREE ENERGY PREDICTED BY IDOCK:   -1.95 KCAL/MOL
REMARK 927      BINDING AFFINITY PREDICTED BY RF-SCORE:    0.00 PKD
ROOT
HETATM    1  C   UNL     1     -10.868   5.599  69.392  1.00  0.00    -0.264 C  
HETATM    2  N   UNL     1      -9.645   6.396  69.203  1.00  0.00    -0.136 N  
HETATM    3  O   UNL     1      -8.539   4.477  68.751  1.00  0.00    -0.084 OA 
HETATM    4  C   UNL     1      -8.531   5.719  68.708  1.00  0.00    -0.107 C  
ENDROOT
BRANCH   2   5
HETATM    5  C   UNL     1      -9.872   7.784  69.110  1.00  0.00    -0.173 A  
HETATM    6  C   UNL     1      -9.925  10.063  69.771  1.00  0.00    -0.276 A  
HETATM    7  C   UNL     1     -10.410   8.242  67.896  1.00  0.00    -0.219 A  
HETATM    8  C   UNL     1      -9.622   8.718  70.132  1.00  0.00    -0.187 A  
HETATM    9  C   UNL     1     -10.338  10.462  68.491  1.00  0.00    -0.176 A  
HETATM   10  N   UNL     1     -10.621   9.530  67.572  1.00  0.00    -0.275 NA 
BRANCH   9  11
HETATM   11  N   UNL     1     -10.431  11.790  68.126  1.00  0.00    -0.194 NA 
HETATM   12  C   UNL     1     -11.747  12.451  68.071  1.00  0.00    -0.356 C  
HETATM   13  C   UNL     1      -9.666  13.187  66.206  1.00  0.00    -0.265 C  
HETATM   14  C   UNL     1     -12.006  13.153  66.714  1.00  0.00    -0.373 C  
HETATM   15  N   UNL     1     -10.903  13.993  66.197  1.00  0.00    -0.289 NA 
HETATM   16  C   UNL     1     -10.749  15.224  66.970  1.00  0.00    -0.313 C  
HETATM   17  C   UNL     1      -9.303  12.543  67.566  1.00  0.00    -0.187 C  
ENDBRANCH   9  11
BRANCH   8  18
HETATM   18  C   UNL     1      -8.962   8.481  71.485  1.00  0.00    -0.276 A  
HETATM   19  C   UNL     1      -6.801   8.547  72.736  1.00  0.00    -0.065 A  
HETATM   20  C   UNL     1      -7.417   8.122  73.894  1.00  0.00    -0.218 A  
HETATM   21  C   UNL     1      -7.553   8.695  71.564  1.00  0.00    -0.134 A  
HETATM   22  C   UNL     1      -8.781   7.877  73.871  1.00  0.00    -0.332 A  
HETATM   23  C   UNL     1      -9.567   8.081  72.704  1.00  0.00    -0.327 A  
HETATM   24  C   UNL     1     -11.030   7.821  72.909  1.00  0.00    -0.467 C  
ENDBRANCH   8  18
ENDBRANCH   2   5
BRANCH   4  25
HETATM   25  C   UNL     1      -7.282   6.411  68.027  1.00  0.00    -0.087 C  
HETATM   26  C   UNL     1      -6.123   5.432  68.349  1.00  0.00    -0.026 C  
HETATM   27  C   UNL     1      -6.808   7.801  68.464  1.00  0.00    -0.066 C  
BRANCH  25  28
HETATM   28  C   UNL     1      -7.531   6.536  66.498  1.00  0.00    -0.086 A  
HETATM   29  C   UNL     1      -7.772   5.465  64.299  1.00  0.00    -0.086 A  
HETATM   30  C   UNL     1      -7.547   5.390  65.683  1.00  0.00    -0.082 A  
HETATM   31  F   UNL     1      -8.482   9.199  62.543  1.00  0.00    -0.156 F  
HETATM   32  C   UNL     1      -7.728   4.223  63.441  1.00  0.00    -0.066 C  
HETATM   33  F   UNL     1      -7.341  10.130  64.142  1.00  0.00    -0.128 F  
HETATM   34  C   UNL     1      -8.022   6.717  63.719  1.00  0.00    -0.065 A  
HETATM   35  F   UNL     1      -8.899   4.004  62.781  1.00  0.00    -0.088 F  
HETATM   36  F   UNL     1      -7.479   3.083  64.145  1.00  0.00    -0.061 F  
HETATM   37  F   UNL     1      -9.474   9.793  64.384  1.00  0.00    -0.303 F  
HETATM   38  C   UNL     1      -8.334   9.231  63.897  1.00  0.00    -0.179 C  
HETATM   39  C   UNL     1      -8.051   7.878  64.506  1.00  0.00    -0.114 A  
HETATM   40  F   UNL     1      -6.764   4.287  62.482  1.00  0.00    -0.027 F  
HETATM   41  C   UNL     1      -7.811   7.773  65.888  1.00  0.00    -0.102 A  
ENDBRANCH  25  28
ENDBRANCH   4  25
TORSDOF 5
ENDMDL
MODEL       56
REMARK 921   NORMALIZED FREE ENERGY PREDICTED BY IDOCK:   -5.93 KCAL/MOL
REMARK 922        TOTAL FREE ENERGY PREDICTED BY IDOCK:   -9.31 KCAL/MOL
REMARK 923 INTER-LIGAND FREE ENERGY PREDICTED BY IDOCK:   -8.26 KCAL/MOL
REMARK 924 INTRA-LIGAND FREE ENERGY PREDICTED BY IDOCK:   -1.04 KCAL/MOL
REMARK 927      BINDING AFFINITY PREDICTED BY RF-SCORE:    0.00 PKD
ROOT
HETATM    1  C   UNL     1      -6.538   9.524  67.568  1.00  0.00    -0.063 C  
HETATM    2  N   UNL     1      -7.933   9.099  67.369  1.00  0.00    -0.103 N  
HETATM    3  O   UNL     1      -7.172   7.009  66.961  1.00  0.00    -0.076 OA 
HETATM    4  C   UNL     1      -8.151   7.730  67.221  1.00  0.00    -0.119 C  
ENDROOT
BRANCH   2   5
HETATM    5  C   UNL     1      -8.887  10.043  67.798  1.00  0.00    -0.125 A  
HETATM    6  C   UNL     1     -10.552  11.727  67.645  1.00  0.00    -0.237 A  
HETATM    7  C   UNL     1      -9.063  10.156  69.187  1.00  0.00    -0.183 A  
HETATM    8  C   UNL     1      -9.645  10.873  66.952  1.00  0.00    -0.203 A  
HETATM    9  C   UNL     1     -10.767  11.692  69.031  1.00  0.00    -0.179 A  
HETATM   10  N   UNL     1      -9.978  10.928  69.799  1.00  0.00     0.130 NA 
BRANCH   9  11
HETATM   11  N   UNL     1     -11.790  12.391  69.638  1.00  0.00    -0.319 NA 
HETATM   12  C   UNL     1     -11.724  13.860  69.738  1.00  0.00    -0.309 C  
HETATM   13  C   UNL     1     -12.972  12.309  71.833  1.00  0.00    -0.305 C  
HETATM   14  C   UNL     1     -11.936  14.369  71.186  1.00  0.00    -0.316 C  
HETATM   15  N   UNL     1     -13.077  13.779  71.922  1.00  0.00    -0.370 NA 
HETATM   16  C   UNL     1     -14.359  14.259  71.410  1.00  0.00    -0.181 C  
HETATM   17  C   UNL     1     -12.860  11.737  70.400  1.00  0.00     0.141 C  
ENDBRANCH   9  11
BRANCH   8  18
HETATM   18  C   UNL     1      -9.700  10.870  65.429  1.00  0.00    -0.287 A  
HETATM   19  C   UNL     1      -8.637   9.971  63.356  1.00  0.00    -0.204 A  
HETATM   20  C   UNL     1      -9.532  10.653  62.559  1.00  0.00    -0.289 A  
HETATM   21  C   UNL     1      -8.710  10.101  64.748  1.00  0.00    -0.202 A  
HETATM   22  C   UNL     1     -10.503  11.434  63.165  1.00  0.00    -0.323 A  
HETATM   23  C   UNL     1     -10.626  11.527  64.579  1.00  0.00    -0.387 A  
HETATM   24  C   UNL     1     -11.781  12.371  65.030  1.00  0.00    -0.420 C  
ENDBRANCH   8  18
ENDBRANCH   2   5
BRANCH   4  25
HETATM   25  C   UNL     1      -9.543   7.010  67.430  1.00  0.00    -0.164 C  
HETATM   26  C   UNL     1      -9.403   5.724  66.573  1.00  0.00    -0.162 C  
HETATM   27  C   UNL     1     -10.855   7.675  66.999  1.00  0.00    -0.219 C  
BRANCH  25  28
HETATM   28  C   UNL     1      -9.736   6.686  68.938  1.00  0.00    -0.136 A  
HETATM   29  C   UNL     1     -11.117   6.807  70.967  1.00  0.00    -0.317 A  
HETATM   30  C   UNL     1     -10.908   7.085  69.607  1.00  0.00    -0.275 A  
HETATM   31  F   UNL     1      -8.210   4.668  73.089  1.00  0.00    -0.096 F  
HETATM   32  C   UNL     1     -12.359   7.297  71.674  1.00  0.00    -0.352 C  
HETATM   33  F   UNL     1      -6.704   5.413  71.710  1.00  0.00    -0.050 F  
HETATM   34  C   UNL     1     -10.146   6.079  71.669  1.00  0.00    -0.227 A  
HETATM   35  F   UNL     1     -13.092   6.280  72.205  1.00  0.00    -0.330 F  
HETATM   36  F   UNL     1     -13.212   7.984  70.862  1.00  0.00    -0.160 F  
HETATM   37  F   UNL     1      -7.780   3.580  71.257  1.00  0.00    -0.050 F  
HETATM   38  C   UNL     1      -7.934   4.834  71.766  1.00  0.00    -0.100 C  
HETATM   39  C   UNL     1      -8.983   5.631  71.026  1.00  0.00    -0.151 A  
HETATM   40  F   UNL     1     -12.074   8.133  72.708  1.00  0.00    -0.414 F  
HETATM   41  C   UNL     1      -8.794   5.935  69.665  1.00  0.00    -0.131 A  
ENDBRANCH  25  28
ENDBRANCH   4  25
TORSDOF 5
ENDMDL
MODEL       57
REMARK 921   NORMALIZED FREE ENERGY PREDICTED BY IDOCK:   -5.92 KCAL/MOL
REMARK 922        TOTAL FREE ENERGY PREDICTED BY IDOCK:   -9.29 KCAL/MOL
REMARK 923 INTER-LIGAND FREE ENERGY PREDICTED BY IDOCK:   -7.28 KCAL/MOL
REMARK 924 INTRA-LIGAND FREE ENERGY PREDICTED BY IDOCK:   -2.00 KCAL/MOL
REMARK 927      BINDING AFFINITY PREDICTED BY RF-SCORE:    0.00 PKD
ROOT
HETATM    1  C   UNL     1     -10.734   5.351  69.440  1.00  0.00    -0.156 C  
HETATM    2  N   UNL     1      -9.538   6.155  69.142  1.00  0.00    -0.134 N  
HETATM    3  O   UNL     1      -8.389   4.228  68.860  1.00  0.00    -0.081 OA 
HETATM    4  C   UNL     1      -8.417   5.460  68.692  1.00  0.00    -0.093 C  
ENDROOT
BRANCH   2   5
HETATM    5  C   UNL     1      -9.806   7.520  68.916  1.00  0.00    -0.159 A  
HETATM    6  C   UNL     1      -9.962   9.845  69.365  1.00  0.00    -0.227 A  
HETATM    7  C   UNL     1     -10.304   7.848  67.644  1.00  0.00    -0.241 A  
HETATM    8  C   UNL     1      -9.631   8.549  69.859  1.00  0.00    -0.171 A  
HETATM    9  C   UNL     1     -10.331  10.114  68.038  1.00  0.00    -0.190 A  
HETATM   10  N   UNL     1     -10.542   9.094  67.196  1.00  0.00    -0.251 NA 
BRANCH   9  11
HETATM   11  N   UNL     1     -10.451  11.399  67.551  1.00  0.00    -0.195 NA 
HETATM   12  C   UNL     1     -10.460  12.544  68.480  1.00  0.00    -0.231 C  
HETATM   13  C   UNL     1     -12.033  12.618  66.056  1.00  0.00    -0.417 C  
HETATM   14  C   UNL     1     -11.678  13.477  68.263  1.00  0.00    -0.359 C  
HETATM   15  N   UNL     1     -11.966  13.854  66.861  1.00  0.00    -0.420 NA 
HETATM   16  C   UNL     1     -10.973  14.787  66.334  1.00  0.00    -0.331 C  
HETATM   17  C   UNL     1     -10.795  11.693  66.156  1.00  0.00    -0.294 C  
ENDBRANCH   9  11
BRANCH   8  18
HETATM   18  C   UNL     1      -9.023   8.457  71.253  1.00  0.00    -0.224 A  
HETATM   19  C   UNL     1      -6.899   8.579  72.560  1.00  0.00    -0.077 A  
HETATM   20  C   UNL     1      -7.570   8.339  73.741  1.00  0.00    -0.203 A  
HETATM   21  C   UNL     1      -7.608   8.611  71.353  1.00  0.00    -0.136 A  
HETATM   22  C   UNL     1      -8.944   8.160  73.702  1.00  0.00    -0.275 A  
HETATM   23  C   UNL     1      -9.684   8.249  72.491  1.00  0.00    -0.368 A  
HETATM   24  C   UNL     1     -11.164   8.090  72.676  1.00  0.00    -0.462 C  
ENDBRANCH   8  18
ENDBRANCH   2   5
BRANCH   4  25
HETATM   25  C   UNL     1      -7.203   6.111  67.914  1.00  0.00    -0.083 C  
HETATM   26  C   UNL     1      -6.030   5.145  68.229  1.00  0.00    -0.025 C  
HETATM   27  C   UNL     1      -6.705   7.520  68.254  1.00  0.00    -0.058 C  
BRANCH  25  28
HETATM   28  C   UNL     1      -7.527   6.158  66.395  1.00  0.00    -0.086 A  
HETATM   29  C   UNL     1      -7.368   7.315  64.233  1.00  0.00    -0.086 A  
HETATM   30  C   UNL     1      -7.097   7.242  65.608  1.00  0.00    -0.065 A  
HETATM   31  F   UNL     1      -9.461   4.192  62.392  1.00  0.00    -0.101 F  
HETATM   32  C   UNL     1      -6.943   8.519  63.425  1.00  0.00    -0.089 C  
HETATM   33  F   UNL     1     -10.406   3.746  64.298  1.00  0.00    -0.187 F  
HETATM   34  C   UNL     1      -8.058   6.260  63.620  1.00  0.00    -0.048 A  
HETATM   35  F   UNL     1      -6.110   8.189  62.400  1.00  0.00    -0.080 F  
HETATM   36  F   UNL     1      -6.279   9.459  64.156  1.00  0.00    -0.082 F  
HETATM   37  F   UNL     1      -8.504   2.827  63.787  1.00  0.00    -0.084 F  
HETATM   38  C   UNL     1      -9.202   3.994  63.714  1.00  0.00    -0.138 C  
HETATM   39  C   UNL     1      -8.470   5.145  64.364  1.00  0.00    -0.138 A  
HETATM   40  F   UNL     1      -7.998   9.164  62.858  1.00  0.00    -0.120 F  
HETATM   41  C   UNL     1      -8.194   5.104  65.743  1.00  0.00    -0.117 A  
ENDBRANCH  25  28
ENDBRANCH   4  25
TORSDOF 5
ENDMDL
MODEL       58
REMARK 921   NORMALIZED FREE ENERGY PREDICTED BY IDOCK:   -5.90 KCAL/MOL
REMARK 922        TOTAL FREE ENERGY PREDICTED BY IDOCK:   -9.26 KCAL/MOL
REMARK 923 INTER-LIGAND FREE ENERGY PREDICTED BY IDOCK:   -8.27 KCAL/MOL
REMARK 924 INTRA-LIGAND FREE ENERGY PREDICTED BY IDOCK:   -0.99 KCAL/MOL
REMARK 927      BINDING AFFINITY PREDICTED BY RF-SCORE:    0.00 PKD
ROOT
HETATM    1  C   UNL     1      -8.809   8.588  72.193  1.00  0.00    -0.216 C  
HETATM    2  N   UNL     1      -7.961   8.873  71.025  1.00  0.00    -0.141 N  
HETATM    3  O   UNL     1      -6.657   7.126  71.624  1.00  0.00    -0.047 OA 
HETATM    4  C   UNL     1      -6.964   7.942  70.738  1.00  0.00    -0.045 C  
ENDROOT
BRANCH   2   5
HETATM    5  C   UNL     1      -8.533   9.775  70.106  1.00  0.00    -0.174 A  
HETATM    6  C   UNL     1     -10.212  10.842  68.811  1.00  0.00    -0.207 A  
HETATM    7  C   UNL     1      -7.648  10.678  69.495  1.00  0.00    -0.124 A  
HETATM    8  C   UNL     1      -9.894   9.820  69.752  1.00  0.00    -0.262 A  
HETATM    9  C   UNL     1      -9.295  11.794  68.341  1.00  0.00    -0.185 A  
HETATM   10  N   UNL     1      -8.000  11.672  68.659  1.00  0.00    -0.144 NA 
BRANCH   9  11
HETATM   11  N   UNL     1      -9.683  12.883  67.587  1.00  0.00    -0.207 NA 
HETATM   12  C   UNL     1      -9.005  14.180  67.758  1.00  0.00    -0.187 C  
HETATM   13  C   UNL     1     -11.821  14.079  67.118  1.00  0.00    -0.411 C  
HETATM   14  C   UNL     1      -9.997  15.341  68.020  1.00  0.00    -0.224 C  
HETATM   15  N   UNL     1     -11.173  15.406  67.123  1.00  0.00    -0.300 NA 
HETATM   16  C   UNL     1     -10.805  15.830  65.774  1.00  0.00    -0.280 C  
HETATM   17  C   UNL     1     -10.897  12.889  66.763  1.00  0.00    -0.267 C  
ENDBRANCH   9  11
BRANCH   8  18
HETATM   18  C   UNL     1     -11.049   9.017  70.341  1.00  0.00    -0.279 A  
HETATM   19  C   UNL     1     -11.954   6.718  70.701  1.00  0.00    -0.418 A  
HETATM   20  C   UNL     1     -13.067   7.218  71.342  1.00  0.00    -0.412 A  
HETATM   21  C   UNL     1     -10.990   7.599  70.196  1.00  0.00    -0.255 A  
HETATM   22  C   UNL     1     -13.189   8.591  71.493  1.00  0.00    -0.324 A  
HETATM   23  C   UNL     1     -12.188   9.493  71.038  1.00  0.00    -0.385 A  
HETATM   24  C   UNL     1     -12.482  10.929  71.356  1.00  0.00    -0.460 C  
ENDBRANCH   8  18
ENDBRANCH   2   5
BRANCH   4  25
HETATM   25  C   UNL     1      -6.240   7.796  69.339  1.00  0.00    -0.034 C  
HETATM   26  C   UNL     1      -5.436   6.478  69.498  1.00  0.00    -0.014 C  
HETATM   27  C   UNL     1      -5.245   8.852  68.846  1.00  0.00    -0.037 C  
BRANCH  25  28
HETATM   28  C   UNL     1      -7.306   7.695  68.212  1.00  0.00    -0.099 A  
HETATM   29  C   UNL     1      -9.319   6.625  67.296  1.00  0.00    -0.144 A  
HETATM   30  C   UNL     1      -8.338   6.742  68.293  1.00  0.00    -0.118 A  
HETATM   31  F   UNL     1      -9.224   9.226  64.016  1.00  0.00    -0.246 F  
HETATM   32  C   UNL     1     -10.382   5.555  67.380  1.00  0.00    -0.225 C  
HETATM   33  F   UNL     1      -7.077   9.431  64.284  1.00  0.00    -0.093 F  
HETATM   34  C   UNL     1      -9.289   7.508  66.207  1.00  0.00    -0.176 A  
HETATM   35  F   UNL     1     -11.641   6.072  67.396  1.00  0.00    -0.163 F  
HETATM   36  F   UNL     1     -10.285   4.778  68.496  1.00  0.00    -0.223 F  
HETATM   37  F   UNL     1      -8.434  10.754  65.346  1.00  0.00    -0.164 F  
HETATM   38  C   UNL     1      -8.262   9.462  64.951  1.00  0.00    -0.142 C  
HETATM   39  C   UNL     1      -8.298   8.495  66.112  1.00  0.00    -0.121 A  
HETATM   40  F   UNL     1     -10.343   4.698  66.324  1.00  0.00    -0.228 F  
HETATM   41  C   UNL     1      -7.321   8.581  67.120  1.00  0.00    -0.084 A  
ENDBRANCH  25  28
ENDBRANCH   4  25
TORSDOF 5
ENDMDL
MODEL       59
REMARK 921   NORMALIZED FREE ENERGY PREDICTED BY IDOCK:   -5.88 KCAL/MOL
REMARK 922        TOTAL FREE ENERGY PREDICTED BY IDOCK:   -9.24 KCAL/MOL
REMARK 923 INTER-LIGAND FREE ENERGY PREDICTED BY IDOCK:   -9.50 KCAL/MOL
REMARK 924 INTRA-LIGAND FREE ENERGY PREDICTED BY IDOCK:    0.26 KCAL/MOL
REMARK 927      BINDING AFFINITY PREDICTED BY RF-SCORE:    0.00 PKD
ROOT
HETATM    1  C   UNL     1     -12.470   7.280  71.509  1.00  0.00    -0.373 C  
HETATM    2  N   UNL     1     -11.750   7.838  70.353  1.00  0.00    -0.109 N  
HETATM    3  O   UNL     1     -12.640   9.856  70.852  1.00  0.00    -0.318 OA 
HETATM    4  C   UNL     1     -11.784   9.224  70.209  1.00  0.00    -0.051 C  
ENDROOT
BRANCH   2   5
HETATM    5  C   UNL     1     -10.770   6.979  69.817  1.00  0.00    -0.241 A  
HETATM    6  C   UNL     1      -8.772   5.703  69.709  1.00  0.00    -0.125 A  
HETATM    7  C   UNL     1     -11.014   6.496  68.521  1.00  0.00    -0.286 A  
HETATM    8  C   UNL     1      -9.583   6.595  70.468  1.00  0.00    -0.177 A  
HETATM    9  C   UNL     1      -9.144   5.159  68.470  1.00  0.00    -0.112 A  
HETATM   10  N   UNL     1     -10.253   5.602  67.864  1.00  0.00    -0.173 NA 
BRANCH   9  11
HETATM   11  N   UNL     1      -8.425   4.151  67.861  1.00  0.00    -0.094 NA 
HETATM   12  C   UNL     1      -7.153   4.457  67.181  1.00  0.00    -0.068 C  
HETATM   13  C   UNL     1      -8.888   2.380  66.166  1.00  0.00    -0.128 C  
HETATM   14  C   UNL     1      -7.113   3.925  65.725  1.00  0.00    -0.067 C  
HETATM   15  N   UNL     1      -7.564   2.529  65.531  1.00  0.00    -0.075 NA 
HETATM   16  C   UNL     1      -6.600   1.568  66.064  1.00  0.00    -0.023 C  
HETATM   17  C   UNL     1      -8.963   2.802  67.654  1.00  0.00    -0.161 C  
ENDBRANCH   9  11
BRANCH   8  18
HETATM   18  C   UNL     1      -9.147   6.908  71.895  1.00  0.00    -0.143 A  
HETATM   19  C   UNL     1      -7.854   8.494  73.327  1.00  0.00    -0.059 A  
HETATM   20  C   UNL     1      -8.155   7.770  74.461  1.00  0.00    -0.269 A  
HETATM   21  C   UNL     1      -8.319   8.055  72.081  1.00  0.00    -0.188 A  
HETATM   22  C   UNL     1      -8.938   6.633  74.338  1.00  0.00    -0.203 A  
HETATM   23  C   UNL     1      -9.466   6.210  73.087  1.00  0.00    -0.138 A  
HETATM   24  C   UNL     1     -10.340   4.995  73.182  1.00  0.00    -0.231 C  
ENDBRANCH   8  18
ENDBRANCH   2   5
BRANCH   4  25
HETATM   25  C   UNL     1     -10.765  10.067  69.341  1.00  0.00    -0.258 C  
HETATM   26  C   UNL     1     -10.686   9.263  68.017  1.00  0.00    -0.231 C  
HETATM   27  C   UNL     1      -9.319  10.285  69.801  1.00  0.00    -0.116 C  
BRANCH  25  28
HETATM   28  C   UNL     1     -11.333  11.498  69.121  1.00  0.00    -0.351 A  
HETATM   29  C   UNL     1     -11.928  13.324  67.589  1.00  0.00    -0.366 A  
HETATM   30  C   UNL     1     -11.418  12.038  67.825  1.00  0.00    -0.394 A  
HETATM   31  F   UNL     1     -13.303  15.604  70.821  1.00  0.00    -0.518 F  
HETATM   32  C   UNL     1     -11.956  13.900  66.193  1.00  0.00    -0.423 C  
HETATM   33  F   UNL     1     -11.942  14.518  72.122  1.00  0.00    -0.377 F  
HETATM   34  C   UNL     1     -12.399  14.077  68.674  1.00  0.00    -0.043 A  
HETATM   35  F   UNL     1     -13.214  14.228  65.789  1.00  0.00    -0.526 F  
HETATM   36  F   UNL     1     -11.470  13.051  65.244  1.00  0.00    -0.312 F  
HETATM   37  F   UNL     1     -13.943  13.751  71.760  1.00  0.00    -0.424 F  
HETATM   38  C   UNL     1     -12.882  14.352  71.152  1.00  0.00    -0.347 C  
HETATM   39  C   UNL     1     -12.365  13.557  69.976  1.00  0.00    -0.315 A  
HETATM   40  F   UNL     1     -11.219  15.039  66.086  1.00  0.00    -0.334 F  
HETATM   41  C   UNL     1     -11.838  12.269  70.183  1.00  0.00    -0.352 A  
ENDBRANCH  25  28
ENDBRANCH   4  25
TORSDOF 5
ENDMDL
MODEL       60
REMARK 921   NORMALIZED FREE ENERGY PREDICTED BY IDOCK:   -5.88 KCAL/MOL
REMARK 922        TOTAL FREE ENERGY PREDICTED BY IDOCK:   -9.24 KCAL/MOL
REMARK 923 INTER-LIGAND FREE ENERGY PREDICTED BY IDOCK:   -6.89 KCAL/MOL
REMARK 924 INTRA-LIGAND FREE ENERGY PREDICTED BY IDOCK:   -2.35 KCAL/MOL
REMARK 927      BINDING AFFINITY PREDICTED BY RF-SCORE:    0.00 PKD
ROOT
HETATM    1  C   UNL     1     -13.012   7.809  71.206  1.00  0.00    -0.221 C  
HETATM    2  N   UNL     1     -11.564   7.933  70.975  1.00  0.00    -0.282 N  
HETATM    3  O   UNL     1     -11.297   8.217  73.203  1.00  0.00    -0.247 OA 
HETATM    4  C   UNL     1     -10.755   7.977  72.110  1.00  0.00    -0.276 C  
ENDROOT
BRANCH   2   5
HETATM    5  C   UNL     1     -11.152   7.541  69.686  1.00  0.00    -0.085 A  
HETATM    6  C   UNL     1     -10.391   7.760  67.449  1.00  0.00    -0.354 A  
HETATM    7  C   UNL     1     -11.136   6.159  69.436  1.00  0.00    -0.409 A  
HETATM    8  C   UNL     1     -10.783   8.419  68.650  1.00  0.00    -0.075 A  
HETATM    9  C   UNL     1     -10.275   6.368  67.314  1.00  0.00    -0.187 A  
HETATM   10  N   UNL     1     -10.696   5.575  68.307  1.00  0.00    -0.143 NA 
BRANCH   9  11
HETATM   11  N   UNL     1      -9.706   5.779  66.203  1.00  0.00    -0.116 NA 
HETATM   12  C   UNL     1     -10.079   4.404  65.823  1.00  0.00    -0.245 C  
HETATM   13  C   UNL     1      -7.390   5.365  65.372  1.00  0.00    -0.069 C  
HETATM   14  C   UNL     1      -8.847   3.483  65.636  1.00  0.00    -0.129 C  
HETATM   15  N   UNL     1      -7.737   4.037  64.828  1.00  0.00    -0.080 NA 
HETATM   16  C   UNL     1      -8.081   4.109  63.410  1.00  0.00    -0.086 C  
HETATM   17  C   UNL     1      -8.567   6.364  65.486  1.00  0.00    -0.109 C  
ENDBRANCH   9  11
BRANCH   8  18
HETATM   18  C   UNL     1     -10.632   9.934  68.707  1.00  0.00    -0.246 A  
HETATM   19  C   UNL     1     -11.803  12.079  69.225  1.00  0.00    -0.377 A  
HETATM   20  C   UNL     1     -10.675  12.810  68.915  1.00  0.00    -0.199 A  
HETATM   21  C   UNL     1     -11.781  10.684  69.098  1.00  0.00    -0.324 A  
HETATM   22  C   UNL     1      -9.535  12.136  68.508  1.00  0.00    -0.125 A  
HETATM   23  C   UNL     1      -9.481  10.716  68.432  1.00  0.00    -0.165 A  
HETATM   24  C   UNL     1      -8.137  10.184  68.033  1.00  0.00    -0.112 C  
ENDBRANCH   8  18
ENDBRANCH   2   5
BRANCH   4  25
HETATM   25  C   UNL     1      -9.202   7.674  72.124  1.00  0.00    -0.182 C  
HETATM   26  C   UNL     1      -8.774   8.114  73.549  1.00  0.00    -0.317 C  
HETATM   27  C   UNL     1      -8.247   8.372  71.151  1.00  0.00    -0.154 C  
BRANCH  25  28
HETATM   28  C   UNL     1      -8.970   6.155  71.890  1.00  0.00    -0.140 A  
HETATM   29  C   UNL     1      -9.518   3.822  72.436  1.00  0.00    -0.183 A  
HETATM   30  C   UNL     1      -9.700   5.202  72.624  1.00  0.00    -0.178 A  
HETATM   31  F   UNL     1      -6.778   2.492  69.565  1.00  0.00    -0.032 F  
HETATM   32  C   UNL     1     -10.275   2.822  73.278  1.00  0.00    -0.128 C  
HETATM   33  F   UNL     1      -5.665   4.342  69.818  1.00  0.00    -0.013 F  
HETATM   34  C   UNL     1      -8.609   3.383  71.464  1.00  0.00    -0.107 A  
HETATM   35  F   UNL     1     -11.041   1.983  72.528  1.00  0.00    -0.194 F  
HETATM   36  F   UNL     1     -11.125   3.398  74.176  1.00  0.00    -0.255 F  
HETATM   37  F   UNL     1      -7.288   4.239  68.376  1.00  0.00    -0.057 F  
HETATM   38  C   UNL     1      -6.918   3.845  69.626  1.00  0.00    -0.042 C  
HETATM   39  C   UNL     1      -7.891   4.304  70.687  1.00  0.00    -0.056 A  
HETATM   40  F   UNL     1      -9.448   2.024  74.007  1.00  0.00    -0.075 F  
HETATM   41  C   UNL     1      -8.085   5.680  70.905  1.00  0.00    -0.118 A  
ENDBRANCH  25  28
ENDBRANCH   4  25
TORSDOF 5
ENDMDL
MODEL       61
REMARK 921   NORMALIZED FREE ENERGY PREDICTED BY IDOCK:   -5.87 KCAL/MOL
REMARK 922        TOTAL FREE ENERGY PREDICTED BY IDOCK:   -9.23 KCAL/MOL
REMARK 923 INTER-LIGAND FREE ENERGY PREDICTED BY IDOCK:   -6.76 KCAL/MOL
REMARK 924 INTRA-LIGAND FREE ENERGY PREDICTED BY IDOCK:   -2.47 KCAL/MOL
REMARK 927      BINDING AFFINITY PREDICTED BY RF-SCORE:    0.00 PKD
ROOT
HETATM    1  C   UNL     1      -7.037  11.263  68.637  1.00  0.00    -0.093 C  
HETATM    2  N   UNL     1      -6.665   9.888  69.007  1.00  0.00    -0.052 N  
HETATM    3  O   UNL     1      -6.195  10.641  71.087  1.00  0.00    -0.344 OA 
HETATM    4  C   UNL     1      -6.401   9.656  70.356  1.00  0.00    -0.081 C  
ENDROOT
BRANCH   2   5
HETATM    5  C   UNL     1      -7.057   8.915  68.066  1.00  0.00    -0.079 A  
HETATM    6  C   UNL     1      -8.467   7.733  66.567  1.00  0.00    -0.132 A  
HETATM    7  C   UNL     1      -6.070   7.990  67.687  1.00  0.00    -0.051 A  
HETATM    8  C   UNL     1      -8.343   8.796  67.508  1.00  0.00    -0.109 A  
HETATM    9  C   UNL     1      -7.399   6.929  66.139  1.00  0.00    -0.076 A  
HETATM   10  N   UNL     1      -6.210   7.041  66.745  1.00  0.00    -0.040 NA 
BRANCH   9  11
HETATM   11  N   UNL     1      -7.516   6.045  65.086  1.00  0.00    -0.080 NA 
HETATM   12  C   UNL     1      -8.838   5.506  64.717  1.00  0.00     0.024 C  
HETATM   13  C   UNL     1      -6.466   3.881  64.427  1.00  0.00    -0.041 C  
HETATM   14  C   UNL     1      -8.849   3.958  64.640  1.00  0.00    -0.123 C  
HETATM   15  N   UNL     1      -7.731   3.337  63.896  1.00  0.00    -0.075 NA 
HETATM   16  C   UNL     1      -7.848   3.555  62.456  1.00  0.00    -0.062 C  
HETATM   17  C   UNL     1      -6.358   5.425  64.434  1.00  0.00    -0.026 C  
ENDBRANCH   9  11
BRANCH   8  18
HETATM   18  C   UNL     1      -9.539   9.724  67.689  1.00  0.00    -0.169 A  
HETATM   19  C   UNL     1     -11.300  10.487  69.286  1.00  0.00    -0.325 A  
HETATM   20  C   UNL     1     -11.826  11.351  68.349  1.00  0.00    -0.344 A  
HETATM   21  C   UNL     1     -10.204   9.683  68.950  1.00  0.00    -0.214 A  
HETATM   22  C   UNL     1     -11.233  11.417  67.097  1.00  0.00    -0.363 A  
HETATM   23  C   UNL     1     -10.084  10.649  66.763  1.00  0.00    -0.272 A  
HETATM   24  C   UNL     1      -9.561  10.916  65.383  1.00  0.00    -0.271 C  
ENDBRANCH   8  18
ENDBRANCH   2   5
BRANCH   4  25
HETATM   25  C   UNL     1      -6.414   8.233  71.048  1.00  0.00    -0.039 C  
HETATM   26  C   UNL     1      -6.098   8.564  72.530  1.00  0.00    -0.075 C  
HETATM   27  C   UNL     1      -5.429   7.137  70.629  1.00  0.00    -0.024 C  
BRANCH  25  28
HETATM   28  C   UNL     1      -7.820   7.591  70.881  1.00  0.00    -0.094 A  
HETATM   29  C   UNL     1      -9.265   5.910  69.821  1.00  0.00    -0.160 A  
HETATM   30  C   UNL     1      -8.011   6.517  69.993  1.00  0.00    -0.116 A  
HETATM   31  F   UNL     1     -12.527   7.283  72.058  1.00  0.00    -0.317 F  
HETATM   32  C   UNL     1      -9.453   4.795  68.818  1.00  0.00    -0.148 C  
HETATM   33  F   UNL     1     -11.576   9.233  72.185  1.00  0.00    -0.420 F  
HETATM   34  C   UNL     1     -10.350   6.366  70.582  1.00  0.00    -0.243 A  
HETATM   35  F   UNL     1      -9.900   3.646  69.395  1.00  0.00    -0.256 F  
HETATM   36  F   UNL     1      -8.308   4.459  68.158  1.00  0.00    -0.091 F  
HETATM   37  F   UNL     1     -11.141   7.714  73.676  1.00  0.00    -0.394 F  
HETATM   38  C   UNL     1     -11.347   7.901  72.343  1.00  0.00    -0.369 C  
HETATM   39  C   UNL     1     -10.190   7.409  71.505  1.00  0.00    -0.205 A  
HETATM   40  F   UNL     1     -10.360   5.110  67.854  1.00  0.00    -0.217 F  
HETATM   41  C   UNL     1      -8.924   8.006  71.649  1.00  0.00    -0.192 A  
ENDBRANCH  25  28
ENDBRANCH   4  25
TORSDOF 5
ENDMDL
MODEL       62
REMARK 921   NORMALIZED FREE ENERGY PREDICTED BY IDOCK:   -5.84 KCAL/MOL
REMARK 922        TOTAL FREE ENERGY PREDICTED BY IDOCK:   -9.18 KCAL/MOL
REMARK 923 INTER-LIGAND FREE ENERGY PREDICTED BY IDOCK:   -7.94 KCAL/MOL
REMARK 924 INTRA-LIGAND FREE ENERGY PREDICTED BY IDOCK:   -1.24 KCAL/MOL
REMARK 927      BINDING AFFINITY PREDICTED BY RF-SCORE:    0.00 PKD
ROOT
HETATM    1  C   UNL     1     -10.906   7.859  67.253  1.00  0.00    -0.119 C  
HETATM    2  N   UNL     1      -9.587   8.386  67.641  1.00  0.00    -0.148 N  
HETATM    3  O   UNL     1      -9.882  10.051  66.139  1.00  0.00    -0.214 OA 
HETATM    4  C   UNL     1      -9.233   9.626  67.111  1.00  0.00    -0.134 C  
ENDROOT
BRANCH   2   5
HETATM    5  C   UNL     1      -9.062   7.813  68.816  1.00  0.00    -0.140 A  
HETATM    6  C   UNL     1      -8.868   7.291  71.123  1.00  0.00    -0.140 A  
HETATM    7  C   UNL     1      -7.921   7.011  68.655  1.00  0.00    -0.120 A  
HETATM    8  C   UNL     1      -9.579   8.000  70.111  1.00  0.00    -0.175 A  
HETATM    9  C   UNL     1      -7.812   6.402  70.870  1.00  0.00    -0.107 A  
HETATM   10  N   UNL     1      -7.318   6.306  69.629  1.00  0.00    -0.078 NA 
BRANCH   9  11
HETATM   11  N   UNL     1      -7.281   5.589  71.851  1.00  0.00    -0.085 NA 
HETATM   12  C   UNL     1      -7.255   4.127  71.664  1.00  0.00    -0.054 C  
HETATM   13  C   UNL     1      -7.630   5.256  74.298  1.00  0.00    -0.090 C  
HETATM   14  C   UNL     1      -7.889   3.364  72.854  1.00  0.00    -0.061 C  
HETATM   15  N   UNL     1      -7.459   3.793  74.204  1.00  0.00    -0.058 NA 
HETATM   16  C   UNL     1      -6.084   3.392  74.490  1.00  0.00    -0.016 C  
HETATM   17  C   UNL     1      -6.931   6.079  73.188  1.00  0.00    -0.084 C  
ENDBRANCH   9  11
BRANCH   8  18
HETATM   18  C   UNL     1     -10.847   8.738  70.523  1.00  0.00    -0.268 A  
HETATM   19  C   UNL     1     -11.929  10.982  70.701  1.00  0.00    -0.464 A  
HETATM   20  C   UNL     1     -13.082  10.425  71.212  1.00  0.00    -0.494 A  
HETATM   21  C   UNL     1     -10.839  10.159  70.392  1.00  0.00    -0.365 A  
HETATM   22  C   UNL     1     -13.139   9.050  71.382  1.00  0.00    -0.337 A  
HETATM   23  C   UNL     1     -12.062   8.197  71.016  1.00  0.00    -0.223 A  
HETATM   24  C   UNL     1     -12.351   6.740  71.220  1.00  0.00    -0.395 C  
ENDBRANCH   8  18
ENDBRANCH   2   5
BRANCH   4  25
HETATM   25  C   UNL     1      -8.109  10.571  67.699  1.00  0.00    -0.107 C  
HETATM   26  C   UNL     1      -6.920  10.344  66.729  1.00  0.00    -0.103 C  
HETATM   27  C   UNL     1      -7.559  10.366  69.114  1.00  0.00    -0.117 C  
BRANCH  25  28
HETATM   28  C   UNL     1      -8.607  12.044  67.674  1.00  0.00    -0.163 A  
HETATM   29  C   UNL     1      -8.105  14.444  67.521  1.00  0.00    -0.204 A  
HETATM   30  C   UNL     1      -7.690  13.103  67.551  1.00  0.00    -0.168 A  
HETATM   31  F   UNL     1     -12.191  15.328  67.739  1.00  0.00    -0.228 F  
HETATM   32  C   UNL     1      -7.093  15.564  67.445  1.00  0.00    -0.202 C  
HETATM   33  F   UNL     1     -12.502  13.467  68.819  1.00  0.00    -0.335 F  
HETATM   34  C   UNL     1      -9.476  14.733  67.581  1.00  0.00    -0.204 A  
HETATM   35  F   UNL     1      -7.268  16.350  66.347  1.00  0.00    -0.256 F  
HETATM   36  F   UNL     1      -5.802  15.129  67.388  1.00  0.00    -0.132 F  
HETATM   37  F   UNL     1     -12.571  13.487  66.647  1.00  0.00    -0.396 F  
HETATM   38  C   UNL     1     -11.902  13.997  67.718  1.00  0.00    -0.384 C  
HETATM   39  C   UNL     1     -10.422  13.701  67.667  1.00  0.00    -0.238 A  
HETATM   40  F   UNL     1      -7.158  16.398  68.518  1.00  0.00    -0.135 F  
HETATM   41  C   UNL     1      -9.976  12.367  67.706  1.00  0.00    -0.205 A  
ENDBRANCH  25  28
ENDBRANCH   4  25
TORSDOF 5
ENDMDL
MODEL       63
REMARK 921   NORMALIZED FREE ENERGY PREDICTED BY IDOCK:   -5.82 KCAL/MOL
REMARK 922        TOTAL FREE ENERGY PREDICTED BY IDOCK:   -9.16 KCAL/MOL
REMARK 923 INTER-LIGAND FREE ENERGY PREDICTED BY IDOCK:   -8.91 KCAL/MOL
REMARK 924 INTRA-LIGAND FREE ENERGY PREDICTED BY IDOCK:   -0.25 KCAL/MOL
REMARK 927      BINDING AFFINITY PREDICTED BY RF-SCORE:    0.00 PKD
ROOT
HETATM    1  C   UNL     1     -11.902   9.732  70.284  1.00  0.00    -0.144 C  
HETATM    2  N   UNL     1     -10.981   9.844  69.142  1.00  0.00    -0.220 N  
HETATM    3  O   UNL     1     -10.829  12.061  69.563  1.00  0.00    -0.078 OA 
HETATM    4  C   UNL     1     -10.356  11.079  68.966  1.00  0.00    -0.209 C  
ENDROOT
BRANCH   2   5
HETATM    5  C   UNL     1     -10.508   8.607  68.661  1.00  0.00    -0.177 A  
HETATM    6  C   UNL     1      -9.527   6.447  68.712  1.00  0.00    -0.127 A  
HETATM    7  C   UNL     1     -10.654   8.384  67.283  1.00  0.00    -0.257 A  
HETATM    8  C   UNL     1      -9.898   7.611  69.446  1.00  0.00    -0.171 A  
HETATM    9  C   UNL     1      -9.823   6.241  67.356  1.00  0.00    -0.131 A  
HETATM   10  N   UNL     1     -10.349   7.243  66.639  1.00  0.00    -0.209 NA 
BRANCH   9  11
HETATM   11  N   UNL     1      -9.624   5.026  66.733  1.00  0.00    -0.142 NA 
HETATM   12  C   UNL     1      -8.421   4.230  67.032  1.00  0.00    -0.104 C  
HETATM   13  C   UNL     1      -9.572   4.195  64.381  1.00  0.00    -0.162 C  
HETATM   14  C   UNL     1      -7.647   3.816  65.755  1.00  0.00    -0.081 C  
HETATM   15  N   UNL     1      -8.463   3.259  64.653  1.00  0.00    -0.093 NA 
HETATM   16  C   UNL     1      -8.954   1.919  64.965  1.00  0.00    -0.123 C  
HETATM   17  C   UNL     1     -10.443   4.565  65.606  1.00  0.00    -0.229 C  
ENDBRANCH   9  11
BRANCH   8  18
HETATM   18  C   UNL     1      -9.716   7.581  70.959  1.00  0.00    -0.170 A  
HETATM   19  C   UNL     1      -8.245   8.295  72.847  1.00  0.00    -0.227 A  
HETATM   20  C   UNL     1      -9.081   7.701  73.769  1.00  0.00    -0.332 A  
HETATM   21  C   UNL     1      -8.547   8.211  71.482  1.00  0.00    -0.174 A  
HETATM   22  C   UNL     1     -10.220   7.056  73.316  1.00  0.00    -0.309 A  
HETATM   23  C   UNL     1     -10.570   7.015  71.938  1.00  0.00    -0.239 A  
HETATM   24  C   UNL     1     -11.874   6.324  71.667  1.00  0.00    -0.315 C  
ENDBRANCH   8  18
ENDBRANCH   2   5
BRANCH   4  25
HETATM   25  C   UNL     1      -9.043  11.313  68.115  1.00  0.00    -0.166 C  
HETATM   26  C   UNL     1      -8.192  10.056  68.435  1.00  0.00    -0.106 C  
HETATM   27  C   UNL     1      -8.138  12.523  68.369  1.00  0.00    -0.136 C  
BRANCH  25  28
HETATM   28  C   UNL     1      -9.412  11.399  66.608  1.00  0.00    -0.206 A  
HETATM   29  C   UNL     1      -8.968  10.742  64.282  1.00  0.00    -0.172 A  
HETATM   30  C   UNL     1      -8.662  10.691  65.651  1.00  0.00    -0.198 A  
HETATM   31  F   UNL     1     -12.246  13.011  63.003  1.00  0.00    -0.607 F  
HETATM   32  C   UNL     1      -8.112  10.017  63.271  1.00  0.00    -0.159 C  
HETATM   33  F   UNL     1     -12.003  14.284  64.748  1.00  0.00    -0.357 F  
HETATM   34  C   UNL     1     -10.075  11.493  63.861  1.00  0.00    -0.388 A  
HETATM   35  F   UNL     1      -8.819   9.105  62.548  1.00  0.00    -0.207 F  
HETATM   36  F   UNL     1      -7.077   9.327  63.829  1.00  0.00    -0.092 F  
HETATM   37  F   UNL     1     -13.235  12.498  64.869  1.00  0.00    -0.487 F  
HETATM   38  C   UNL     1     -12.072  12.983  64.353  1.00  0.00    -0.411 C  
HETATM   39  C   UNL     1     -10.868  12.182  64.790  1.00  0.00    -0.351 A  
HETATM   40  F   UNL     1      -7.550  10.861  62.363  1.00  0.00    -0.164 F  
HETATM   41  C   UNL     1     -10.530  12.121  66.155  1.00  0.00    -0.281 A  
ENDBRANCH  25  28
ENDBRANCH   4  25
TORSDOF 5
ENDMDL
MODEL       64
REMARK 921   NORMALIZED FREE ENERGY PREDICTED BY IDOCK:   -5.81 KCAL/MOL
REMARK 922        TOTAL FREE ENERGY PREDICTED BY IDOCK:   -9.15 KCAL/MOL
REMARK 923 INTER-LIGAND FREE ENERGY PREDICTED BY IDOCK:   -7.21 KCAL/MOL
REMARK 924 INTRA-LIGAND FREE ENERGY PREDICTED BY IDOCK:   -1.93 KCAL/MOL
REMARK 927      BINDING AFFINITY PREDICTED BY RF-SCORE:    0.00 PKD
ROOT
HETATM    1  C   UNL     1      -6.323   8.264  69.045  1.00  0.00    -0.044 C  
HETATM    2  N   UNL     1      -7.310   8.724  68.055  1.00  0.00    -0.087 N  
HETATM    3  O   UNL     1      -8.152   6.626  68.013  1.00  0.00    -0.109 OA 
HETATM    4  C   UNL     1      -8.317   7.821  67.715  1.00  0.00    -0.125 C  
ENDROOT
BRANCH   2   5
HETATM    5  C   UNL     1      -7.383  10.125  67.924  1.00  0.00    -0.087 A  
HETATM    6  C   UNL     1      -7.316  12.252  66.873  1.00  0.00     0.029 A  
HETATM    7  C   UNL     1      -7.680  10.840  69.096  1.00  0.00    -0.138 A  
HETATM    8  C   UNL     1      -7.164  10.842  66.733  1.00  0.00    -0.128 A  
HETATM    9  C   UNL     1      -7.744  12.886  68.049  1.00  0.00    -0.143 A  
HETATM   10  N   UNL     1      -7.880  12.168  69.171  1.00  0.00     0.181 NA 
BRANCH   9  11
HETATM   11  N   UNL     1      -8.068  14.227  68.089  1.00  0.00    -0.134 NA 
HETATM   12  C   UNL     1      -8.301  14.968  66.836  1.00  0.00    -0.212 C  
HETATM   13  C   UNL     1      -7.096  16.286  69.109  1.00  0.00    -0.214 C  
HETATM   14  C   UNL     1      -7.450  16.260  66.740  1.00  0.00    -0.231 C  
HETATM   15  N   UNL     1      -7.441  17.123  67.943  1.00  0.00    -0.173 NA 
HETATM   16  C   UNL     1      -8.720  17.805  68.130  1.00  0.00    -0.266 C  
HETATM   17  C   UNL     1      -7.981  15.032  69.312  1.00  0.00    -0.190 C  
ENDBRANCH   9  11
BRANCH   8  18
HETATM   18  C   UNL     1      -6.923  10.292  65.332  1.00  0.00    -0.139 A  
HETATM   19  C   UNL     1      -5.444   8.836  63.943  1.00  0.00    -0.061 A  
HETATM   20  C   UNL     1      -6.193   9.091  62.814  1.00  0.00    -0.094 A  
HETATM   21  C   UNL     1      -5.790   9.442  65.157  1.00  0.00    -0.060 A  
HETATM   22  C   UNL     1      -7.294   9.927  62.920  1.00  0.00    -0.125 A  
HETATM   23  C   UNL     1      -7.691  10.502  64.159  1.00  0.00     0.053 A  
HETATM   24  C   UNL     1      -8.944  11.321  64.069  1.00  0.00     0.097 C  
ENDBRANCH   8  18
ENDBRANCH   2   5
BRANCH   4  25
HETATM   25  C   UNL     1      -9.692   8.214  67.039  1.00  0.00    -0.275 C  
HETATM   26  C   UNL     1     -10.466   6.870  67.017  1.00  0.00    -0.374 C  
HETATM   27  C   UNL     1      -9.746   8.767  65.610  1.00  0.00    -0.016 C  
BRANCH  25  28
HETATM   28  C   UNL     1     -10.408   9.285  67.908  1.00  0.00    -0.279 A  
HETATM   29  C   UNL     1     -11.315  11.557  68.145  1.00  0.00    -0.367 A  
HETATM   30  C   UNL     1     -10.667  10.567  67.389  1.00  0.00    -0.334 A  
HETATM   31  F   UNL     1     -12.577  10.662  72.035  1.00  0.00    -0.473 F  
HETATM   32  C   UNL     1     -11.529  12.942  67.581  1.00  0.00    -0.334 C  
HETATM   33  F   UNL     1     -11.003   9.170  72.167  1.00  0.00    -0.414 F  
HETATM   34  C   UNL     1     -11.747  11.247  69.442  1.00  0.00    -0.409 A  
HETATM   35  F   UNL     1     -12.845  13.287  67.534  1.00  0.00     0.092 F  
HETATM   36  F   UNL     1     -11.061  13.091  66.309  1.00  0.00    -0.284 F  
HETATM   37  F   UNL     1     -12.949   8.627  71.367  1.00  0.00    -0.318 F  
HETATM   38  C   UNL     1     -12.012   9.616  71.371  1.00  0.00    -0.399 C  
HETATM   39  C   UNL     1     -11.540   9.968  69.980  1.00  0.00    -0.279 A  
HETATM   40  F   UNL     1     -10.915  13.905  68.320  1.00  0.00    -0.237 F  
HETATM   41  C   UNL     1     -10.877   9.000  69.203  1.00  0.00    -0.110 A  
ENDBRANCH  25  28
ENDBRANCH   4  25
TORSDOF 5
ENDMDL
MODEL       65
REMARK 921   NORMALIZED FREE ENERGY PREDICTED BY IDOCK:   -5.80 KCAL/MOL
REMARK 922        TOTAL FREE ENERGY PREDICTED BY IDOCK:   -9.14 KCAL/MOL
REMARK 923 INTER-LIGAND FREE ENERGY PREDICTED BY IDOCK:   -8.99 KCAL/MOL
REMARK 924 INTRA-LIGAND FREE ENERGY PREDICTED BY IDOCK:   -0.14 KCAL/MOL
REMARK 927      BINDING AFFINITY PREDICTED BY RF-SCORE:    0.00 PKD
ROOT
HETATM    1  C   UNL     1      -8.043  10.163  65.093  1.00  0.00    -0.148 C  
HETATM    2  N   UNL     1      -8.593  10.614  66.382  1.00  0.00    -0.144 N  
HETATM    3  O   UNL     1      -9.035   8.453  66.878  1.00  0.00    -0.136 OA 
HETATM    4  C   UNL     1      -8.928   9.619  67.298  1.00  0.00    -0.134 C  
ENDROOT
BRANCH   2   5
HETATM    5  C   UNL     1      -8.293  11.955  66.696  1.00  0.00    -0.117 A  
HETATM    6  C   UNL     1      -8.552  14.312  66.793  1.00  0.00    -0.113 A  
HETATM    7  C   UNL     1      -7.104  12.170  67.412  1.00  0.00    -0.146 A  
HETATM    8  C   UNL     1      -9.074  13.068  66.334  1.00  0.00    -0.073 A  
HETATM    9  C   UNL     1      -7.423  14.438  67.618  1.00  0.00    -0.175 A  
HETATM   10  N   UNL     1      -6.679  13.356  67.883  1.00  0.00    -0.132 NA 
BRANCH   9  11
HETATM   11  N   UNL     1      -7.065  15.636  68.201  1.00  0.00    -0.112 NA 
HETATM   12  C   UNL     1      -7.971  16.290  69.162  1.00  0.00    -0.221 C  
HETATM   13  C   UNL     1      -6.322  17.878  67.398  1.00  0.00    -0.159 C  
HETATM   14  C   UNL     1      -8.263  17.767  68.796  1.00  0.00    -0.226 C  
HETATM   15  N   UNL     1      -7.088  18.593  68.438  1.00  0.00    -0.263 NA 
HETATM   16  C   UNL     1      -6.261  18.894  69.605  1.00  0.00    -0.257 C  
HETATM   17  C   UNL     1      -5.914  16.428  67.753  1.00  0.00    -0.132 C  
ENDBRANCH   9  11
BRANCH   8  18
HETATM   18  C   UNL     1     -10.435  13.082  65.649  1.00  0.00    -0.291 A  
HETATM   19  C   UNL     1     -11.651  12.578  63.526  1.00  0.00    -0.584 A  
HETATM   20  C   UNL     1     -12.848  12.988  64.073  1.00  0.00    -0.042 A  
HETATM   21  C   UNL     1     -10.479  12.649  64.290  1.00  0.00    -0.417 A  
HETATM   22  C   UNL     1     -12.862  13.439  65.383  1.00  0.00    -0.388 A  
HETATM   23  C   UNL     1     -11.690  13.461  66.189  1.00  0.00    -0.405 A  
HETATM   24  C   UNL     1     -11.934  13.923  67.595  1.00  0.00    -0.403 C  
ENDBRANCH   8  18
ENDBRANCH   2   5
BRANCH   4  25
HETATM   25  C   UNL     1      -9.112   9.847  68.853  1.00  0.00    -0.156 C  
HETATM   26  C   UNL     1     -10.011  11.110  68.915  1.00  0.00    -0.188 C  
HETATM   27  C   UNL     1      -7.911  10.125  69.763  1.00  0.00    -0.172 C  
BRANCH  25  28
HETATM   28  C   UNL     1      -9.808   8.606  69.478  1.00  0.00    -0.187 A  
HETATM   29  C   UNL     1      -9.823   6.189  69.922  1.00  0.00    -0.205 A  
HETATM   30  C   UNL     1      -9.225   7.330  69.366  1.00  0.00    -0.148 A  
HETATM   31  F   UNL     1     -13.416   6.586  72.035  1.00  0.00    -0.348 F  
HETATM   32  C   UNL     1      -9.203   4.824  69.738  1.00  0.00    -0.121 C  
HETATM   33  F   UNL     1     -13.875   8.353  70.855  1.00  0.00    -0.158 F  
HETATM   34  C   UNL     1     -11.020   6.330  70.639  1.00  0.00    -0.370 A  
HETATM   35  F   UNL     1      -8.898   4.226  70.922  1.00  0.00    -0.104 F  
HETATM   36  F   UNL     1      -8.042   4.846  69.023  1.00  0.00    -0.077 F  
HETATM   37  F   UNL     1     -12.728   8.540  72.691  1.00  0.00    -0.406 F  
HETATM   38  C   UNL     1     -12.892   7.760  71.587  1.00  0.00    -0.340 C  
HETATM   39  C   UNL     1     -11.611   7.591  70.804  1.00  0.00    -0.300 A  
HETATM   40  F   UNL     1     -10.027   3.962  69.083  1.00  0.00    -0.239 F  
HETATM   41  C   UNL     1     -10.994   8.716  70.226  1.00  0.00    -0.251 A  
ENDBRANCH  25  28
ENDBRANCH   4  25
TORSDOF 5
ENDMDL
MODEL       66
REMARK 921   NORMALIZED FREE ENERGY PREDICTED BY IDOCK:   -5.79 KCAL/MOL
REMARK 922        TOTAL FREE ENERGY PREDICTED BY IDOCK:   -9.12 KCAL/MOL
REMARK 923 INTER-LIGAND FREE ENERGY PREDICTED BY IDOCK:   -9.75 KCAL/MOL
REMARK 924 INTRA-LIGAND FREE ENERGY PREDICTED BY IDOCK:    0.62 KCAL/MOL
REMARK 927      BINDING AFFINITY PREDICTED BY RF-SCORE:    0.00 PKD
ROOT
HETATM    1  C   UNL     1     -12.271  12.624  65.908  1.00  0.00    -0.307 C  
HETATM    2  N   UNL     1     -11.153  12.416  66.842  1.00  0.00    -0.272 N  
HETATM    3  O   UNL     1     -11.010  10.286  66.097  1.00  0.00     0.050 OA 
HETATM    4  C   UNL     1     -10.467  11.207  66.732  1.00  0.00    -0.252 C  
ENDROOT
BRANCH   2   5
HETATM    5  C   UNL     1     -10.640  13.605  67.398  1.00  0.00    -0.259 A  
HETATM    6  C   UNL     1     -10.282  15.320  68.999  1.00  0.00    -0.239 A  
HETATM    7  C   UNL     1      -9.764  14.340  66.583  1.00  0.00    -0.287 A  
HETATM    8  C   UNL     1     -10.953  14.104  68.676  1.00  0.00    -0.275 A  
HETATM    9  C   UNL     1      -9.318  15.930  68.183  1.00  0.00    -0.198 A  
HETATM   10  N   UNL     1      -9.101  15.451  66.952  1.00  0.00    -0.225 NA 
BRANCH   9  11
HETATM   11  N   UNL     1      -8.551  16.993  68.615  1.00  0.00    -0.263 NA 
HETATM   12  C   UNL     1      -9.137  18.343  68.695  1.00  0.00    -0.294 C  
HETATM   13  C   UNL     1      -6.354  17.999  67.994  1.00  0.00    -0.183 C  
HETATM   14  C   UNL     1      -8.292  19.404  67.945  1.00  0.00    -0.308 C  
HETATM   15  N   UNL     1      -6.835  19.378  68.206  1.00  0.00    -0.264 NA 
HETATM   16  C   UNL     1      -6.515  19.859  69.548  1.00  0.00    -0.354 C  
HETATM   17  C   UNL     1      -7.098  16.905  68.798  1.00  0.00    -0.216 C  
ENDBRANCH   9  11
BRANCH   8  18
HETATM   18  C   UNL     1     -11.792  13.448  69.766  1.00  0.00    -0.393 A  
HETATM   19  C   UNL     1     -12.394  11.275  70.841  1.00  0.00    -0.490 A  
HETATM   20  C   UNL     1     -13.247  11.906  71.721  1.00  0.00    -0.426 A  
HETATM   21  C   UNL     1     -11.709  12.028  69.878  1.00  0.00    -0.374 A  
HETATM   22  C   UNL     1     -13.384  13.283  71.643  1.00  0.00    -0.406 A  
HETATM   23  C   UNL     1     -12.650  14.066  70.710  1.00  0.00    -0.431 A  
HETATM   24  C   UNL     1     -12.895  15.540  70.835  1.00  0.00    -0.535 C  
ENDBRANCH   8  18
ENDBRANCH   2   5
BRANCH   4  25
HETATM   25  C   UNL     1      -9.014  10.938  67.295  1.00  0.00    -0.139 C  
HETATM   26  C   UNL     1      -8.826  12.076  68.333  1.00  0.00    -0.149 C  
HETATM   27  C   UNL     1      -7.786  10.982  66.378  1.00  0.00    -0.150 C  
BRANCH  25  28
HETATM   28  C   UNL     1      -8.967   9.533  67.957  1.00  0.00    -0.123 A  
HETATM   29  C   UNL     1      -9.361   8.104  69.917  1.00  0.00    -0.159 A  
HETATM   30  C   UNL     1      -9.386   9.359  69.289  1.00  0.00    -0.167 A  
HETATM   31  F   UNL     1      -8.066   4.760  67.757  1.00  0.00    -0.091 F  
HETATM   32  C   UNL     1      -9.764   7.958  71.366  1.00  0.00    -0.164 C  
HETATM   33  F   UNL     1      -6.859   6.072  66.513  1.00  0.00    -0.054 F  
HETATM   34  C   UNL     1      -8.938   6.986  69.184  1.00  0.00    -0.134 A  
HETATM   35  F   UNL     1     -10.805   7.097  71.532  1.00  0.00    -0.229 F  
HETATM   36  F   UNL     1     -10.154   9.129  71.944  1.00  0.00    -0.384 F  
HETATM   37  F   UNL     1      -8.926   5.668  65.979  1.00  0.00    -0.136 F  
HETATM   38  C   UNL     1      -8.106   5.916  67.037  1.00  0.00    -0.102 C  
HETATM   39  C   UNL     1      -8.549   7.114  67.843  1.00  0.00    -0.123 A  
HETATM   40  F   UNL     1      -8.753   7.479  72.141  1.00  0.00    -0.117 F  
HETATM   41  C   UNL     1      -8.574   8.386  67.243  1.00  0.00    -0.123 A  
ENDBRANCH  25  28
ENDBRANCH   4  25
TORSDOF 5
ENDMDL
MODEL       67
REMARK 921   NORMALIZED FREE ENERGY PREDICTED BY IDOCK:   -5.78 KCAL/MOL
REMARK 922        TOTAL FREE ENERGY PREDICTED BY IDOCK:   -9.11 KCAL/MOL
REMARK 923 INTER-LIGAND FREE ENERGY PREDICTED BY IDOCK:   -9.05 KCAL/MOL
REMARK 924 INTRA-LIGAND FREE ENERGY PREDICTED BY IDOCK:   -0.05 KCAL/MOL
REMARK 927      BINDING AFFINITY PREDICTED BY RF-SCORE:    0.00 PKD
ROOT
HETATM    1  C   UNL     1     -12.271  12.624  65.908  1.00  0.00    -0.307 C  
HETATM    2  N   UNL     1     -11.153  12.416  66.842  1.00  0.00    -0.272 N  
HETATM    3  O   UNL     1     -11.010  10.286  66.097  1.00  0.00     0.050 OA 
HETATM    4  C   UNL     1     -10.467  11.207  66.732  1.00  0.00    -0.252 C  
ENDROOT
BRANCH   2   5
HETATM    5  C   UNL     1     -10.640  13.605  67.398  1.00  0.00    -0.259 A  
HETATM    6  C   UNL     1     -10.282  15.320  68.999  1.00  0.00    -0.239 A  
HETATM    7  C   UNL     1      -9.764  14.340  66.583  1.00  0.00    -0.287 A  
HETATM    8  C   UNL     1     -10.953  14.104  68.676  1.00  0.00    -0.275 A  
HETATM    9  C   UNL     1      -9.318  15.930  68.183  1.00  0.00    -0.198 A  
HETATM   10  N   UNL     1      -9.101  15.451  66.952  1.00  0.00    -0.225 NA 
BRANCH   9  11
HETATM   11  N   UNL     1      -8.551  16.993  68.615  1.00  0.00    -0.263 NA 
HETATM   12  C   UNL     1      -9.137  18.343  68.695  1.00  0.00    -0.294 C  
HETATM   13  C   UNL     1      -6.354  17.999  67.994  1.00  0.00    -0.183 C  
HETATM   14  C   UNL     1      -8.292  19.404  67.945  1.00  0.00    -0.308 C  
HETATM   15  N   UNL     1      -6.835  19.378  68.206  1.00  0.00    -0.264 NA 
HETATM   16  C   UNL     1      -6.515  19.859  69.548  1.00  0.00    -0.354 C  
HETATM   17  C   UNL     1      -7.098  16.905  68.798  1.00  0.00    -0.216 C  
ENDBRANCH   9  11
BRANCH   8  18
HETATM   18  C   UNL     1     -11.792  13.448  69.766  1.00  0.00    -0.393 A  
HETATM   19  C   UNL     1     -12.394  11.275  70.841  1.00  0.00    -0.490 A  
HETATM   20  C   UNL     1     -13.247  11.906  71.721  1.00  0.00    -0.426 A  
HETATM   21  C   UNL     1     -11.709  12.028  69.878  1.00  0.00    -0.374 A  
HETATM   22  C   UNL     1     -13.384  13.283  71.643  1.00  0.00    -0.406 A  
HETATM   23  C   UNL     1     -12.650  14.066  70.710  1.00  0.00    -0.431 A  
HETATM   24  C   UNL     1     -12.895  15.540  70.835  1.00  0.00    -0.535 C  
ENDBRANCH   8  18
ENDBRANCH   2   5
BRANCH   4  25
HETATM   25  C   UNL     1      -9.014  10.938  67.295  1.00  0.00    -0.139 C  
HETATM   26  C   UNL     1      -9.263  10.703  68.808  1.00  0.00    -0.182 C  
HETATM   27  C   UNL     1      -7.915  12.003  67.199  1.00  0.00    -0.175 C  
BRANCH  25  28
HETATM   28  C   UNL     1      -8.414   9.683  66.601  1.00  0.00    -0.126 A  
HETATM   29  C   UNL     1      -8.190   7.239  66.479  1.00  0.00    -0.117 A  
HETATM   30  C   UNL     1      -8.710   8.395  67.082  1.00  0.00    -0.131 A  
HETATM   31  F   UNL     1      -5.738   7.620  63.106  1.00  0.00    -0.046 F  
HETATM   32  C   UNL     1      -8.479   5.872  67.051  1.00  0.00    -0.107 C  
HETATM   33  F   UNL     1      -5.155   9.598  63.795  1.00  0.00    -0.056 F  
HETATM   34  C   UNL     1      -7.380   7.373  65.342  1.00  0.00    -0.072 A  
HETATM   35  F   UNL     1      -9.102   5.054  66.158  1.00  0.00    -0.124 F  
HETATM   36  F   UNL     1      -9.283   5.901  68.152  1.00  0.00    -0.118 F  
HETATM   37  F   UNL     1      -6.913   9.359  62.540  1.00  0.00    -0.101 F  
HETATM   38  C   UNL     1      -6.234   8.797  63.578  1.00  0.00    -0.085 C  
HETATM   39  C   UNL     1      -7.094   8.639  64.811  1.00  0.00    -0.077 A  
HETATM   40  F   UNL     1      -7.348   5.217  67.432  1.00  0.00    -0.076 F  
HETATM   41  C   UNL     1      -7.620   9.780  65.444  1.00  0.00    -0.121 A  
ENDBRANCH  25  28
ENDBRANCH   4  25
TORSDOF 5
ENDMDL
MODEL       68
REMARK 921   NORMALIZED FREE ENERGY PREDICTED BY IDOCK:   -5.77 KCAL/MOL
REMARK 922        TOTAL FREE ENERGY PREDICTED BY IDOCK:   -9.10 KCAL/MOL
REMARK 923 INTER-LIGAND FREE ENERGY PREDICTED BY IDOCK:   -7.36 KCAL/MOL
REMARK 924 INTRA-LIGAND FREE ENERGY PREDICTED BY IDOCK:   -1.75 KCAL/MOL
REMARK 927      BINDING AFFINITY PREDICTED BY RF-SCORE:    0.00 PKD
ROOT
HETATM    1  C   UNL     1     -10.157   7.690  66.778  1.00  0.00    -0.255 C  
HETATM    2  N   UNL     1     -10.618   8.444  67.955  1.00  0.00    -0.195 N  
HETATM    3  O   UNL     1     -10.805   6.481  69.062  1.00  0.00    -0.250 OA 
HETATM    4  C   UNL     1     -10.766   7.721  69.138  1.00  0.00    -0.126 C  
ENDROOT
BRANCH   2   5
HETATM    5  C   UNL     1     -10.415   9.835  67.861  1.00  0.00    -0.239 A  
HETATM    6  C   UNL     1      -9.240  11.894  67.742  1.00  0.00    -0.184 A  
HETATM    7  C   UNL     1     -11.574  10.623  67.773  1.00  0.00     0.025 A  
HETATM    8  C   UNL     1      -9.163  10.476  67.868  1.00  0.00    -0.143 A  
HETATM    9  C   UNL     1     -10.431  12.603  67.527  1.00  0.00    -0.221 A  
HETATM   10  N   UNL     1     -11.602  11.956  67.590  1.00  0.00    -0.454 NA 
BRANCH   9  11
HETATM   11  N   UNL     1     -10.443  13.948  67.215  1.00  0.00    -0.270 NA 
HETATM   12  C   UNL     1     -11.548  14.511  66.419  1.00  0.00    -0.364 C  
HETATM   13  C   UNL     1      -8.870  15.563  66.148  1.00  0.00    -0.238 C  
HETATM   14  C   UNL     1     -11.050  15.310  65.189  1.00  0.00    -0.404 C  
HETATM   15  N   UNL     1      -9.953  16.273  65.439  1.00  0.00    -0.521 NA 
HETATM   16  C   UNL     1     -10.415  17.438  66.191  1.00  0.00    -0.284 C  
HETATM   17  C   UNL     1      -9.293  14.829  67.444  1.00  0.00    -0.197 C  
ENDBRANCH   9  11
BRANCH   8  18
HETATM   18  C   UNL     1      -7.778   9.839  67.859  1.00  0.00    -0.087 A  
HETATM   19  C   UNL     1      -6.016   8.779  69.276  1.00  0.00    -0.041 A  
HETATM   20  C   UNL     1      -5.196   8.597  68.183  1.00  0.00    -0.034 A  
HETATM   21  C   UNL     1      -7.258   9.405  69.115  1.00  0.00    -0.066 A  
HETATM   22  C   UNL     1      -5.640   9.020  66.939  1.00  0.00    -0.041 A  
HETATM   23  C   UNL     1      -6.923   9.603  66.752  1.00  0.00    -0.085 A  
HETATM   24  C   UNL     1      -7.234   9.930  65.322  1.00  0.00    -0.131 C  
ENDBRANCH   8  18
ENDBRANCH   2   5
BRANCH   4  25
HETATM   25  C   UNL     1     -10.818   8.358  70.585  1.00  0.00    -0.256 C  
HETATM   26  C   UNL     1     -12.325   8.282  70.946  1.00  0.00    -0.046 C  
HETATM   27  C   UNL     1     -10.387   9.808  70.831  1.00  0.00    -0.245 C  
BRANCH  25  28
HETATM   28  C   UNL     1      -9.944   7.513  71.554  1.00  0.00    -0.197 A  
HETATM   29  C   UNL     1      -7.866   7.242  72.836  1.00  0.00    -0.108 A  
HETATM   30  C   UNL     1      -8.680   7.977  71.960  1.00  0.00    -0.197 A  
HETATM   31  F   UNL     1      -9.256   3.592  74.343  1.00  0.00    -0.091 F  
HETATM   32  C   UNL     1      -6.489   7.738  73.211  1.00  0.00    -0.072 C  
HETATM   33  F   UNL     1     -10.495   3.370  72.571  1.00  0.00    -0.227 F  
HETATM   34  C   UNL     1      -8.343   6.027  73.348  1.00  0.00    -0.117 A  
HETATM   35  F   UNL     1      -6.348   7.918  74.553  1.00  0.00    -0.089 F  
HETATM   36  F   UNL     1      -6.167   8.934  72.640  1.00  0.00    -0.084 F  
HETATM   37  F   UNL     1     -11.263   4.427  74.307  1.00  0.00    -0.261 F  
HETATM   38  C   UNL     1     -10.146   4.250  73.549  1.00  0.00    -0.146 C  
HETATM   39  C   UNL     1      -9.613   5.550  72.995  1.00  0.00    -0.161 A  
HETATM   40  F   UNL     1      -5.506   6.873  72.843  1.00  0.00    -0.036 F  
HETATM   41  C   UNL     1     -10.402   6.303  72.106  1.00  0.00    -0.218 A  
ENDBRANCH  25  28
ENDBRANCH   4  25
TORSDOF 5
ENDMDL
MODEL       69
REMARK 921   NORMALIZED FREE ENERGY PREDICTED BY IDOCK:   -5.75 KCAL/MOL
REMARK 922        TOTAL FREE ENERGY PREDICTED BY IDOCK:   -9.07 KCAL/MOL
REMARK 923 INTER-LIGAND FREE ENERGY PREDICTED BY IDOCK:   -6.27 KCAL/MOL
REMARK 924 INTRA-LIGAND FREE ENERGY PREDICTED BY IDOCK:   -2.80 KCAL/MOL
REMARK 927      BINDING AFFINITY PREDICTED BY RF-SCORE:    0.00 PKD
ROOT
HETATM    1  C   UNL     1     -10.214   8.198  66.341  1.00  0.00    -0.050 C  
HETATM    2  N   UNL     1     -10.447   8.745  67.687  1.00  0.00    -0.251 N  
HETATM    3  O   UNL     1     -10.771   6.632  68.423  1.00  0.00    -0.218 OA 
HETATM    4  C   UNL     1     -10.565   7.820  68.724  1.00  0.00    -0.135 C  
ENDROOT
BRANCH   2   5
HETATM    5  C   UNL     1     -10.077  10.097  67.830  1.00  0.00    -0.180 A  
HETATM    6  C   UNL     1      -8.679  11.976  68.214  1.00  0.00    -0.178 A  
HETATM    7  C   UNL     1     -11.103  11.040  67.655  1.00  0.00    -0.300 A  
HETATM    8  C   UNL     1      -8.785  10.557  68.147  1.00  0.00    -0.130 A  
HETATM    9  C   UNL     1      -9.720  12.862  67.898  1.00  0.00    -0.218 A  
HETATM   10  N   UNL     1     -10.946  12.376  67.662  1.00  0.00    -0.227 NA 
BRANCH   9  11
HETATM   11  N   UNL     1      -9.523  14.223  67.783  1.00  0.00    -0.211 NA 
HETATM   12  C   UNL     1      -9.701  15.096  68.957  1.00  0.00    -0.234 C  
HETATM   13  C   UNL     1     -10.377  16.049  66.314  1.00  0.00    -0.321 C  
HETATM   14  C   UNL     1     -10.663  16.279  68.680  1.00  0.00    -0.309 C  
HETATM   15  N   UNL     1     -10.432  17.023  67.421  1.00  0.00    -0.329 NA 
HETATM   16  C   UNL     1      -9.219  17.835  67.485  1.00  0.00    -0.244 C  
HETATM   17  C   UNL     1      -9.357  14.898  66.491  1.00  0.00    -0.282 C  
ENDBRANCH   9  11
BRANCH   8  18
HETATM   18  C   UNL     1      -7.504   9.744  68.289  1.00  0.00    -0.080 A  
HETATM   19  C   UNL     1      -6.168   7.865  67.328  1.00  0.00    -0.054 A  
HETATM   20  C   UNL     1      -5.188   8.026  68.285  1.00  0.00    -0.032 A  
HETATM   21  C   UNL     1      -7.301   8.687  67.351  1.00  0.00    -0.089 A  
HETATM   22  C   UNL     1      -5.342   9.023  69.235  1.00  0.00    -0.036 A  
HETATM   23  C   UNL     1      -6.459   9.903  69.234  1.00  0.00    -0.048 A  
HETATM   24  C   UNL     1      -6.402  10.951  70.306  1.00  0.00    -0.135 C  
ENDBRANCH   8  18
ENDBRANCH   2   5
BRANCH   4  25
HETATM   25  C   UNL     1     -10.382   8.155  70.259  1.00  0.00    -0.209 C  
HETATM   26  C   UNL     1     -11.604   7.459  70.915  1.00  0.00    -0.318 C  
HETATM   27  C   UNL     1     -10.388   9.603  70.762  1.00  0.00    -0.356 C  
BRANCH  25  28
HETATM   28  C   UNL     1      -9.036   7.563  70.761  1.00  0.00    -0.149 A  
HETATM   29  C   UNL     1      -7.237   5.905  70.530  1.00  0.00    -0.083 A  
HETATM   30  C   UNL     1      -8.453   6.463  70.106  1.00  0.00    -0.135 A  
HETATM   31  F   UNL     1      -5.239   7.598  73.797  1.00  0.00    -0.044 F  
HETATM   32  C   UNL     1      -6.664   4.689  69.842  1.00  0.00    -0.037 C  
HETATM   33  F   UNL     1      -7.149   8.308  74.554  1.00  0.00    -0.154 F  
HETATM   34  C   UNL     1      -6.566   6.485  71.617  1.00  0.00    -0.057 A  
HETATM   35  F   UNL     1      -5.425   4.918  69.325  1.00  0.00    -0.006 F  
HETATM   36  F   UNL     1      -7.424   4.242  68.802  1.00  0.00    -0.054 F  
HETATM   37  F   UNL     1      -6.007   9.532  73.169  1.00  0.00     0.006 F  
HETATM   38  C   UNL     1      -6.378   8.249  73.434  1.00  0.00    -0.102 C  
HETATM   39  C   UNL     1      -7.097   7.606  72.271  1.00  0.00    -0.071 A  
HETATM   40  F   UNL     1      -6.527   3.630  70.686  1.00  0.00    -0.027 F  
HETATM   41  C   UNL     1      -8.324   8.136  71.831  1.00  0.00    -0.187 A  
ENDBRANCH  25  28
ENDBRANCH   4  25
TORSDOF 5
ENDMDL
MODEL       70
REMARK 921   NORMALIZED FREE ENERGY PREDICTED BY IDOCK:   -5.74 KCAL/MOL
REMARK 922        TOTAL FREE ENERGY PREDICTED BY IDOCK:   -9.06 KCAL/MOL
REMARK 923 INTER-LIGAND FREE ENERGY PREDICTED BY IDOCK:  -10.00 KCAL/MOL
REMARK 924 INTRA-LIGAND FREE ENERGY PREDICTED BY IDOCK:    0.94 KCAL/MOL
REMARK 927      BINDING AFFINITY PREDICTED BY RF-SCORE:    0.00 PKD
ROOT
HETATM    1  C   UNL     1     -12.503  12.978  65.979  1.00  0.00    -0.186 C  
HETATM    2  N   UNL     1     -11.393  12.687  66.901  1.00  0.00    -0.301 N  
HETATM    3  O   UNL     1     -11.410  10.555  66.148  1.00  0.00     0.204 OA 
HETATM    4  C   UNL     1     -10.797  11.432  66.780  1.00  0.00    -0.286 C  
ENDROOT
BRANCH   2   5
HETATM    5  C   UNL     1     -10.790  13.834  67.454  1.00  0.00    -0.277 A  
HETATM    6  C   UNL     1     -10.264  15.491  69.070  1.00  0.00    -0.229 A  
HETATM    7  C   UNL     1      -9.917  14.540  66.612  1.00  0.00    -0.270 A  
HETATM    8  C   UNL     1     -11.013  14.320  68.756  1.00  0.00    -0.271 A  
HETATM    9  C   UNL     1      -9.308  16.068  68.220  1.00  0.00    -0.199 A  
HETATM   10  N   UNL     1      -9.178  15.606  66.970  1.00  0.00    -0.213 NA 
BRANCH   9  11
HETATM   11  N   UNL     1      -8.465  17.079  68.635  1.00  0.00    -0.259 NA 
HETATM   12  C   UNL     1      -8.920  18.480  68.602  1.00  0.00    -0.296 C  
HETATM   13  C   UNL     1      -6.151  17.831  68.088  1.00  0.00    -0.172 C  
HETATM   14  C   UNL     1      -7.937  19.408  67.844  1.00  0.00    -0.300 C  
HETATM   15  N   UNL     1      -6.506  19.261  68.192  1.00  0.00    -0.221 NA 
HETATM   16  C   UNL     1      -6.212  19.793  69.520  1.00  0.00    -0.324 C  
HETATM   17  C   UNL     1      -7.040  16.865  68.908  1.00  0.00    -0.220 C  
ENDBRANCH   9  11
BRANCH   8  18
HETATM   18  C   UNL     1     -11.833  13.684  69.873  1.00  0.00    -0.389 A  
HETATM   19  C   UNL     1     -12.552  11.520  70.891  1.00  0.00    -0.438 A  
HETATM   20  C   UNL     1     -13.286  12.177  71.856  1.00  0.00    -0.421 A  
HETATM   21  C   UNL     1     -11.868  12.258  69.917  1.00  0.00    -0.383 A  
HETATM   22  C   UNL     1     -13.306  13.563  71.849  1.00  0.00    -0.529 A  
HETATM   23  C   UNL     1     -12.569  14.325  70.901  1.00  0.00    -0.426 A  
HETATM   24  C   UNL     1     -12.674  15.807  71.108  1.00  0.00    -0.488 C  
ENDBRANCH   8  18
ENDBRANCH   2   5
BRANCH   4  25
HETATM   25  C   UNL     1      -9.360  11.058  67.327  1.00  0.00    -0.167 C  
HETATM   26  C   UNL     1      -9.039  12.230  68.292  1.00  0.00    -0.187 C  
HETATM   27  C   UNL     1      -8.159  10.932  66.384  1.00  0.00    -0.164 C  
BRANCH  25  28
HETATM   28  C   UNL     1      -9.429   9.694  68.070  1.00  0.00    -0.146 A  
HETATM   29  C   UNL     1      -9.269   7.243  68.011  1.00  0.00    -0.131 A  
HETATM   30  C   UNL     1      -9.218   8.492  67.371  1.00  0.00    -0.163 A  
HETATM   31  F   UNL     1     -10.002   7.082  72.130  1.00  0.00    -0.167 F  
HETATM   32  C   UNL     1      -9.094   5.965  67.225  1.00  0.00    -0.111 C  
HETATM   33  F   UNL     1     -11.070   8.969  71.979  1.00  0.00    -0.392 F  
HETATM   34  C   UNL     1      -9.502   7.197  69.393  1.00  0.00    -0.153 A  
HETATM   35  F   UNL     1      -8.044   5.221  67.667  1.00  0.00    -0.098 F  
HETATM   36  F   UNL     1      -8.871   6.170  65.895  1.00  0.00    -0.143 F  
HETATM   37  F   UNL     1      -8.924   8.961  72.319  1.00  0.00    -0.293 F  
HETATM   38  C   UNL     1      -9.916   8.343  71.621  1.00  0.00    -0.234 C  
HETATM   39  C   UNL     1      -9.679   8.377  70.129  1.00  0.00    -0.175 A  
HETATM   40  F   UNL     1     -10.186   5.155  67.299  1.00  0.00    -0.178 F  
HETATM   41  C   UNL     1      -9.634   9.614  69.459  1.00  0.00    -0.211 A  
ENDBRANCH  25  28
ENDBRANCH   4  25
TORSDOF 5
ENDMDL
MODEL       71
REMARK 921   NORMALIZED FREE ENERGY PREDICTED BY IDOCK:   -5.71 KCAL/MOL
REMARK 922        TOTAL FREE ENERGY PREDICTED BY IDOCK:   -9.02 KCAL/MOL
REMARK 923 INTER-LIGAND FREE ENERGY PREDICTED BY IDOCK:   -9.52 KCAL/MOL
REMARK 924 INTRA-LIGAND FREE ENERGY PREDICTED BY IDOCK:    0.51 KCAL/MOL
REMARK 927      BINDING AFFINITY PREDICTED BY RF-SCORE:    0.00 PKD
ROOT
HETATM    1  C   UNL     1      -6.826  11.391  66.975  1.00  0.00    -0.137 C  
HETATM    2  N   UNL     1      -8.115  11.137  67.637  1.00  0.00    -0.115 N  
HETATM    3  O   UNL     1      -8.429  13.374  67.746  1.00  0.00    -0.155 OA 
HETATM    4  C   UNL     1      -8.938  12.244  67.842  1.00  0.00    -0.186 C  
ENDROOT
BRANCH   2   5
HETATM    5  C   UNL     1      -8.542   9.796  67.567  1.00  0.00    -0.125 A  
HETATM    6  C   UNL     1      -9.368   7.788  66.610  1.00  0.00    -0.238 A  
HETATM    7  C   UNL     1      -8.497   9.070  68.769  1.00  0.00    -0.131 A  
HETATM    8  C   UNL     1      -9.017   9.154  66.409  1.00  0.00    -0.182 A  
HETATM    9  C   UNL     1      -9.173   7.092  67.813  1.00  0.00    -0.124 A  
HETATM   10  N   UNL     1      -8.776   7.762  68.902  1.00  0.00    -0.135 NA 
BRANCH   9  11
HETATM   11  N   UNL     1      -9.340   5.725  67.910  1.00  0.00    -0.105 NA 
HETATM   12  C   UNL     1      -8.611   4.963  68.939  1.00  0.00    -0.085 C  
HETATM   13  C   UNL     1      -9.168   3.775  66.364  1.00  0.00    -0.171 C  
HETATM   14  C   UNL     1      -7.828   3.763  68.349  1.00  0.00    -0.068 C  
HETATM   15  N   UNL     1      -8.573   2.906  67.398  1.00  0.00    -0.095 NA 
HETATM   16  C   UNL     1      -9.587   2.100  68.074  1.00  0.00    -0.035 C  
HETATM   17  C   UNL     1     -10.045   4.934  66.895  1.00  0.00    -0.222 C  
ENDBRANCH   9  11
BRANCH   8  18
HETATM   18  C   UNL     1      -9.071   9.696  64.985  1.00  0.00    -0.284 A  
HETATM   19  C   UNL     1     -10.301  11.213  63.429  1.00  0.00    -0.419 A  
HETATM   20  C   UNL     1      -9.448  10.899  62.392  1.00  0.00    -0.205 A  
HETATM   21  C   UNL     1     -10.126  10.606  64.679  1.00  0.00    -0.417 A  
HETATM   22  C   UNL     1      -8.417  10.003  62.626  1.00  0.00    -0.180 A  
HETATM   23  C   UNL     1      -8.192   9.425  63.906  1.00  0.00    -0.165 A  
HETATM   24  C   UNL     1      -6.987   8.534  63.961  1.00  0.00    -0.079 C  
ENDBRANCH   8  18
ENDBRANCH   2   5
BRANCH   4  25
HETATM   25  C   UNL     1     -10.494  12.173  68.118  1.00  0.00    -0.225 C  
HETATM   26  C   UNL     1     -10.622  10.973  69.092  1.00  0.00    -0.253 C  
HETATM   27  C   UNL     1     -11.492  11.916  66.983  1.00  0.00    -0.384 C  
BRANCH  25  28
HETATM   28  C   UNL     1     -10.965  13.504  68.769  1.00  0.00    -0.291 A  
HETATM   29  C   UNL     1     -10.980  15.961  68.785  1.00  0.00    -0.301 A  
HETATM   30  C   UNL     1     -10.572  14.740  68.225  1.00  0.00    -0.241 A  
HETATM   31  F   UNL     1     -13.499  15.937  72.129  1.00  0.00    -0.506 F  
HETATM   32  C   UNL     1     -10.496  17.273  68.214  1.00  0.00    -0.385 C  
HETATM   33  F   UNL     1     -12.700  13.990  72.675  1.00  0.00    -0.407 F  
HETATM   34  C   UNL     1     -11.834  15.946  69.897  1.00  0.00    -0.309 A  
HETATM   35  F   UNL     1     -11.520  18.070  67.799  1.00  0.00    -0.073 F  
HETATM   36  F   UNL     1      -9.678  17.128  67.133  1.00  0.00    -0.241 F  
HETATM   37  F   UNL     1     -14.409  14.128  71.338  1.00  0.00    -0.406 F  
HETATM   38  C   UNL     1     -13.209  14.702  71.632  1.00  0.00    -0.349 C  
HETATM   39  C   UNL     1     -12.278  14.733  70.443  1.00  0.00    -0.395 A  
HETATM   40  F   UNL     1      -9.793  18.007  69.119  1.00  0.00    -0.315 F  
HETATM   41  C   UNL     1     -11.842  13.525  69.868  1.00  0.00    -0.386 A  
ENDBRANCH  25  28
ENDBRANCH   4  25
TORSDOF 5
ENDMDL
MODEL       72
REMARK 921   NORMALIZED FREE ENERGY PREDICTED BY IDOCK:   -5.60 KCAL/MOL
REMARK 922        TOTAL FREE ENERGY PREDICTED BY IDOCK:   -8.87 KCAL/MOL
REMARK 923 INTER-LIGAND FREE ENERGY PREDICTED BY IDOCK:   -7.42 KCAL/MOL
REMARK 924 INTRA-LIGAND FREE ENERGY PREDICTED BY IDOCK:   -1.45 KCAL/MOL
REMARK 927      BINDING AFFINITY PREDICTED BY RF-SCORE:    0.00 PKD
ROOT
HETATM    1  C   UNL     1      -6.149   9.996  68.270  1.00  0.00    -0.045 C  
HETATM    2  N   UNL     1      -7.480   9.370  68.310  1.00  0.00    -0.078 N  
HETATM    3  O   UNL     1      -8.309  11.329  69.079  1.00  0.00    -0.114 OA 
HETATM    4  C   UNL     1      -8.556  10.212  68.591  1.00  0.00    -0.123 C  
ENDROOT
BRANCH   2   5
HETATM    5  C   UNL     1      -7.556   8.137  67.633  1.00  0.00    -0.098 A  
HETATM    6  C   UNL     1      -7.863   5.805  67.318  1.00  0.00    -0.102 A  
HETATM    7  C   UNL     1      -7.319   8.177  66.249  1.00  0.00    -0.078 A  
HETATM    8  C   UNL     1      -7.827   6.895  68.235  1.00  0.00    -0.118 A  
HETATM    9  C   UNL     1      -7.745   5.941  65.926  1.00  0.00    -0.095 A  
HETATM   10  N   UNL     1      -7.427   7.134  65.408  1.00  0.00    -0.082 NA 
BRANCH   9  11
HETATM   11  N   UNL     1      -7.981   4.893  65.060  1.00  0.00    -0.096 NA 
HETATM   12  C   UNL     1      -9.189   4.063  65.216  1.00  0.00    -0.151 C  
HETATM   13  C   UNL     1      -6.722   2.888  64.274  1.00  0.00    -0.036 C  
HETATM   14  C   UNL     1      -8.866   2.548  65.284  1.00  0.00    -0.121 C  
HETATM   15  N   UNL     1      -7.928   2.037  64.259  1.00  0.00    -0.072 NA 
HETATM   16  C   UNL     1      -8.541   1.996  62.933  1.00  0.00    -0.077 C  
HETATM   17  C   UNL     1      -6.977   4.406  64.107  1.00  0.00    -0.046 C  
ENDBRANCH   9  11
BRANCH   8  18
HETATM   18  C   UNL     1      -8.206   6.612  69.685  1.00  0.00    -0.127 A  
HETATM   19  C   UNL     1      -9.978   5.688  71.183  1.00  0.00    -0.244 A  
HETATM   20  C   UNL     1      -9.220   5.955  72.303  1.00  0.00    -0.149 A  
HETATM   21  C   UNL     1      -9.489   6.032  69.916  1.00  0.00    -0.175 A  
HETATM   22  C   UNL     1      -7.973   6.539  72.140  1.00  0.00    -0.102 A  
HETATM   23  C   UNL     1      -7.440   6.839  70.856  1.00  0.00    -0.083 A  
HETATM   24  C   UNL     1      -6.052   7.405  70.897  1.00  0.00    -0.035 C  
ENDBRANCH   8  18
ENDBRANCH   2   5
BRANCH   4  25
HETATM   25  C   UNL     1     -10.069   9.883  68.267  1.00  0.00    -0.185 C  
HETATM   26  C   UNL     1     -10.527   9.087  69.517  1.00  0.00    -0.223 C  
HETATM   27  C   UNL     1     -10.455   9.037  67.050  1.00  0.00    -0.316 C  
BRANCH  25  28
HETATM   28  C   UNL     1     -10.862  11.210  68.099  1.00  0.00    -0.266 A  
HETATM   29  C   UNL     1     -12.029  13.119  69.113  1.00  0.00    -0.329 A  
HETATM   30  C   UNL     1     -11.313  11.917  69.228  1.00  0.00    -0.338 A  
HETATM   31  F   UNL     1     -12.791  14.692  65.309  1.00  0.00    -0.361 F  
HETATM   32  C   UNL     1     -12.550  13.828  70.341  1.00  0.00    -0.256 C  
HETATM   33  F   UNL     1     -12.690  12.679  64.494  1.00  0.00    -0.487 F  
HETATM   34  C   UNL     1     -12.269  13.647  67.837  1.00  0.00    -0.185 A  
HETATM   35  F   UNL     1     -12.062  15.094  70.459  1.00  0.00    -0.283 F  
HETATM   36  F   UNL     1     -12.235  13.198  71.509  1.00  0.00    -0.329 F  
HETATM   37  F   UNL     1     -10.882  13.872  64.669  1.00  0.00    -0.347 F  
HETATM   38  C   UNL     1     -12.041  13.555  65.309  1.00  0.00    -0.411 C  
HETATM   39  C   UNL     1     -11.802  12.990  66.690  1.00  0.00    -0.455 A  
HETATM   40  F   UNL     1     -13.906  13.947  70.337  1.00  0.00     0.158 F  
HETATM   41  C   UNL     1     -11.098  11.781  66.835  1.00  0.00    -0.361 A  
ENDBRANCH  25  28
ENDBRANCH   4  25
TORSDOF 5
ENDMDL
MODEL       73
REMARK 921   NORMALIZED FREE ENERGY PREDICTED BY IDOCK:   -5.58 KCAL/MOL
REMARK 922        TOTAL FREE ENERGY PREDICTED BY IDOCK:   -8.85 KCAL/MOL
REMARK 923 INTER-LIGAND FREE ENERGY PREDICTED BY IDOCK:   -6.85 KCAL/MOL
REMARK 924 INTRA-LIGAND FREE ENERGY PREDICTED BY IDOCK:   -2.00 KCAL/MOL
REMARK 927      BINDING AFFINITY PREDICTED BY RF-SCORE:    0.00 PKD
ROOT
HETATM    1  C   UNL     1      -6.828   8.635  69.881  1.00  0.00    -0.042 C  
HETATM    2  N   UNL     1      -7.585   8.863  68.639  1.00  0.00    -0.094 N  
HETATM    3  O   UNL     1      -8.297   6.720  68.755  1.00  0.00    -0.119 OA 
HETATM    4  C   UNL     1      -8.445   7.842  68.239  1.00  0.00    -0.124 C  
ENDROOT
BRANCH   2   5
HETATM    5  C   UNL     1      -7.690  10.219  68.272  1.00  0.00    -0.092 A  
HETATM    6  C   UNL     1      -7.534  12.158  66.911  1.00  0.00    -0.019 A  
HETATM    7  C   UNL     1      -8.207  11.086  69.249  1.00  0.00     0.021 A  
HETATM    8  C   UNL     1      -7.305  10.756  67.030  1.00  0.00    -0.110 A  
HETATM    9  C   UNL     1      -8.177  12.937  67.886  1.00  0.00    -0.165 A  
HETATM   10  N   UNL     1      -8.468  12.393  69.074  1.00  0.00     0.303 NA 
BRANCH   9  11
HETATM   11  N   UNL     1      -8.556  14.244  67.654  1.00  0.00    -0.171 NA 
HETATM   12  C   UNL     1      -7.589  15.206  67.096  1.00  0.00    -0.168 C  
HETATM   13  C   UNL     1      -9.594  16.080  68.985  1.00  0.00    -0.247 C  
HETATM   14  C   UNL     1      -7.479  16.499  67.943  1.00  0.00    -0.150 C  
HETATM   15  N   UNL     1      -8.760  17.120  68.350  1.00  0.00    -0.239 NA 
HETATM   16  C   UNL     1      -9.444  17.744  67.220  1.00  0.00    -0.255 C  
HETATM   17  C   UNL     1      -9.822  14.804  68.139  1.00  0.00    -0.221 C  
ENDBRANCH   9  11
BRANCH   8  18
HETATM   18  C   UNL     1      -6.813  10.013  65.793  1.00  0.00    -0.111 A  
HETATM   19  C   UNL     1      -5.171   8.332  64.947  1.00  0.00    -0.036 A  
HETATM   20  C   UNL     1      -5.653   8.457  63.660  1.00  0.00    -0.066 A  
HETATM   21  C   UNL     1      -5.724   9.109  65.973  1.00  0.00    -0.049 A  
HETATM   22  C   UNL     1      -6.697   9.338  63.423  1.00  0.00    -0.091 A  
HETATM   23  C   UNL     1      -7.306  10.089  64.465  1.00  0.00    -0.142 A  
HETATM   24  C   UNL     1      -8.459  10.931  64.007  1.00  0.00     0.111 C  
ENDBRANCH   8  18
ENDBRANCH   2   5
BRANCH   4  25
HETATM   25  C   UNL     1      -9.647   8.019  67.226  1.00  0.00    -0.210 C  
HETATM   26  C   UNL     1     -10.464   6.715  67.424  1.00  0.00    -0.325 C  
HETATM   27  C   UNL     1      -9.404   8.153  65.719  1.00  0.00    -0.053 C  
BRANCH  25  28
HETATM   28  C   UNL     1     -10.466   9.283  67.612  1.00  0.00    -0.325 A  
HETATM   29  C   UNL     1     -11.646  10.599  69.319  1.00  0.00    -0.346 A  
HETATM   30  C   UNL     1     -10.907   9.469  68.935  1.00  0.00    -0.177 A  
HETATM   31  F   UNL     1     -12.510  13.543  66.470  1.00  0.00    -0.430 F  
HETATM   32  C   UNL     1     -12.154  10.745  70.734  1.00  0.00    -0.372 C  
HETATM   33  F   UNL     1     -12.391  12.027  64.917  1.00  0.00    -0.407 F  
HETATM   34  C   UNL     1     -11.921  11.588  68.363  1.00  0.00    -0.268 A  
HETATM   35  F   UNL     1     -11.686  11.869  71.342  1.00  0.00     0.122 F  
HETATM   36  F   UNL     1     -11.805   9.709  71.548  1.00  0.00    -0.384 F  
HETATM   37  F   UNL     1     -10.601  13.092  65.534  1.00  0.00    -0.270 F  
HETATM   38  C   UNL     1     -11.741  12.519  66.007  1.00  0.00    -0.417 C  
HETATM   39  C   UNL     1     -11.465  11.455  67.044  1.00  0.00    -0.234 A  
HETATM   40  F   UNL     1     -13.512  10.824  70.793  1.00  0.00    -0.287 F  
HETATM   41  C   UNL     1     -10.737  10.305  66.685  1.00  0.00    -0.183 A  
ENDBRANCH  25  28
ENDBRANCH   4  25
TORSDOF 5
ENDMDL
MODEL       74
REMARK 921   NORMALIZED FREE ENERGY PREDICTED BY IDOCK:   -5.57 KCAL/MOL
REMARK 922        TOTAL FREE ENERGY PREDICTED BY IDOCK:   -8.83 KCAL/MOL
REMARK 923 INTER-LIGAND FREE ENERGY PREDICTED BY IDOCK:   -6.29 KCAL/MOL
REMARK 924 INTRA-LIGAND FREE ENERGY PREDICTED BY IDOCK:   -2.55 KCAL/MOL
REMARK 927      BINDING AFFINITY PREDICTED BY RF-SCORE:    0.00 PKD
ROOT
HETATM    1  C   UNL     1      -6.107   6.462  71.698  1.00  0.00    -0.041 C  
HETATM    2  N   UNL     1      -7.177   7.092  70.909  1.00  0.00    -0.070 N  
HETATM    3  O   UNL     1      -8.640   5.656  71.862  1.00  0.00    -0.129 OA 
HETATM    4  C   UNL     1      -8.482   6.697  71.203  1.00  0.00    -0.126 C  
ENDROOT
BRANCH   2   5
HETATM    5  C   UNL     1      -6.802   8.305  70.299  1.00  0.00    -0.036 A  
HETATM    6  C   UNL     1      -6.122   9.798  68.583  1.00  0.00    -0.042 A  
HETATM    7  C   UNL     1      -6.776   9.434  71.134  1.00  0.00    -0.042 A  
HETATM    8  C   UNL     1      -6.443   8.457  68.947  1.00  0.00    -0.049 A  
HETATM    9  C   UNL     1      -6.245  10.900  69.443  1.00  0.00    -0.063 A  
HETATM   10  N   UNL     1      -6.531  10.695  70.735  1.00  0.00    -0.344 NA 
BRANCH   9  11
HETATM   11  N   UNL     1      -6.116  12.200  68.999  1.00  0.00    -0.069 NA 
HETATM   12  C   UNL     1      -5.851  13.286  69.960  1.00  0.00    -0.136 C  
HETATM   13  C   UNL     1      -7.470  13.774  67.617  1.00  0.00    -0.178 C  
HETATM   14  C   UNL     1      -6.858  14.457  69.829  1.00  0.00    -0.095 C  
HETATM   15  N   UNL     1      -7.118  14.938  68.453  1.00  0.00    -0.107 NA 
HETATM   16  C   UNL     1      -5.975  15.667  67.907  1.00  0.00    -0.147 C  
HETATM   17  C   UNL     1      -6.448  12.612  67.631  1.00  0.00    -0.146 C  
ENDBRANCH   9  11
BRANCH   8  18
HETATM   18  C   UNL     1      -6.484   7.414  67.837  1.00  0.00    -0.049 A  
HETATM   19  C   UNL     1      -6.448   4.966  67.341  1.00  0.00    -0.045 A  
HETATM   20  C   UNL     1      -6.537   5.204  65.985  1.00  0.00    -0.048 A  
HETATM   21  C   UNL     1      -6.398   6.046  68.232  1.00  0.00    -0.044 A  
HETATM   22  C   UNL     1      -6.603   6.515  65.542  1.00  0.00    -0.043 A  
HETATM   23  C   UNL     1      -6.613   7.618  66.439  1.00  0.00    -0.050 A  
HETATM   24  C   UNL     1      -6.754   8.948  65.759  1.00  0.00    -0.068 C  
ENDBRANCH   8  18
ENDBRANCH   2   5
BRANCH   4  25
HETATM   25  C   UNL     1      -9.780   7.515  70.821  1.00  0.00    -0.174 C  
HETATM   26  C   UNL     1      -9.499   8.918  71.422  1.00  0.00    -0.344 C  
HETATM   27  C   UNL     1     -11.163   7.096  71.331  1.00  0.00    -0.278 C  
BRANCH  25  28
HETATM   28  C   UNL     1      -9.925   7.564  69.273  1.00  0.00    -0.179 A  
HETATM   29  C   UNL     1     -10.167   6.381  67.134  1.00  0.00    -0.254 A  
HETATM   30  C   UNL     1     -10.032   6.374  68.531  1.00  0.00    -0.155 A  
HETATM   31  F   UNL     1     -10.323  10.043  65.111  1.00  0.00    -0.386 F  
HETATM   32  C   UNL     1     -10.224   5.086  66.357  1.00  0.00    -0.273 C  
HETATM   33  F   UNL     1      -9.172  10.943  66.720  1.00  0.00    -0.154 F  
HETATM   34  C   UNL     1     -10.232   7.611  66.464  1.00  0.00    -0.178 A  
HETATM   35  F   UNL     1     -11.373   4.960  65.638  1.00  0.00    -0.263 F  
HETATM   36  F   UNL     1     -10.154   3.975  67.144  1.00  0.00    -0.230 F  
HETATM   37  F   UNL     1     -11.340  10.872  66.844  1.00  0.00    -0.335 F  
HETATM   38  C   UNL     1     -10.249  10.150  66.467  1.00  0.00    -0.223 C  
HETATM   39  C   UNL     1     -10.166   8.818  67.174  1.00  0.00    -0.346 A  
HETATM   40  F   UNL     1      -9.206   4.972  65.461  1.00  0.00    -0.147 F  
HETATM   41  C   UNL     1     -10.019   8.780  68.573  1.00  0.00    -0.200 A  
ENDBRANCH  25  28
ENDBRANCH   4  25
TORSDOF 5
ENDMDL
MODEL       75
REMARK 921   NORMALIZED FREE ENERGY PREDICTED BY IDOCK:   -5.56 KCAL/MOL
REMARK 922        TOTAL FREE ENERGY PREDICTED BY IDOCK:   -8.83 KCAL/MOL
REMARK 923 INTER-LIGAND FREE ENERGY PREDICTED BY IDOCK:   -7.06 KCAL/MOL
REMARK 924 INTRA-LIGAND FREE ENERGY PREDICTED BY IDOCK:   -1.77 KCAL/MOL
REMARK 927      BINDING AFFINITY PREDICTED BY RF-SCORE:    0.00 PKD
ROOT
HETATM    1  C   UNL     1      -6.206   9.604  70.891  1.00  0.00    -0.087 C  
HETATM    2  N   UNL     1      -6.172   9.806  69.433  1.00  0.00    -0.043 N  
HETATM    3  O   UNL     1      -5.132   7.807  69.244  1.00  0.00    -0.015 OA 
HETATM    4  C   UNL     1      -5.737   8.727  68.666  1.00  0.00    -0.041 C  
ENDROOT
BRANCH   2   5
HETATM    5  C   UNL     1      -6.988  10.862  68.981  1.00  0.00    -0.089 A  
HETATM    6  C   UNL     1      -8.969  12.106  68.576  1.00  0.00    -0.082 A  
HETATM    7  C   UNL     1      -6.327  11.923  68.341  1.00  0.00    -0.052 A  
HETATM    8  C   UNL     1      -8.389  10.916  69.105  1.00  0.00    -0.077 A  
HETATM    9  C   UNL     1      -8.230  13.185  68.067  1.00  0.00    -0.158 A  
HETATM   10  N   UNL     1      -6.905  13.060  67.914  1.00  0.00    -0.112 NA 
BRANCH   9  11
HETATM   11  N   UNL     1      -8.814  14.394  67.749  1.00  0.00    -0.178 NA 
HETATM   12  C   UNL     1     -10.274  14.488  67.577  1.00  0.00    -0.232 C  
HETATM   13  C   UNL     1      -8.509  16.131  65.984  1.00  0.00    -0.120 C  
HETATM   14  C   UNL     1     -10.675  15.140  66.229  1.00  0.00    -0.320 C  
HETATM   15  N   UNL     1      -9.959  16.385  65.872  1.00  0.00    -0.402 NA 
HETATM   16  C   UNL     1     -10.375  17.510  66.707  1.00  0.00    -0.314 C  
HETATM   17  C   UNL     1      -8.036  15.573  67.348  1.00  0.00    -0.177 C  
ENDBRANCH   9  11
BRANCH   8  18
HETATM   18  C   UNL     1      -9.310   9.944  69.834  1.00  0.00    -0.250 A  
HETATM   19  C   UNL     1      -9.393   8.046  71.455  1.00  0.00    -0.182 A  
HETATM   20  C   UNL     1     -10.766   7.974  71.353  1.00  0.00    -0.270 A  
HETATM   21  C   UNL     1      -8.690   8.990  70.695  1.00  0.00    -0.251 A  
HETATM   22  C   UNL     1     -11.420   8.863  70.515  1.00  0.00    -0.231 A  
HETATM   23  C   UNL     1     -10.725   9.864  69.783  1.00  0.00    -0.298 A  
HETATM   24  C   UNL     1     -11.624  10.763  68.987  1.00  0.00    -0.370 C  
ENDBRANCH   8  18
ENDBRANCH   2   5
BRANCH   4  25
HETATM   25  C   UNL     1      -6.019   8.546  67.120  1.00  0.00    -0.054 C  
HETATM   26  C   UNL     1      -5.398   7.157  66.812  1.00  0.00    -0.022 C  
HETATM   27  C   UNL     1      -5.438   9.517  66.087  1.00  0.00    -0.044 C  
BRANCH  25  28
HETATM   28  C   UNL     1      -7.553   8.566  66.868  1.00  0.00    -0.091 A  
HETATM   29  C   UNL     1      -9.522   9.671  65.899  1.00  0.00    -0.296 A  
HETATM   30  C   UNL     1      -8.142   9.622  66.148  1.00  0.00    -0.108 A  
HETATM   31  F   UNL     1     -11.961   6.558  67.273  1.00  0.00     0.189 F  
HETATM   32  C   UNL     1     -10.134  10.846  65.172  1.00  0.00    -0.292 C  
HETATM   33  F   UNL     1     -10.525   6.177  68.859  1.00  0.00    -0.185 F  
HETATM   34  C   UNL     1     -10.332   8.619  66.350  1.00  0.00    -0.127 A  
HETATM   35  F   UNL     1     -10.782  10.474  64.033  1.00  0.00    -0.359 F  
HETATM   36  F   UNL     1      -9.223  11.786  64.791  1.00  0.00    -0.137 F  
HETATM   37  F   UNL     1     -10.297   5.203  66.930  1.00  0.00    -0.194 F  
HETATM   38  C   UNL     1     -10.633   6.384  67.518  1.00  0.00    -0.283 C  
HETATM   39  C   UNL     1      -9.775   7.531  67.038  1.00  0.00    -0.257 A  
HETATM   40  F   UNL     1     -11.055  11.503  65.929  1.00  0.00    -0.331 F  
HETATM   41  C   UNL     1      -8.390   7.515  67.283  1.00  0.00    -0.118 A  
ENDBRANCH  25  28
ENDBRANCH   4  25
TORSDOF 5
ENDMDL
MODEL       76
REMARK 921   NORMALIZED FREE ENERGY PREDICTED BY IDOCK:   -5.54 KCAL/MOL
REMARK 922        TOTAL FREE ENERGY PREDICTED BY IDOCK:   -8.80 KCAL/MOL
REMARK 923 INTER-LIGAND FREE ENERGY PREDICTED BY IDOCK:   -8.55 KCAL/MOL
REMARK 924 INTRA-LIGAND FREE ENERGY PREDICTED BY IDOCK:   -0.25 KCAL/MOL
REMARK 927      BINDING AFFINITY PREDICTED BY RF-SCORE:    0.00 PKD
ROOT
HETATM    1  C   UNL     1      -8.010  10.188  65.037  1.00  0.00    -0.146 C  
HETATM    2  N   UNL     1      -8.568  10.664  66.313  1.00  0.00    -0.147 N  
HETATM    3  O   UNL     1      -9.052   8.516  66.829  1.00  0.00    -0.138 OA 
HETATM    4  C   UNL     1      -8.931   9.684  67.237  1.00  0.00    -0.134 C  
ENDROOT
BRANCH   2   5
HETATM    5  C   UNL     1      -8.250  12.002  66.616  1.00  0.00    -0.056 A  
HETATM    6  C   UNL     1      -8.500  14.359  66.736  1.00  0.00    -0.076 A  
HETATM    7  C   UNL     1      -7.025  12.214  67.269  1.00  0.00    -0.148 A  
HETATM    8  C   UNL     1      -9.048  13.118  66.301  1.00  0.00     0.009 A  
HETATM    9  C   UNL     1      -7.329  14.481  67.500  1.00  0.00    -0.189 A  
HETATM   10  N   UNL     1      -6.574  13.397  67.721  1.00  0.00    -0.152 NA 
BRANCH   9  11
HETATM   11  N   UNL     1      -6.939  15.677  68.068  1.00  0.00    -0.119 NA 
HETATM   12  C   UNL     1      -7.778  16.314  69.098  1.00  0.00    -0.229 C  
HETATM   13  C   UNL     1      -6.272  17.932  67.236  1.00  0.00    -0.155 C  
HETATM   14  C   UNL     1      -8.107  17.792  68.768  1.00  0.00    -0.226 C  
HETATM   15  N   UNL     1      -6.967  18.631  68.336  1.00  0.00    -0.252 NA 
HETATM   16  C   UNL     1      -6.060  18.928  69.442  1.00  0.00    -0.265 C  
HETATM   17  C   UNL     1      -5.829  16.482  67.546  1.00  0.00    -0.150 C  
ENDBRANCH   9  11
BRANCH   8  18
HETATM   18  C   UNL     1     -10.443  13.136  65.688  1.00  0.00    -0.290 A  
HETATM   19  C   UNL     1     -11.768  12.658  63.625  1.00  0.00    -0.597 A  
HETATM   20  C   UNL     1     -12.936  13.055  64.241  1.00  0.00     0.025 A  
HETATM   21  C   UNL     1     -10.557  12.723  64.327  1.00  0.00    -0.424 A  
HETATM   22  C   UNL     1     -12.882  13.487  65.557  1.00  0.00    -0.406 A  
HETATM   23  C   UNL     1     -11.670  13.502  66.299  1.00  0.00    -0.401 A  
HETATM   24  C   UNL     1     -11.840  13.942  67.723  1.00  0.00    -0.415 C  
ENDBRANCH   8  18
ENDBRANCH   2   5
BRANCH   4  25
HETATM   25  C   UNL     1      -9.132   9.933  68.786  1.00  0.00    -0.147 C  
HETATM   26  C   UNL     1     -10.008  11.213  68.823  1.00  0.00    -0.207 C  
HETATM   27  C   UNL     1      -7.938  10.201  69.709  1.00  0.00    -0.172 C  
BRANCH  25  28
HETATM   28  C   UNL     1      -9.858   8.712  69.416  1.00  0.00    -0.184 A  
HETATM   29  C   UNL     1     -11.785   7.794  70.634  1.00  0.00    -0.191 A  
HETATM   30  C   UNL     1     -11.099   8.875  70.057  1.00  0.00    -0.180 A  
HETATM   31  F   UNL     1     -10.129   3.957  70.389  1.00  0.00    -0.265 F  
HETATM   32  C   UNL     1     -13.089   8.008  71.365  1.00  0.00    -0.237 C  
HETATM   33  F   UNL     1      -8.153   4.854  70.260  1.00  0.00    -0.071 F  
HETATM   34  C   UNL     1     -11.231   6.510  70.537  1.00  0.00    -0.401 A  
HETATM   35  F   UNL     1     -14.114   7.296  70.822  1.00  0.00    -0.357 F  
HETATM   36  F   UNL     1     -13.503   9.308  71.372  1.00  0.00    -0.366 F  
HETATM   37  F   UNL     1      -9.312   4.514  68.454  1.00  0.00    -0.136 F  
HETATM   38  C   UNL     1      -9.413   4.922  69.749  1.00  0.00    -0.154 C  
HETATM   39  C   UNL     1     -10.014   6.302  69.873  1.00  0.00    -0.206 A  
HETATM   40  F   UNL     1     -13.022   7.632  72.671  1.00  0.00    -0.042 F  
HETATM   41  C   UNL     1      -9.344   7.406  69.315  1.00  0.00    -0.154 A  
ENDBRANCH  25  28
ENDBRANCH   4  25
TORSDOF 5
ENDMDL
MODEL       77
REMARK 921   NORMALIZED FREE ENERGY PREDICTED BY IDOCK:   -5.54 KCAL/MOL
REMARK 922        TOTAL FREE ENERGY PREDICTED BY IDOCK:   -8.80 KCAL/MOL
REMARK 923 INTER-LIGAND FREE ENERGY PREDICTED BY IDOCK:   -8.50 KCAL/MOL
REMARK 924 INTRA-LIGAND FREE ENERGY PREDICTED BY IDOCK:   -0.30 KCAL/MOL
REMARK 927      BINDING AFFINITY PREDICTED BY RF-SCORE:    0.00 PKD
ROOT
HETATM    1  C   UNL     1     -13.090   8.165  71.699  1.00  0.00    -0.335 C  
HETATM    2  N   UNL     1     -11.677   8.504  71.464  1.00  0.00    -0.281 N  
HETATM    3  O   UNL     1     -11.225   7.808  73.567  1.00  0.00    -0.248 OA 
HETATM    4  C   UNL     1     -10.772   8.119  72.452  1.00  0.00    -0.334 C  
ENDROOT
BRANCH   2   5
HETATM    5  C   UNL     1     -11.363   8.754  70.113  1.00  0.00    -0.090 A  
HETATM    6  C   UNL     1     -11.097   9.977  68.097  1.00  0.00    -0.252 A  
HETATM    7  C   UNL     1     -10.893   7.655  69.375  1.00  0.00    -0.127 A  
HETATM    8  C   UNL     1     -11.502   9.994  69.463  1.00  0.00    -0.176 A  
HETATM    9  C   UNL     1     -10.513   8.870  67.460  1.00  0.00    -0.269 A  
HETATM   10  N   UNL     1     -10.459   7.697  68.103  1.00  0.00    -0.200 NA 
BRANCH   9  11
HETATM   11  N   UNL     1      -9.955   8.953  66.201  1.00  0.00    -0.278 NA 
HETATM   12  C   UNL     1      -8.972   7.946  65.761  1.00  0.00    -0.080 C  
HETATM   13  C   UNL     1      -8.750  10.689  64.875  1.00  0.00    -0.168 C  
HETATM   14  C   UNL     1      -7.664   8.584  65.230  1.00  0.00    -0.097 C  
HETATM   15  N   UNL     1      -7.827   9.705  64.276  1.00  0.00    -0.122 NA 
HETATM   16  C   UNL     1      -8.303   9.244  62.973  1.00  0.00    -0.195 C  
HETATM   17  C   UNL     1     -10.117  10.125  65.333  1.00  0.00    -0.272 C  
ENDBRANCH   9  11
BRANCH   8  18
HETATM   18  C   UNL     1     -11.897  11.336  70.067  1.00  0.00    -0.448 A  
HETATM   19  C   UNL     1     -13.209  12.447  71.879  1.00  0.00    -0.486 A  
HETATM   20  C   UNL     1     -12.827  13.697  71.438  1.00  0.00    -0.442 A  
HETATM   21  C   UNL     1     -12.773  11.306  71.193  1.00  0.00    -0.492 A  
HETATM   22  C   UNL     1     -11.994  13.788  70.333  1.00  0.00    -0.385 A  
HETATM   23  C   UNL     1     -11.496  12.636  69.664  1.00  0.00    -0.252 A  
HETATM   24  C   UNL     1     -10.559  12.952  68.536  1.00  0.00    -0.270 C  
ENDBRANCH   8  18
ENDBRANCH   2   5
BRANCH   4  25
HETATM   25  C   UNL     1      -9.210   7.977  72.242  1.00  0.00    -0.243 C  
HETATM   26  C   UNL     1      -8.648   8.141  73.679  1.00  0.00    -0.312 C  
HETATM   27  C   UNL     1      -8.435   8.962  71.359  1.00  0.00    -0.216 C  
BRANCH  25  28
HETATM   28  C   UNL     1      -8.894   6.575  71.649  1.00  0.00    -0.135 A  
HETATM   29  C   UNL     1      -7.814   5.206  69.918  1.00  0.00    -0.075 A  
HETATM   30  C   UNL     1      -8.122   6.455  70.479  1.00  0.00    -0.117 A  
HETATM   31  F   UNL     1      -9.167   1.725  71.810  1.00  0.00    -0.103 F  
HETATM   32  C   UNL     1      -7.031   5.109  68.630  1.00  0.00    -0.056 C  
HETATM   33  F   UNL     1     -10.821   2.861  72.644  1.00  0.00    -0.215 F  
HETATM   34  C   UNL     1      -8.259   4.043  70.564  1.00  0.00    -0.073 A  
HETATM   35  F   UNL     1      -5.876   4.402  68.773  1.00  0.00    -0.020 F  
HETATM   36  F   UNL     1      -6.664   6.321  68.124  1.00  0.00    -0.056 F  
HETATM   37  F   UNL     1      -8.930   2.754  73.710  1.00  0.00    -0.074 F  
HETATM   38  C   UNL     1      -9.472   2.878  72.467  1.00  0.00    -0.109 C  
HETATM   39  C   UNL     1      -8.998   4.123  71.753  1.00  0.00    -0.157 A  
HETATM   40  F   UNL     1      -7.730   4.489  67.641  1.00  0.00    -0.081 F  
HETATM   41  C   UNL     1      -9.302   5.389  72.285  1.00  0.00    -0.158 A  
ENDBRANCH  25  28
ENDBRANCH   4  25
TORSDOF 5
ENDMDL
MODEL       78
REMARK 921   NORMALIZED FREE ENERGY PREDICTED BY IDOCK:   -5.54 KCAL/MOL
REMARK 922        TOTAL FREE ENERGY PREDICTED BY IDOCK:   -8.80 KCAL/MOL
REMARK 923 INTER-LIGAND FREE ENERGY PREDICTED BY IDOCK:   -8.35 KCAL/MOL
REMARK 924 INTRA-LIGAND FREE ENERGY PREDICTED BY IDOCK:   -0.44 KCAL/MOL
REMARK 927      BINDING AFFINITY PREDICTED BY RF-SCORE:    0.00 PKD
ROOT
HETATM    1  C   UNL     1      -7.394   8.683  70.526  1.00  0.00    -0.058 C  
HETATM    2  N   UNL     1      -8.014   8.835  69.200  1.00  0.00    -0.107 N  
HETATM    3  O   UNL     1      -7.835   6.597  68.930  1.00  0.00    -0.107 OA 
HETATM    4  C   UNL     1      -8.344   7.658  68.529  1.00  0.00    -0.129 C  
ENDROOT
BRANCH   2   5
HETATM    5  C   UNL     1      -8.596  10.099  68.979  1.00  0.00    -0.156 A  
HETATM    6  C   UNL     1     -10.168  11.868  69.154  1.00  0.00     0.089 A  
HETATM    7  C   UNL     1      -7.889  10.964  68.127  1.00  0.00    -0.114 A  
HETATM    8  C   UNL     1      -9.817  10.537  69.524  1.00  0.00    -0.170 A  
HETATM    9  C   UNL     1      -9.346  12.721  68.402  1.00  0.00    -0.143 A  
HETATM   10  N   UNL     1      -8.223  12.238  67.855  1.00  0.00    -0.150 NA 
BRANCH   9  11
HETATM   11  N   UNL     1      -9.632  14.061  68.232  1.00  0.00    -0.220 NA 
HETATM   12  C   UNL     1     -10.558  14.742  69.155  1.00  0.00    -0.248 C  
HETATM   13  C   UNL     1     -10.450  15.505  66.369  1.00  0.00    -0.306 C  
HETATM   14  C   UNL     1     -11.696  15.488  68.414  1.00  0.00    -0.309 C  
HETATM   15  N   UNL     1     -11.283  16.328  67.267  1.00  0.00    -0.044 NA 
HETATM   16  C   UNL     1     -10.578  17.532  67.702  1.00  0.00    -0.355 C  
HETATM   17  C   UNL     1      -9.236  14.814  67.037  1.00  0.00    -0.233 C  
ENDBRANCH   9  11
BRANCH   8  18
HETATM   18  C   UNL     1     -10.707   9.826  70.536  1.00  0.00    -0.381 A  
HETATM   19  C   UNL     1     -10.727   8.277  72.495  1.00  0.00    -0.411 A  
HETATM   20  C   UNL     1     -12.102   8.345  72.579  1.00  0.00    -0.403 A  
HETATM   21  C   UNL     1     -10.059   8.980  71.485  1.00  0.00    -0.409 A  
HETATM   22  C   UNL     1     -12.787   9.134  71.669  1.00  0.00    -0.431 A  
HETATM   23  C   UNL     1     -12.116   9.900  70.676  1.00  0.00    -0.343 A  
HETATM   24  C   UNL     1     -13.036  10.735  69.836  1.00  0.00     0.159 C  
ENDBRANCH   8  18
ENDBRANCH   2   5
BRANCH   4  25
HETATM   25  C   UNL     1      -9.379   7.558  67.337  1.00  0.00    -0.164 C  
HETATM   26  C   UNL     1     -10.741   7.813  68.035  1.00  0.00    -0.130 C  
HETATM   27  C   UNL     1      -9.542   6.264  66.532  1.00  0.00    -0.183 C  
BRANCH  25  28
HETATM   28  C   UNL     1      -9.055   8.649  66.278  1.00  0.00    -0.233 A  
HETATM   29  C   UNL     1      -7.499   9.602  64.632  1.00  0.00    -0.123 A  
HETATM   30  C   UNL     1      -7.824   8.635  65.597  1.00  0.00    -0.101 A  
HETATM   31  F   UNL     1     -10.292  12.577  63.695  1.00  0.00    -0.387 F  
HETATM   32  C   UNL     1      -6.147   9.596  63.957  1.00  0.00    -0.102 C  
HETATM   33  F   UNL     1     -11.132  12.369  65.689  1.00  0.00    -0.302 F  
HETATM   34  C   UNL     1      -8.444  10.588  64.313  1.00  0.00    -0.128 A  
HETATM   35  F   UNL     1      -6.241   9.476  62.605  1.00  0.00    -0.096 F  
HETATM   36  F   UNL     1      -5.339   8.577  64.366  1.00  0.00    -0.041 F  
HETATM   37  F   UNL     1     -11.860  11.118  64.068  1.00  0.00    -0.229 F  
HETATM   38  C   UNL     1     -10.729  11.658  64.601  1.00  0.00    -0.315 C  
HETATM   39  C   UNL     1      -9.696  10.610  64.944  1.00  0.00    -0.341 A  
HETATM   40  F   UNL     1      -5.447  10.740  64.185  1.00  0.00    -0.147 F  
HETATM   41  C   UNL     1      -9.989   9.636  65.916  1.00  0.00    -0.351 A  
ENDBRANCH  25  28
ENDBRANCH   4  25
TORSDOF 5
ENDMDL
MODEL       79
REMARK 921   NORMALIZED FREE ENERGY PREDICTED BY IDOCK:   -5.53 KCAL/MOL
REMARK 922        TOTAL FREE ENERGY PREDICTED BY IDOCK:   -8.79 KCAL/MOL
REMARK 923 INTER-LIGAND FREE ENERGY PREDICTED BY IDOCK:   -8.34 KCAL/MOL
REMARK 924 INTRA-LIGAND FREE ENERGY PREDICTED BY IDOCK:   -0.45 KCAL/MOL
REMARK 927      BINDING AFFINITY PREDICTED BY RF-SCORE:    0.00 PKD
ROOT
HETATM    1  C   UNL     1     -10.187   9.602  70.149  1.00  0.00    -0.264 C  
HETATM    2  N   UNL     1     -10.318  10.312  68.866  1.00  0.00    -0.192 N  
HETATM    3  O   UNL     1     -11.551  11.880  69.932  1.00  0.00    -0.296 OA 
HETATM    4  C   UNL     1     -10.911  11.573  68.911  1.00  0.00    -0.229 C  
ENDROOT
BRANCH   2   5
HETATM    5  C   UNL     1      -9.447   9.848  67.861  1.00  0.00    -0.133 A  
HETATM    6  C   UNL     1      -7.408   9.474  66.705  1.00  0.00    -0.090 A  
HETATM    7  C   UNL     1     -10.041   9.128  66.813  1.00  0.00    -0.271 A  
HETATM    8  C   UNL     1      -8.057  10.068  67.827  1.00  0.00    -0.109 A  
HETATM    9  C   UNL     1      -8.050   8.655  65.764  1.00  0.00    -0.114 A  
HETATM   10  N   UNL     1      -9.383   8.527  65.806  1.00  0.00    -0.165 NA 
BRANCH   9  11
HETATM   11  N   UNL     1      -7.354   7.941  64.810  1.00  0.00    -0.078 NA 
HETATM   12  C   UNL     1      -7.991   7.613  63.522  1.00  0.00    -0.091 C  
HETATM   13  C   UNL     1      -6.110   5.781  64.729  1.00  0.00    -0.025 C  
HETATM   14  C   UNL     1      -7.914   6.102  63.188  1.00  0.00    -0.102 C  
HETATM   15  N   UNL     1      -6.592   5.462  63.371  1.00  0.00    -0.026 NA 
HETATM   16  C   UNL     1      -5.637   5.886  62.348  1.00  0.00    -0.021 C  
HETATM   17  C   UNL     1      -6.070   7.287  65.084  1.00  0.00    -0.038 C  
ENDBRANCH   9  11
BRANCH   8  18
HETATM   18  C   UNL     1      -7.180  10.730  68.883  1.00  0.00    -0.088 A  
HETATM   19  C   UNL     1      -6.234  12.901  69.674  1.00  0.00    -0.114 A  
HETATM   20  C   UNL     1      -5.584  12.278  70.718  1.00  0.00    -0.139 A  
HETATM   21  C   UNL     1      -6.988  12.139  68.772  1.00  0.00    -0.101 A  
HETATM   22  C   UNL     1      -5.717  10.906  70.862  1.00  0.00    -0.062 A  
HETATM   23  C   UNL     1      -6.528  10.129  69.989  1.00  0.00    -0.106 A  
HETATM   24  C   UNL     1      -6.589   8.676  70.357  1.00  0.00    -0.037 C  
ENDBRANCH   8  18
ENDBRANCH   2   5
BRANCH   4  25
HETATM   25  C   UNL     1     -10.772  12.677  67.787  1.00  0.00    -0.239 C  
HETATM   26  C   UNL     1     -12.019  12.428  66.897  1.00  0.00    -0.266 C  
HETATM   27  C   UNL     1      -9.565  12.702  66.843  1.00  0.00    -0.232 C  
BRANCH  25  28
HETATM   28  C   UNL     1     -10.796  14.087  68.441  1.00  0.00    -0.263 A  
HETATM   29  C   UNL     1     -10.382  16.503  68.273  1.00  0.00    -0.293 A  
HETATM   30  C   UNL     1     -10.370  15.215  67.716  1.00  0.00    -0.243 A  
HETATM   31  F   UNL     1     -11.784  17.028  72.183  1.00  0.00    -0.429 F  
HETATM   32  C   UNL     1      -9.866  17.688  67.491  1.00  0.00    -0.299 C  
HETATM   33  F   UNL     1     -11.210  14.980  72.628  1.00  0.00    -0.469 F  
HETATM   34  C   UNL     1     -10.865  16.674  69.578  1.00  0.00    -0.285 A  
HETATM   35  F   UNL     1     -10.812  18.653  67.322  1.00  0.00    -0.440 F  
HETATM   36  F   UNL     1      -9.434  17.367  66.238  1.00  0.00    -0.259 F  
HETATM   37  F   UNL     1     -13.183  15.404  71.820  1.00  0.00    -0.373 F  
HETATM   38  C   UNL     1     -11.869  15.750  71.720  1.00  0.00    -0.467 C  
HETATM   39  C   UNL     1     -11.333  15.579  70.318  1.00  0.00    -0.348 A  
HETATM   40  F   UNL     1      -8.814  18.298  68.102  1.00  0.00    -0.263 F  
HETATM   41  C   UNL     1     -11.299  14.298  69.738  1.00  0.00    -0.279 A  
ENDBRANCH  25  28
ENDBRANCH   4  25
TORSDOF 5
ENDMDL
MODEL       80
REMARK 921   NORMALIZED FREE ENERGY PREDICTED BY IDOCK:   -5.50 KCAL/MOL
REMARK 922        TOTAL FREE ENERGY PREDICTED BY IDOCK:   -8.74 KCAL/MOL
REMARK 923 INTER-LIGAND FREE ENERGY PREDICTED BY IDOCK:   -7.80 KCAL/MOL
REMARK 924 INTRA-LIGAND FREE ENERGY PREDICTED BY IDOCK:   -0.94 KCAL/MOL
REMARK 927      BINDING AFFINITY PREDICTED BY RF-SCORE:    0.00 PKD
ROOT
HETATM    1  C   UNL     1     -11.836  12.443  68.537  1.00  0.00    -0.304 C  
HETATM    2  N   UNL     1     -10.366  12.393  68.477  1.00  0.00    -0.231 N  
HETATM    3  O   UNL     1     -10.482  10.198  69.007  1.00  0.00    -0.194 OA 
HETATM    4  C   UNL     1      -9.782  11.131  68.576  1.00  0.00    -0.196 C  
ENDROOT
BRANCH   2   5
HETATM    5  C   UNL     1      -9.776  13.528  67.886  1.00  0.00    -0.225 A  
HETATM    6  C   UNL     1      -9.155  15.061  66.184  1.00  0.00    -0.237 A  
HETATM    7  C   UNL     1      -9.080  14.385  68.753  1.00  0.00    -0.133 A  
HETATM    8  C   UNL     1      -9.820  13.845  66.515  1.00  0.00    -0.296 A  
HETATM    9  C   UNL     1      -8.591  15.934  67.126  1.00  0.00    -0.196 A  
HETATM   10  N   UNL     1      -8.521  15.559  68.410  1.00  0.00    -0.158 NA 
BRANCH   9  11
HETATM   11  N   UNL     1      -8.134  17.192  66.786  1.00  0.00    -0.222 NA 
HETATM   12  C   UNL     1      -6.822  17.349  66.135  1.00  0.00    -0.243 C  
HETATM   13  C   UNL     1      -7.793  19.363  67.966  1.00  0.00    -0.302 C  
HETATM   14  C   UNL     1      -5.913  18.370  66.865  1.00  0.00    -0.149 C  
HETATM   15  N   UNL     1      -6.546  19.657  67.233  1.00  0.00    -0.195 NA 
HETATM   16  C   UNL     1      -6.795  20.495  66.062  1.00  0.00    -0.212 C  
HETATM   17  C   UNL     1      -8.787  18.426  67.238  1.00  0.00    -0.259 C  
ENDBRANCH   9  11
BRANCH   8  18
HETATM   18  C   UNL     1     -10.583  13.130  65.406  1.00  0.00    -0.311 A  
HETATM   19  C   UNL     1     -10.434  11.372  63.639  1.00  0.00    -0.472 A  
HETATM   20  C   UNL     1     -11.738  11.600  63.252  1.00  0.00    -0.233 A  
HETATM   21  C   UNL     1      -9.872  12.136  64.669  1.00  0.00    -0.153 A  
HETATM   22  C   UNL     1     -12.470  12.571  63.918  1.00  0.00    -0.540 A  
HETATM   23  C   UNL     1     -11.931  13.312  65.005  1.00  0.00    -0.407 A  
HETATM   24  C   UNL     1     -12.907  14.265  65.628  1.00  0.00    -0.321 C  
ENDBRANCH   8  18
ENDBRANCH   2   5
BRANCH   4  25
HETATM   25  C   UNL     1      -8.311  10.777  68.114  1.00  0.00    -0.120 C  
HETATM   26  C   UNL     1      -7.431  11.616  69.077  1.00  0.00    -0.051 C  
HETATM   27  C   UNL     1      -7.826  11.097  66.696  1.00  0.00    -0.155 C  
BRANCH  25  28
HETATM   28  C   UNL     1      -8.069   9.251  68.284  1.00  0.00    -0.107 A  
HETATM   29  C   UNL     1      -7.465   7.353  69.723  1.00  0.00    -0.092 A  
HETATM   30  C   UNL     1      -7.689   8.726  69.533  1.00  0.00    -0.089 A  
HETATM   31  F   UNL     1      -8.005   4.726  66.509  1.00  0.00    -0.099 F  
HETATM   32  C   UNL     1      -7.003   6.825  71.061  1.00  0.00    -0.067 C  
HETATM   33  F   UNL     1      -7.555   6.357  65.144  1.00  0.00    -0.071 F  
HETATM   34  C   UNL     1      -7.660   6.477  68.646  1.00  0.00    -0.097 A  
HETATM   35  F   UNL     1      -7.866   5.912  71.587  1.00  0.00    -0.098 F  
HETATM   36  F   UNL     1      -6.862   7.793  72.010  1.00  0.00    -0.054 F  
HETATM   37  F   UNL     1      -9.598   6.029  65.808  1.00  0.00    -0.133 F  
HETATM   38  C   UNL     1      -8.304   6.026  66.231  1.00  0.00    -0.122 C  
HETATM   39  C   UNL     1      -8.075   6.959  67.397  1.00  0.00    -0.115 A  
HETATM   40  F   UNL     1      -5.797   6.199  70.985  1.00  0.00    -0.022 F  
HETATM   41  C   UNL     1      -8.281   8.342  67.232  1.00  0.00    -0.120 A  
ENDBRANCH  25  28
ENDBRANCH   4  25
TORSDOF 5
ENDMDL
MODEL       81
REMARK 921   NORMALIZED FREE ENERGY PREDICTED BY IDOCK:   -5.47 KCAL/MOL
REMARK 922        TOTAL FREE ENERGY PREDICTED BY IDOCK:   -8.71 KCAL/MOL
REMARK 923 INTER-LIGAND FREE ENERGY PREDICTED BY IDOCK:   -8.42 KCAL/MOL
REMARK 924 INTRA-LIGAND FREE ENERGY PREDICTED BY IDOCK:   -0.29 KCAL/MOL
REMARK 927      BINDING AFFINITY PREDICTED BY RF-SCORE:    0.00 PKD
ROOT
HETATM    1  C   UNL     1     -13.105   7.978  71.685  1.00  0.00    -0.329 C  
HETATM    2  N   UNL     1     -11.708   8.386  71.470  1.00  0.00    -0.277 N  
HETATM    3  O   UNL     1     -11.238   7.652  73.557  1.00  0.00    -0.283 OA 
HETATM    4  C   UNL     1     -10.793   8.014  72.454  1.00  0.00    -0.327 C  
ENDROOT
BRANCH   2   5
HETATM    5  C   UNL     1     -11.397   8.686  70.129  1.00  0.00    -0.078 A  
HETATM    6  C   UNL     1     -11.156   9.980  68.154  1.00  0.00    -0.252 A  
HETATM    7  C   UNL     1     -10.900   7.624  69.357  1.00  0.00    -0.127 A  
HETATM    8  C   UNL     1     -11.565   9.943  69.519  1.00  0.00    -0.056 A  
HETATM    9  C   UNL     1     -10.546   8.909  67.484  1.00  0.00    -0.237 A  
HETATM   10  N   UNL     1     -10.465   7.717  68.088  1.00  0.00    -0.200 NA 
BRANCH   9  11
HETATM   11  N   UNL     1      -9.987   9.045  66.229  1.00  0.00    -0.295 NA 
HETATM   12  C   UNL     1      -8.795   8.261  65.862  1.00  0.00    -0.160 C  
HETATM   13  C   UNL     1      -9.163  10.932  64.820  1.00  0.00    -0.201 C  
HETATM   14  C   UNL     1      -7.647   9.145  65.311  1.00  0.00    -0.098 C  
HETATM   15  N   UNL     1      -8.030  10.147  64.292  1.00  0.00    -0.157 NA 
HETATM   16  C   UNL     1      -8.358   9.522  63.012  1.00  0.00    -0.175 C  
HETATM   17  C   UNL     1     -10.382  10.103  65.292  1.00  0.00    -0.084 C  
ENDBRANCH   9  11
BRANCH   8  18
HETATM   18  C   UNL     1     -11.992  11.256  70.165  1.00  0.00    -0.452 A  
HETATM   19  C   UNL     1     -13.266  12.274  72.056  1.00  0.00    -0.508 A  
HETATM   20  C   UNL     1     -12.964  13.547  71.621  1.00  0.00    -0.447 A  
HETATM   21  C   UNL     1     -12.811  11.167  71.330  1.00  0.00    -0.515 A  
HETATM   22  C   UNL     1     -12.189  13.695  70.481  1.00  0.00    -0.438 A  
HETATM   23  C   UNL     1     -11.671  12.579  69.768  1.00  0.00    -0.355 A  
HETATM   24  C   UNL     1     -10.805  12.957  68.603  1.00  0.00    -0.288 C  
ENDBRANCH   8  18
ENDBRANCH   2   5
BRANCH   4  25
HETATM   25  C   UNL     1      -9.225   7.948  72.251  1.00  0.00    -0.223 C  
HETATM   26  C   UNL     1      -8.677   8.229  73.675  1.00  0.00    -0.244 C  
HETATM   27  C   UNL     1      -8.504   8.920  71.311  1.00  0.00    -0.239 C  
BRANCH  25  28
HETATM   28  C   UNL     1      -8.829   6.534  71.743  1.00  0.00    -0.138 A  
HETATM   29  C   UNL     1      -9.169   4.100  71.781  1.00  0.00    -0.181 A  
HETATM   30  C   UNL     1      -9.498   5.392  72.220  1.00  0.00    -0.165 A  
HETATM   31  F   UNL     1      -6.153   3.620  68.918  1.00  0.00    -0.024 F  
HETATM   32  C   UNL     1      -9.867   2.889  72.353  1.00  0.00    -0.158 C  
HETATM   33  F   UNL     1      -5.248   5.472  69.609  1.00  0.00    -0.003 F  
HETATM   34  C   UNL     1      -8.167   3.947  70.813  1.00  0.00    -0.077 A  
HETATM   35  F   UNL     1     -10.502   2.154  71.399  1.00  0.00    -0.081 F  
HETATM   36  F   UNL     1     -10.819   3.195  73.280  1.00  0.00    -0.232 F  
HETATM   37  F   UNL     1      -6.770   5.519  68.058  1.00  0.00    -0.047 F  
HETATM   38  C   UNL     1      -6.432   4.916  69.231  1.00  0.00    -0.036 C  
HETATM   39  C   UNL     1      -7.503   5.064  70.286  1.00  0.00    -0.059 A  
HETATM   40  F   UNL     1      -9.006   2.036  72.972  1.00  0.00    -0.064 F  
HETATM   41  C   UNL     1      -7.847   6.346  70.753  1.00  0.00    -0.106 A  
ENDBRANCH  25  28
ENDBRANCH   4  25
TORSDOF 5
ENDMDL
MODEL       82
REMARK 921   NORMALIZED FREE ENERGY PREDICTED BY IDOCK:   -5.35 KCAL/MOL
REMARK 922        TOTAL FREE ENERGY PREDICTED BY IDOCK:   -8.55 KCAL/MOL
REMARK 923 INTER-LIGAND FREE ENERGY PREDICTED BY IDOCK:   -8.09 KCAL/MOL
REMARK 924 INTRA-LIGAND FREE ENERGY PREDICTED BY IDOCK:   -0.46 KCAL/MOL
REMARK 927      BINDING AFFINITY PREDICTED BY RF-SCORE:    0.00 PKD
ROOT
HETATM    1  C   UNL     1      -9.532   8.602  72.898  1.00  0.00     0.034 C  
HETATM    2  N   UNL     1      -8.668   8.574  71.707  1.00  0.00    -0.186 N  
HETATM    3  O   UNL     1      -7.482   6.915  72.684  1.00  0.00    -0.088 OA 
HETATM    4  C   UNL     1      -7.735   7.540  71.639  1.00  0.00    -0.085 C  
ENDROOT
BRANCH   2   5
HETATM    5  C   UNL     1      -9.179   9.294  70.610  1.00  0.00    -0.264 A  
HETATM    6  C   UNL     1     -10.779  10.131  69.069  1.00  0.00    -0.249 A  
HETATM    7  C   UNL     1      -8.246  10.036  69.868  1.00  0.00    -0.159 A  
HETATM    8  C   UNL     1     -10.527   9.306  70.203  1.00  0.00    -0.265 A  
HETATM    9  C   UNL     1      -9.816  10.948  68.457  1.00  0.00    -0.184 A  
HETATM   10  N   UNL     1      -8.536  10.855  68.842  1.00  0.00    -0.158 NA 
BRANCH   9  11
HETATM   11  N   UNL     1     -10.143  11.878  67.491  1.00  0.00    -0.192 NA 
HETATM   12  C   UNL     1     -11.522  12.387  67.392  1.00  0.00    -0.352 C  
HETATM   13  C   UNL     1      -9.914  12.056  65.014  1.00  0.00    -0.233 C  
HETATM   14  C   UNL     1     -12.104  12.257  65.961  1.00  0.00    -0.152 C  
HETATM   15  N   UNL     1     -11.226  12.714  64.860  1.00  0.00    -0.288 NA 
HETATM   16  C   UNL     1     -11.100  14.169  64.834  1.00  0.00    -0.385 C  
HETATM   17  C   UNL     1      -9.237  12.238  66.394  1.00  0.00    -0.203 C  
ENDBRANCH   9  11
BRANCH   8  18
HETATM   18  C   UNL     1     -11.725   8.665  70.893  1.00  0.00    -0.287 A  
HETATM   19  C   UNL     1     -13.745   9.110  72.293  1.00  0.00    -0.548 A  
HETATM   20  C   UNL     1     -14.075   7.771  72.306  1.00  0.00    -0.164 A  
HETATM   21  C   UNL     1     -12.590   9.533  71.625  1.00  0.00    -0.476 A  
HETATM   22  C   UNL     1     -13.258   6.878  71.629  1.00  0.00    -0.315 A  
HETATM   23  C   UNL     1     -12.115   7.302  70.897  1.00  0.00    -0.326 A  
HETATM   24  C   UNL     1     -11.408   6.188  70.185  1.00  0.00    -0.433 C  
ENDBRANCH   8  18
ENDBRANCH   2   5
BRANCH   4  25
HETATM   25  C   UNL     1      -7.023   7.052  70.314  1.00  0.00    -0.065 C  
HETATM   26  C   UNL     1      -5.666   6.502  70.829  1.00  0.00    -0.023 C  
HETATM   27  C   UNL     1      -6.691   8.031  69.183  1.00  0.00    -0.048 C  
BRANCH  25  28
HETATM   28  C   UNL     1      -7.883   5.944  69.643  1.00  0.00    -0.097 A  
HETATM   29  C   UNL     1      -9.142   5.132  67.695  1.00  0.00    -0.117 A  
HETATM   30  C   UNL     1      -8.366   6.113  68.333  1.00  0.00    -0.114 A  
HETATM   31  F   UNL     1      -9.995   1.566  69.715  1.00  0.00    -0.098 F  
HETATM   32  C   UNL     1      -9.694   5.365  66.308  1.00  0.00    -0.162 C  
HETATM   33  F   UNL     1      -9.796   2.626  71.602  1.00  0.00    -0.205 F  
HETATM   34  C   UNL     1      -9.413   3.935  68.372  1.00  0.00    -0.210 A  
HETATM   35  F   UNL     1      -9.270   4.429  65.415  1.00  0.00    -0.127 F  
HETATM   36  F   UNL     1      -9.343   6.571  65.778  1.00  0.00    -0.140 F  
HETATM   37  F   UNL     1      -8.050   1.729  70.671  1.00  0.00    -0.041 F  
HETATM   38  C   UNL     1      -9.189   2.423  70.401  1.00  0.00    -0.122 C  
HETATM   39  C   UNL     1      -8.917   3.715  69.665  1.00  0.00    -0.175 A  
HETATM   40  F   UNL     1     -11.054   5.326  66.276  1.00  0.00    -0.313 F  
HETATM   41  C   UNL     1      -8.152   4.721  70.284  1.00  0.00    -0.072 A  
ENDBRANCH  25  28
ENDBRANCH   4  25
TORSDOF 5
ENDMDL
MODEL       83
REMARK 921   NORMALIZED FREE ENERGY PREDICTED BY IDOCK:   -5.34 KCAL/MOL
REMARK 922        TOTAL FREE ENERGY PREDICTED BY IDOCK:   -8.54 KCAL/MOL
REMARK 923 INTER-LIGAND FREE ENERGY PREDICTED BY IDOCK:   -8.41 KCAL/MOL
REMARK 924 INTRA-LIGAND FREE ENERGY PREDICTED BY IDOCK:   -0.13 KCAL/MOL
REMARK 927      BINDING AFFINITY PREDICTED BY RF-SCORE:    0.00 PKD
ROOT
HETATM    1  C   UNL     1      -6.621  14.880  70.973  1.00  0.00     0.501 C  
HETATM    2  N   UNL     1      -7.010  15.212  69.593  1.00  0.00    -0.184 N  
HETATM    3  O   UNL     1      -6.173  17.286  69.923  1.00  0.00    -0.234 OA 
HETATM    4  C   UNL     1      -6.576  16.443  69.103  1.00  0.00    -0.195 C  
ENDROOT
BRANCH   2   5
HETATM    5  C   UNL     1      -7.365  14.094  68.811  1.00  0.00    -0.128 A  
HETATM    6  C   UNL     1      -8.753  12.454  67.804  1.00  0.00    -0.176 A  
HETATM    7  C   UNL     1      -6.310  13.443  68.150  1.00  0.00    -0.114 A  
HETATM    8  C   UNL     1      -8.669  13.585  68.666  1.00  0.00    -0.001 A  
HETATM    9  C   UNL     1      -7.673  11.937  67.072  1.00  0.00    -0.146 A  
HETATM   10  N   UNL     1      -6.442  12.417  67.292  1.00  0.00    -0.156 NA 
BRANCH   9  11
HETATM   11  N   UNL     1      -7.835  10.970  66.101  1.00  0.00    -0.148 NA 
HETATM   12  C   UNL     1      -9.123  10.836  65.399  1.00  0.00    -0.194 C  
HETATM   13  C   UNL     1      -7.511   8.501  65.947  1.00  0.00    -0.077 C  
HETATM   14  C   UNL     1      -9.676   9.389  65.437  1.00  0.00    -0.178 C  
HETATM   15  N   UNL     1      -8.711   8.316  65.107  1.00  0.00    -0.110 NA 
HETATM   16  C   UNL     1      -8.376   8.305  63.685  1.00  0.00    -0.016 C  
HETATM   17  C   UNL     1      -6.856   9.902  65.870  1.00  0.00    -0.101 C  
ENDBRANCH   9  11
BRANCH   8  18
HETATM   18  C   UNL     1      -9.972  14.166  69.201  1.00  0.00     0.015 A  
HETATM   19  C   UNL     1     -11.097  16.249  69.999  1.00  0.00    -0.351 A  
HETATM   20  C   UNL     1     -12.274  15.567  70.229  1.00  0.00    -0.432 A  
HETATM   21  C   UNL     1      -9.977  15.557  69.523  1.00  0.00    -0.280 A  
HETATM   22  C   UNL     1     -12.322  14.209  69.955  1.00  0.00    -0.382 A  
HETATM   23  C   UNL     1     -11.209  13.506  69.415  1.00  0.00    -0.244 A  
HETATM   24  C   UNL     1     -11.489  12.061  69.131  1.00  0.00    -0.357 C  
ENDBRANCH   8  18
ENDBRANCH   2   5
BRANCH   4  25
HETATM   25  C   UNL     1      -6.487  16.825  67.570  1.00  0.00    -0.178 C  
HETATM   26  C   UNL     1      -5.719  15.625  66.956  1.00  0.00     0.493 C  
HETATM   27  C   UNL     1      -5.756  18.089  67.108  1.00  0.00    -0.153 C  
BRANCH  25  28
HETATM   28  C   UNL     1      -7.922  16.958  66.987  1.00  0.00    -0.228 A  
HETATM   29  C   UNL     1      -9.851  18.369  66.417  1.00  0.00    -0.369 A  
HETATM   30  C   UNL     1      -8.558  18.212  66.940  1.00  0.00    -0.268 A  
HETATM   31  F   UNL     1     -11.860  15.029  64.887  1.00  0.00    -0.367 F  
HETATM   32  C   UNL     1     -10.531  19.718  66.431  1.00  0.00    -0.507 C  
HETATM   33  F   UNL     1     -10.698  13.763  66.218  1.00  0.00    -0.279 F  
HETATM   34  C   UNL     1     -10.513  17.249  65.894  1.00  0.00    -0.267 A  
HETATM   35  F   UNL     1     -10.871  20.143  65.183  1.00  0.00    -0.527 F  
HETATM   36  F   UNL     1      -9.762  20.710  66.965  1.00  0.00    -0.546 F  
HETATM   37  F   UNL     1      -9.932  14.257  64.246  1.00  0.00    -0.201 F  
HETATM   38  C   UNL     1     -10.592  14.777  65.317  1.00  0.00    -0.395 C  
HETATM   39  C   UNL     1      -9.896  15.990  65.890  1.00  0.00    -0.380 A  
HETATM   40  F   UNL     1     -11.685  19.712  67.152  1.00  0.00    -0.182 F  
HETATM   41  C   UNL     1      -8.604  15.860  66.431  1.00  0.00    -0.364 A  
ENDBRANCH  25  28
ENDBRANCH   4  25
TORSDOF 5
ENDMDL
MODEL       84
REMARK 921   NORMALIZED FREE ENERGY PREDICTED BY IDOCK:   -5.32 KCAL/MOL
REMARK 922        TOTAL FREE ENERGY PREDICTED BY IDOCK:   -8.52 KCAL/MOL
REMARK 923 INTER-LIGAND FREE ENERGY PREDICTED BY IDOCK:   -8.58 KCAL/MOL
REMARK 924 INTRA-LIGAND FREE ENERGY PREDICTED BY IDOCK:    0.06 KCAL/MOL
REMARK 927      BINDING AFFINITY PREDICTED BY RF-SCORE:    0.00 PKD
ROOT
HETATM    1  C   UNL     1     -10.891  10.764  64.509  1.00  0.00     0.070 C  
HETATM    2  N   UNL     1     -10.395  10.756  65.894  1.00  0.00    -0.254 N  
HETATM    3  O   UNL     1     -11.274  12.823  66.155  1.00  0.00    -0.279 OA 
HETATM    4  C   UNL     1     -10.800  11.814  66.706  1.00  0.00    -0.270 C  
ENDROOT
BRANCH   2   5
HETATM    5  C   UNL     1      -9.968   9.490  66.344  1.00  0.00    -0.269 A  
HETATM    6  C   UNL     1      -8.530   7.630  66.668  1.00  0.00    -0.130 A  
HETATM    7  C   UNL     1     -10.898   8.757  67.099  1.00  0.00     0.008 A  
HETATM    8  C   UNL     1      -8.711   8.916  66.079  1.00  0.00    -0.185 A  
HETATM    9  C   UNL     1      -9.459   7.015  67.521  1.00  0.00    -0.126 A  
HETATM   10  N   UNL     1     -10.664   7.573  67.692  1.00  0.00    -0.224 NA 
BRANCH   9  11
HETATM   11  N   UNL     1      -9.165   5.865  68.225  1.00  0.00    -0.117 NA 
HETATM   12  C   UNL     1      -7.909   5.767  68.990  1.00  0.00    -0.094 C  
HETATM   13  C   UNL     1      -9.027   3.427  67.716  1.00  0.00    -0.145 C  
HETATM   14  C   UNL     1      -7.094   4.497  68.638  1.00  0.00    -0.052 C  
HETATM   15  N   UNL     1      -7.855   3.229  68.591  1.00  0.00    -0.058 NA 
HETATM   16  C   UNL     1      -8.250   2.783  69.926  1.00  0.00    -0.040 C  
HETATM   17  C   UNL     1      -9.936   4.625  68.083  1.00  0.00    -0.060 C  
ENDBRANCH   9  11
BRANCH   8  18
HETATM   18  C   UNL     1      -7.516   9.545  65.373  1.00  0.00    -0.099 A  
HETATM   19  C   UNL     1      -5.387  10.807  65.708  1.00  0.00    -0.129 A  
HETATM   20  C   UNL     1      -5.147  10.832  64.350  1.00  0.00    -0.122 A  
HETATM   21  C   UNL     1      -6.552  10.202  66.195  1.00  0.00    -0.098 A  
HETATM   22  C   UNL     1      -6.061  10.228  63.501  1.00  0.00    -0.137 A  
HETATM   23  C   UNL     1      -7.218   9.559  63.987  1.00  0.00    -0.111 A  
HETATM   24  C   UNL     1      -8.042   8.919  62.909  1.00  0.00    -0.174 C  
ENDBRANCH   8  18
ENDBRANCH   2   5
BRANCH   4  25
HETATM   25  C   UNL     1     -10.768  11.803  68.288  1.00  0.00    -0.246 C  
HETATM   26  C   UNL     1      -9.309  11.380  68.604  1.00  0.00    -0.155 C  
HETATM   27  C   UNL     1     -11.674  10.866  69.094  1.00  0.00    -0.397 C  
BRANCH  25  28
HETATM   28  C   UNL     1     -11.090  13.227  68.822  1.00  0.00    -0.303 A  
HETATM   29  C   UNL     1     -10.881  15.665  68.602  1.00  0.00    -0.273 A  
HETATM   30  C   UNL     1     -10.607  14.365  68.150  1.00  0.00    -0.236 A  
HETATM   31  F   UNL     1     -13.261  16.189  72.007  1.00  0.00    -0.490 F  
HETATM   32  C   UNL     1     -10.303  16.867  67.893  1.00  0.00    -0.332 C  
HETATM   33  F   UNL     1     -12.622  14.235  72.712  1.00  0.00    -0.396 F  
HETATM   34  C   UNL     1     -11.690  15.834  69.735  1.00  0.00    -0.355 A  
HETATM   35  F   UNL     1     -11.264  17.715  67.435  1.00  0.00    -0.217 F  
HETATM   36  F   UNL     1      -9.542  16.546  66.808  1.00  0.00    -0.226 F  
HETATM   37  F   UNL     1     -14.361  14.408  71.420  1.00  0.00    -0.446 F  
HETATM   38  C   UNL     1     -13.104  14.892  71.622  1.00  0.00    -0.341 C  
HETATM   39  C   UNL     1     -12.220  14.725  70.408  1.00  0.00    -0.395 A  
HETATM   40  F   UNL     1      -9.501  17.612  68.702  1.00  0.00    -0.264 F  
HETATM   41  C   UNL     1     -11.919  13.433  69.940  1.00  0.00    -0.408 A  
ENDBRANCH  25  28
ENDBRANCH   4  25
TORSDOF 5
ENDMDL
MODEL       85
REMARK 921   NORMALIZED FREE ENERGY PREDICTED BY IDOCK:   -5.31 KCAL/MOL
REMARK 922        TOTAL FREE ENERGY PREDICTED BY IDOCK:   -8.50 KCAL/MOL
REMARK 923 INTER-LIGAND FREE ENERGY PREDICTED BY IDOCK:   -8.91 KCAL/MOL
REMARK 924 INTRA-LIGAND FREE ENERGY PREDICTED BY IDOCK:    0.41 KCAL/MOL
REMARK 927      BINDING AFFINITY PREDICTED BY RF-SCORE:    0.00 PKD
ROOT
HETATM    1  C   UNL     1     -10.533   9.645  66.042  1.00  0.00     0.023 C  
HETATM    2  N   UNL     1     -10.391   9.989  67.466  1.00  0.00    -0.215 N  
HETATM    3  O   UNL     1     -11.773  11.744  67.115  1.00  0.00    -0.547 OA 
HETATM    4  C   UNL     1     -11.216  11.005  67.946  1.00  0.00    -0.310 C  
ENDROOT
BRANCH   2   5
HETATM    5  C   UNL     1      -9.794   8.978  68.244  1.00  0.00    -0.166 A  
HETATM    6  C   UNL     1      -8.084   7.774  69.368  1.00  0.00    -0.126 A  
HETATM    7  C   UNL     1     -10.656   7.980  68.728  1.00  0.00    -0.118 A  
HETATM    8  C   UNL     1      -8.422   8.889  68.547  1.00  0.00    -0.129 A  
HETATM    9  C   UNL     1      -9.022   6.890  69.923  1.00  0.00    -0.142 A  
HETATM   10  N   UNL     1     -10.307   6.979  69.555  1.00  0.00    -0.205 NA 
BRANCH   9  11
HETATM   11  N   UNL     1      -8.677   5.945  70.868  1.00  0.00    -0.130 NA 
HETATM   12  C   UNL     1      -9.081   4.539  70.690  1.00  0.00    -0.119 C  
HETATM   13  C   UNL     1      -8.933   5.691  73.336  1.00  0.00    -0.129 C  
HETATM   14  C   UNL     1      -9.821   3.970  71.927  1.00  0.00    -0.177 C  
HETATM   15  N   UNL     1      -9.193   4.241  73.240  1.00  0.00    -0.109 NA 
HETATM   16  C   UNL     1      -7.972   3.461  73.430  1.00  0.00    -0.074 C  
HETATM   17  C   UNL     1      -8.109   6.296  72.174  1.00  0.00    -0.109 C  
ENDBRANCH   9  11
BRANCH   8  18
HETATM   18  C   UNL     1      -7.318   9.887  68.220  1.00  0.00    -0.079 A  
HETATM   19  C   UNL     1      -6.086  11.900  69.037  1.00  0.00    -0.071 A  
HETATM   20  C   UNL     1      -5.304  11.926  67.902  1.00  0.00    -0.055 A  
HETATM   21  C   UNL     1      -7.079  10.921  69.173  1.00  0.00    -0.109 A  
HETATM   22  C   UNL     1      -5.506  10.957  66.931  1.00  0.00    -0.063 A  
HETATM   23  C   UNL     1      -6.470   9.923  67.083  1.00  0.00    -0.069 A  
HETATM   24  C   UNL     1      -6.485   8.941  65.950  1.00  0.00    -0.057 C  
ENDBRANCH   8  18
ENDBRANCH   2   5
BRANCH   4  25
HETATM   25  C   UNL     1     -11.556  11.247  69.472  1.00  0.00    -0.398 C  
HETATM   26  C   UNL     1     -10.311  10.679  70.201  1.00  0.00     0.129 C  
HETATM   27  C   UNL     1     -12.777  10.592  70.127  1.00  0.00    -0.224 C  
BRANCH  25  28
HETATM   28  C   UNL     1     -11.736  12.770  69.726  1.00  0.00    -0.352 A  
HETATM   29  C   UNL     1     -12.543  14.594  71.162  1.00  0.00    -0.404 A  
HETATM   30  C   UNL     1     -12.367  13.226  70.898  1.00  0.00    -0.413 A  
HETATM   31  F   UNL     1     -11.090  17.409  68.425  1.00  0.00    -0.323 F  
HETATM   32  C   UNL     1     -13.274  15.053  72.401  1.00  0.00    -0.391 C  
HETATM   33  F   UNL     1     -11.306  15.934  66.844  1.00  0.00    -0.228 F  
HETATM   34  C   UNL     1     -12.042  15.532  70.248  1.00  0.00    -0.415 A  
HETATM   35  F   UNL     1     -12.505  15.846  73.197  1.00  0.00    -0.418 F  
HETATM   36  F   UNL     1     -13.697  14.029  73.195  1.00  0.00    -0.471 F  
HETATM   37  F   UNL     1      -9.463  16.036  67.989  1.00  0.00    -0.201 F  
HETATM   38  C   UNL     1     -10.817  16.115  68.101  1.00  0.00    -0.329 C  
HETATM   39  C   UNL     1     -11.374  15.115  69.088  1.00  0.00    -0.311 A  
HETATM   40  F   UNL     1     -14.386  15.782  72.109  1.00  0.00    -0.568 F  
HETATM   41  C   UNL     1     -11.223  13.738  68.843  1.00  0.00    -0.309 A  
ENDBRANCH  25  28
ENDBRANCH   4  25
TORSDOF 5
ENDMDL
MODEL       86
REMARK 921   NORMALIZED FREE ENERGY PREDICTED BY IDOCK:   -5.30 KCAL/MOL
REMARK 922        TOTAL FREE ENERGY PREDICTED BY IDOCK:   -8.49 KCAL/MOL
REMARK 923 INTER-LIGAND FREE ENERGY PREDICTED BY IDOCK:   -6.05 KCAL/MOL
REMARK 924 INTRA-LIGAND FREE ENERGY PREDICTED BY IDOCK:   -2.44 KCAL/MOL
REMARK 927      BINDING AFFINITY PREDICTED BY RF-SCORE:    0.00 PKD
ROOT
HETATM    1  C   UNL     1      -6.965   7.821  64.567  1.00  0.00    -0.060 C  
HETATM    2  N   UNL     1      -8.290   7.755  65.206  1.00  0.00    -0.139 N  
HETATM    3  O   UNL     1      -8.197   5.503  65.024  1.00  0.00    -0.126 OA 
HETATM    4  C   UNL     1      -8.756   6.485  65.542  1.00  0.00    -0.051 C  
ENDROOT
BRANCH   2   5
HETATM    5  C   UNL     1      -8.704   8.967  65.794  1.00  0.00    -0.176 A  
HETATM    6  C   UNL     1      -8.886  10.681  67.425  1.00  0.00    -0.132 A  
HETATM    7  C   UNL     1      -9.562   9.767  65.023  1.00  0.00    -0.264 A  
HETATM    8  C   UNL     1      -8.341   9.411  67.079  1.00  0.00    -0.127 A  
HETATM    9  C   UNL     1      -9.632  11.485  66.549  1.00  0.00    -0.205 A  
HETATM   10  N   UNL     1     -10.002  10.992  65.360  1.00  0.00    -0.245 NA 
BRANCH   9  11
HETATM   11  N   UNL     1      -9.973  12.788  66.852  1.00  0.00    -0.228 NA 
HETATM   12  C   UNL     1     -11.305  13.094  67.402  1.00  0.00    -0.306 C  
HETATM   13  C   UNL     1      -9.983  14.972  65.647  1.00  0.00    -0.355 C  
HETATM   14  C   UNL     1     -12.039  14.202  66.604  1.00  0.00    -0.451 C  
HETATM   15  N   UNL     1     -11.242  15.408  66.283  1.00  0.00    -0.230 NA 
HETATM   16  C   UNL     1     -10.991  16.224  67.469  1.00  0.00    -0.207 C  
HETATM   17  C   UNL     1      -9.156  13.938  66.449  1.00  0.00    -0.079 C  
ENDBRANCH   9  11
BRANCH   8  18
HETATM   18  C   UNL     1      -7.360   8.773  68.055  1.00  0.00    -0.088 A  
HETATM   19  C   UNL     1      -5.227   7.487  68.250  1.00  0.00    -0.026 A  
HETATM   20  C   UNL     1      -5.323   7.468  69.625  1.00  0.00    -0.023 A  
HETATM   21  C   UNL     1      -6.233   8.101  67.493  1.00  0.00    -0.052 A  
HETATM   22  C   UNL     1      -6.408   8.086  70.226  1.00  0.00    -0.036 A  
HETATM   23  C   UNL     1      -7.406   8.765  69.473  1.00  0.00    -0.067 A  
HETATM   24  C   UNL     1      -8.457   9.420  70.317  1.00  0.00    -0.237 C  
ENDBRANCH   8  18
ENDBRANCH   2   5
BRANCH   4  25
HETATM   25  C   UNL     1      -9.902   6.193  66.593  1.00  0.00    -0.202 C  
HETATM   26  C   UNL     1     -10.781   5.141  65.867  1.00  0.00    -0.130 C  
HETATM   27  C   UNL     1     -10.852   7.300  67.062  1.00  0.00    -0.350 C  
BRANCH  25  28
HETATM   28  C   UNL     1      -9.275   5.626  67.898  1.00  0.00    -0.108 A  
HETATM   29  C   UNL     1      -7.428   4.460  69.023  1.00  0.00    -0.056 A  
HETATM   30  C   UNL     1      -8.025   4.980  67.864  1.00  0.00    -0.094 A  
HETATM   31  F   UNL     1      -9.377   4.897  72.703  1.00  0.00    -0.135 F  
HETATM   32  C   UNL     1      -6.113   3.721  68.949  1.00  0.00    -0.028 C  
HETATM   33  F   UNL     1     -11.276   4.977  71.649  1.00  0.00    -0.147 F  
HETATM   34  C   UNL     1      -8.080   4.621  70.254  1.00  0.00    -0.067 A  
HETATM   35  F   UNL     1      -5.145   4.301  69.711  1.00  0.00     0.000 F  
HETATM   36  F   UNL     1      -5.599   3.648  67.688  1.00  0.00    -0.017 F  
HETATM   37  F   UNL     1     -10.143   6.801  71.986  1.00  0.00    -0.182 F  
HETATM   38  C   UNL     1     -10.014   5.487  71.653  1.00  0.00    -0.182 C  
HETATM   39  C   UNL     1      -9.308   5.293  70.332  1.00  0.00    -0.208 A  
HETATM   40  F   UNL     1      -6.212   2.435  69.385  1.00  0.00    -0.023 F  
HETATM   41  C   UNL     1      -9.888   5.794  69.152  1.00  0.00    -0.211 A  
ENDBRANCH  25  28
ENDBRANCH   4  25
TORSDOF 5
ENDMDL
MODEL       87
REMARK 921   NORMALIZED FREE ENERGY PREDICTED BY IDOCK:   -5.28 KCAL/MOL
REMARK 922        TOTAL FREE ENERGY PREDICTED BY IDOCK:   -8.47 KCAL/MOL
REMARK 923 INTER-LIGAND FREE ENERGY PREDICTED BY IDOCK:   -7.63 KCAL/MOL
REMARK 924 INTRA-LIGAND FREE ENERGY PREDICTED BY IDOCK:   -0.84 KCAL/MOL
REMARK 927      BINDING AFFINITY PREDICTED BY RF-SCORE:    0.00 PKD
ROOT
HETATM    1  C   UNL     1      -5.948   9.950  68.794  1.00  0.00    -0.038 C  
HETATM    2  N   UNL     1      -7.334  10.075  68.314  1.00  0.00    -0.078 N  
HETATM    3  O   UNL     1      -7.699   7.953  69.006  1.00  0.00    -0.097 OA 
HETATM    4  C   UNL     1      -8.199   9.028  68.630  1.00  0.00    -0.118 C  
ENDROOT
BRANCH   2   5
HETATM    5  C   UNL     1      -7.719  11.395  68.008  1.00  0.00    -0.114 A  
HETATM    6  C   UNL     1      -8.467  13.232  66.704  1.00  0.00     0.127 A  
HETATM    7  C   UNL     1      -7.680  12.312  69.071  1.00  0.00     0.153 A  
HETATM    8  C   UNL     1      -8.111  11.853  66.736  1.00  0.00    -0.108 A  
HETATM    9  C   UNL     1      -8.529  14.058  67.838  1.00  0.00    -0.170 A  
HETATM   10  N   UNL     1      -8.087  13.593  69.013  1.00  0.00     0.111 NA 
BRANCH   9  11
HETATM   11  N   UNL     1      -9.065  15.329  67.797  1.00  0.00    -0.181 NA 
HETATM   12  C   UNL     1      -8.177  16.505  67.779  1.00  0.00    -0.165 C  
HETATM   13  C   UNL     1     -10.731  16.624  69.128  1.00  0.00    -0.342 C  
HETATM   14  C   UNL     1      -8.529  17.534  68.883  1.00  0.00    -0.139 C  
HETATM   15  N   UNL     1      -9.962  17.880  69.016  1.00  0.00    -0.318 NA 
HETATM   16  C   UNL     1     -10.429  18.699  67.900  1.00  0.00    -0.385 C  
HETATM   17  C   UNL     1     -10.494  15.597  67.994  1.00  0.00    -0.263 C  
ENDBRANCH   9  11
BRANCH   8  18
HETATM   18  C   UNL     1      -8.320  11.039  65.465  1.00  0.00    -0.024 A  
HETATM   19  C   UNL     1      -9.991  10.345  63.743  1.00  0.00    -0.230 A  
HETATM   20  C   UNL     1      -9.044   9.601  63.072  1.00  0.00    -0.235 A  
HETATM   21  C   UNL     1      -9.638  11.021  64.918  1.00  0.00    -0.289 A  
HETATM   22  C   UNL     1      -7.751   9.563  63.571  1.00  0.00    -0.123 A  
HETATM   23  C   UNL     1      -7.365  10.293  64.729  1.00  0.00    -0.099 A  
HETATM   24  C   UNL     1      -5.907  10.169  65.061  1.00  0.00    -0.120 C  
ENDBRANCH   8  18
ENDBRANCH   2   5
BRANCH   4  25
HETATM   25  C   UNL     1      -9.777   9.124  68.614  1.00  0.00    -0.164 C  
HETATM   26  C   UNL     1     -10.175   8.157  67.467  1.00  0.00    -0.309 C  
HETATM   27  C   UNL     1     -10.490  10.450  68.328  1.00  0.00    -0.221 C  
BRANCH  25  28
HETATM   28  C   UNL     1     -10.337   8.659  69.988  1.00  0.00    -0.213 A  
HETATM   29  C   UNL     1     -10.060   7.357  72.053  1.00  0.00    -0.212 A  
HETATM   30  C   UNL     1      -9.588   7.794  70.806  1.00  0.00    -0.167 A  
HETATM   31  F   UNL     1     -13.778   8.712  73.421  1.00  0.00    -0.059 F  
HETATM   32  C   UNL     1      -9.259   6.384  72.885  1.00  0.00    -0.136 C  
HETATM   33  F   UNL     1     -14.403   8.980  71.356  1.00  0.00    -0.404 F  
HETATM   34  C   UNL     1     -11.300   7.825  72.511  1.00  0.00    -0.429 A  
HETATM   35  F   UNL     1      -8.941   6.885  74.111  1.00  0.00    -0.157 F  
HETATM   36  F   UNL     1      -8.075   6.024  72.313  1.00  0.00    -0.106 F  
HETATM   37  F   UNL     1     -13.385  10.591  72.402  1.00  0.00    -0.507 F  
HETATM   38  C   UNL     1     -13.390   9.240  72.228  1.00  0.00    -0.477 C  
HETATM   39  C   UNL     1     -12.059   8.717  71.740  1.00  0.00    -0.418 A  
HETATM   40  F   UNL     1      -9.929   5.223  73.118  1.00  0.00    -0.166 F  
HETATM   41  C   UNL     1     -11.565   9.129  70.489  1.00  0.00    -0.238 A  
ENDBRANCH  25  28
ENDBRANCH   4  25
TORSDOF 5
ENDMDL
MODEL       88
REMARK 921   NORMALIZED FREE ENERGY PREDICTED BY IDOCK:   -5.25 KCAL/MOL
REMARK 922        TOTAL FREE ENERGY PREDICTED BY IDOCK:   -8.42 KCAL/MOL
REMARK 923 INTER-LIGAND FREE ENERGY PREDICTED BY IDOCK:   -7.36 KCAL/MOL
REMARK 924 INTRA-LIGAND FREE ENERGY PREDICTED BY IDOCK:   -1.06 KCAL/MOL
REMARK 927      BINDING AFFINITY PREDICTED BY RF-SCORE:    0.00 PKD
ROOT
HETATM    1  C   UNL     1     -10.206  10.554  65.214  1.00  0.00    -0.282 C  
HETATM    2  N   UNL     1     -10.625  11.142  66.497  1.00  0.00    -0.256 N  
HETATM    3  O   UNL     1     -11.158   9.062  67.205  1.00  0.00    -0.007 OA 
HETATM    4  C   UNL     1     -10.947  10.247  67.516  1.00  0.00    -0.280 C  
ENDROOT
BRANCH   2   5
HETATM    5  C   UNL     1     -10.220  12.480  66.675  1.00  0.00    -0.230 A  
HETATM    6  C   UNL     1      -8.784  14.309  67.149  1.00  0.00    -0.243 A  
HETATM    7  C   UNL     1     -11.207  13.457  66.464  1.00  0.00    -0.307 A  
HETATM    8  C   UNL     1      -8.931  12.894  67.058  1.00  0.00    -0.225 A  
HETATM    9  C   UNL     1      -9.781  15.231  66.796  1.00  0.00    -0.236 A  
HETATM   10  N   UNL     1     -11.009  14.787  66.497  1.00  0.00    -0.320 NA 
BRANCH   9  11
HETATM   11  N   UNL     1      -9.537  16.586  66.710  1.00  0.00    -0.243 NA 
HETATM   12  C   UNL     1      -8.234  17.131  67.131  1.00  0.00    -0.192 C  
HETATM   13  C   UNL     1     -10.650  18.671  67.508  1.00  0.00    -0.423 C  
HETATM   14  C   UNL     1      -8.374  18.292  68.148  1.00  0.00    -0.284 C  
HETATM   15  N   UNL     1      -9.367  19.336  67.809  1.00  0.00    -0.305 NA 
HETATM   16  C   UNL     1      -8.919  20.171  66.696  1.00  0.00    -0.314 C  
HETATM   17  C   UNL     1     -10.589  17.568  66.423  1.00  0.00    -0.195 C  
ENDBRANCH   9  11
BRANCH   8  18
HETATM   18  C   UNL     1      -7.684  12.040  67.249  1.00  0.00    -0.168 A  
HETATM   19  C   UNL     1      -6.341  10.158  66.304  1.00  0.00    -0.084 A  
HETATM   20  C   UNL     1      -5.419  10.256  67.325  1.00  0.00    -0.041 A  
HETATM   21  C   UNL     1      -7.451  11.012  66.287  1.00  0.00    -0.105 A  
HETATM   22  C   UNL     1      -5.606  11.223  68.300  1.00  0.00    -0.045 A  
HETATM   23  C   UNL     1      -6.697  12.135  68.263  1.00  0.00    -0.063 A  
HETATM   24  C   UNL     1      -6.679  13.142  69.374  1.00  0.00    -0.022 C  
ENDBRANCH   8  18
ENDBRANCH   2   5
BRANCH   4  25
HETATM   25  C   UNL     1     -10.995  10.610  69.055  1.00  0.00    -0.295 C  
HETATM   26  C   UNL     1     -12.515  10.616  69.365  1.00  0.00     0.063 C  
HETATM   27  C   UNL     1     -10.442  11.941  69.575  1.00  0.00     0.301 C  
BRANCH  25  28
HETATM   28  C   UNL     1     -10.240   9.520  69.867  1.00  0.00    -0.261 A  
HETATM   29  C   UNL     1      -8.212   8.785  71.043  1.00  0.00    -0.194 A  
HETATM   30  C   UNL     1      -8.922   9.745  70.306  1.00  0.00    -0.198 A  
HETATM   31  F   UNL     1     -10.080   5.171  72.033  1.00  0.00    -0.208 F  
HETATM   32  C   UNL     1      -6.778   9.030  71.453  1.00  0.00    -0.074 C  
HETATM   33  F   UNL     1     -11.346   5.384  70.279  1.00  0.00    -0.248 F  
HETATM   34  C   UNL     1      -8.848   7.582  71.383  1.00  0.00    -0.138 A  
HETATM   35  F   UNL     1      -6.607   8.987  72.803  1.00  0.00    -0.068 F  
HETATM   36  F   UNL     1      -6.299  10.243  71.056  1.00  0.00    -0.091 F  
HETATM   37  F   UNL     1     -11.954   6.264  72.170  1.00  0.00    -0.339 F  
HETATM   38  C   UNL     1     -10.875   6.053  71.366  1.00  0.00    -0.270 C  
HETATM   39  C   UNL     1     -10.173   7.338  70.996  1.00  0.00    -0.198 A  
HETATM   40  F   UNL     1      -5.924   8.105  70.937  1.00  0.00    -0.033 F  
HETATM   41  C   UNL     1     -10.856   8.314  70.247  1.00  0.00    -0.241 A  
ENDBRANCH  25  28
ENDBRANCH   4  25
TORSDOF 5
ENDMDL
MODEL       89
REMARK 921   NORMALIZED FREE ENERGY PREDICTED BY IDOCK:   -5.23 KCAL/MOL
REMARK 922        TOTAL FREE ENERGY PREDICTED BY IDOCK:   -8.40 KCAL/MOL
REMARK 923 INTER-LIGAND FREE ENERGY PREDICTED BY IDOCK:   -6.68 KCAL/MOL
REMARK 924 INTRA-LIGAND FREE ENERGY PREDICTED BY IDOCK:   -1.72 KCAL/MOL
REMARK 927      BINDING AFFINITY PREDICTED BY RF-SCORE:    0.00 PKD
ROOT
HETATM    1  C   UNL     1     -11.108   9.030  70.445  1.00  0.00    -0.244 C  
HETATM    2  N   UNL     1     -10.732   9.385  69.066  1.00  0.00    -0.214 N  
HETATM    3  O   UNL     1     -11.246  11.534  69.546  1.00  0.00    -0.254 OA 
HETATM    4  C   UNL     1     -10.687  10.745  68.764  1.00  0.00    -0.208 C  
ENDROOT
BRANCH   2   5
HETATM    5  C   UNL     1     -10.044   8.366  68.379  1.00  0.00    -0.198 A  
HETATM    6  C   UNL     1      -8.281   6.877  67.825  1.00  0.00    -0.117 A  
HETATM    7  C   UNL     1     -10.736   7.760  67.318  1.00  0.00    -0.255 A  
HETATM    8  C   UNL     1      -8.734   7.937  68.662  1.00  0.00    -0.128 A  
HETATM    9  C   UNL     1      -9.078   6.231  66.867  1.00  0.00    -0.128 A  
HETATM   10  N   UNL     1     -10.296   6.716  66.592  1.00  0.00    -0.180 NA 
BRANCH   9  11
HETATM   11  N   UNL     1      -8.669   5.085  66.217  1.00  0.00    -0.115 NA 
HETATM   12  C   UNL     1      -9.118   4.817  64.839  1.00  0.00    -0.141 C  
HETATM   13  C   UNL     1      -8.706   2.636  66.690  1.00  0.00    -0.123 C  
HETATM   14  C   UNL     1      -9.754   3.413  64.682  1.00  0.00    -0.164 C  
HETATM   15  N   UNL     1      -9.005   2.288  65.287  1.00  0.00    -0.123 NA 
HETATM   16  C   UNL     1      -7.788   1.981  64.538  1.00  0.00    -0.069 C  
HETATM   17  C   UNL     1      -7.978   3.985  66.900  1.00  0.00    -0.096 C  
ENDBRANCH   9  11
BRANCH   8  18
HETATM   18  C   UNL     1      -7.827   8.369  69.809  1.00  0.00    -0.099 A  
HETATM   19  C   UNL     1      -6.194  10.098  70.572  1.00  0.00    -0.115 A  
HETATM   20  C   UNL     1      -6.021   9.453  71.778  1.00  0.00    -0.008 A  
HETATM   21  C   UNL     1      -7.055   9.553  69.610  1.00  0.00    -0.072 A  
HETATM   22  C   UNL     1      -6.730   8.286  72.017  1.00  0.00    -0.080 A  
HETATM   23  C   UNL     1      -7.652   7.754  71.074  1.00  0.00    -0.082 A  
HETATM   24  C   UNL     1      -8.361   6.523  71.554  1.00  0.00    -0.121 C  
ENDBRANCH   8  18
ENDBRANCH   2   5
BRANCH   4  25
HETATM   25  C   UNL     1      -9.915  11.372  67.534  1.00  0.00    -0.201 C  
HETATM   26  C   UNL     1     -10.990  11.380  66.415  1.00  0.00    -0.315 C  
HETATM   27  C   UNL     1      -8.679  10.689  66.940  1.00  0.00    -0.133 C  
BRANCH  25  28
HETATM   28  C   UNL     1      -9.442  12.807  67.898  1.00  0.00    -0.208 A  
HETATM   29  C   UNL     1      -7.684  14.306  68.734  1.00  0.00    -0.134 A  
HETATM   30  C   UNL     1      -8.145  13.024  68.399  1.00  0.00    -0.131 A  
HETATM   31  F   UNL     1     -10.204  17.601  68.168  1.00  0.00    -0.295 F  
HETATM   32  C   UNL     1      -6.307  14.501  69.324  1.00  0.00    -0.117 C  
HETATM   33  F   UNL     1     -11.919  16.287  68.404  1.00  0.00    -0.302 F  
HETATM   34  C   UNL     1      -8.528  15.407  68.530  1.00  0.00    -0.163 A  
HETATM   35  F   UNL     1      -5.528  15.323  68.567  1.00  0.00    -0.084 F  
HETATM   36  F   UNL     1      -5.602  13.342  69.459  1.00  0.00    -0.075 F  
HETATM   37  F   UNL     1     -11.034  16.574  66.441  1.00  0.00    -0.242 F  
HETATM   38  C   UNL     1     -10.728  16.413  67.758  1.00  0.00    -0.328 C  
HETATM   39  C   UNL     1      -9.813  15.234  67.997  1.00  0.00    -0.216 A  
HETATM   40  F   UNL     1      -6.346  15.060  70.564  1.00  0.00    -0.156 F  
HETATM   41  C   UNL     1     -10.253  13.936  67.681  1.00  0.00    -0.242 A  
ENDBRANCH  25  28
ENDBRANCH   4  25
TORSDOF 5
ENDMDL
MODEL       90
REMARK 921   NORMALIZED FREE ENERGY PREDICTED BY IDOCK:   -5.22 KCAL/MOL
REMARK 922        TOTAL FREE ENERGY PREDICTED BY IDOCK:   -8.39 KCAL/MOL
REMARK 923 INTER-LIGAND FREE ENERGY PREDICTED BY IDOCK:   -7.46 KCAL/MOL
REMARK 924 INTRA-LIGAND FREE ENERGY PREDICTED BY IDOCK:   -0.94 KCAL/MOL
REMARK 927      BINDING AFFINITY PREDICTED BY RF-SCORE:    0.00 PKD
ROOT
HETATM    1  C   UNL     1      -9.963   8.281  66.097  1.00  0.00     0.010 C  
HETATM    2  N   UNL     1     -10.258   8.958  67.370  1.00  0.00    -0.229 N  
HETATM    3  O   UNL     1     -10.297   6.930  68.369  1.00  0.00    -0.172 OA 
HETATM    4  C   UNL     1     -10.246   8.164  68.515  1.00  0.00    -0.208 C  
ENDROOT
BRANCH   2   5
HETATM    5  C   UNL     1     -10.067  10.354  67.335  1.00  0.00    -0.196 A  
HETATM    6  C   UNL     1      -8.956  12.424  66.996  1.00  0.00    -0.209 A  
HETATM    7  C   UNL     1     -11.164  11.137  67.729  1.00  0.00    -0.294 A  
HETATM    8  C   UNL     1      -8.875  11.002  66.960  1.00  0.00    -0.143 A  
HETATM    9  C   UNL     1     -10.130  13.141  67.276  1.00  0.00    -0.233 A  
HETATM   10  N   UNL     1     -11.220  12.480  67.687  1.00  0.00    -0.264 NA 
BRANCH   9  11
HETATM   11  N   UNL     1     -10.217  14.508  67.109  1.00  0.00    -0.258 NA 
HETATM   12  C   UNL     1     -11.283  15.083  66.269  1.00  0.00    -0.309 C  
HETATM   13  C   UNL     1      -8.681  16.335  66.385  1.00  0.00    -0.319 C  
HETATM   14  C   UNL     1     -10.735  16.048  65.187  1.00  0.00    -0.409 C  
HETATM   15  N   UNL     1      -9.745  17.047  65.650  1.00  0.00    -0.548 NA 
HETATM   16  C   UNL     1     -10.365  18.085  66.470  1.00  0.00    -0.373 C  
HETATM   17  C   UNL     1      -9.165  15.433  67.546  1.00  0.00    -0.199 C  
ENDBRANCH   9  11
BRANCH   8  18
HETATM   18  C   UNL     1      -7.597  10.380  66.410  1.00  0.00    -0.123 A  
HETATM   19  C   UNL     1      -6.306   9.881  64.331  1.00  0.00    -0.124 A  
HETATM   20  C   UNL     1      -5.296   9.287  65.058  1.00  0.00    -0.045 A  
HETATM   21  C   UNL     1      -7.432  10.387  64.993  1.00  0.00    -0.079 A  
HETATM   22  C   UNL     1      -5.413   9.231  66.438  1.00  0.00    -0.045 A  
HETATM   23  C   UNL     1      -6.522   9.794  67.127  1.00  0.00    -0.069 A  
HETATM   24  C   UNL     1      -6.424   9.685  68.619  1.00  0.00    -0.047 C  
ENDBRANCH   8  18
ENDBRANCH   2   5
BRANCH   4  25
HETATM   25  C   UNL     1     -10.099   8.710  69.992  1.00  0.00    -0.195 C  
HETATM   26  C   UNL     1     -11.536   9.187  70.332  1.00  0.00    -0.181 C  
HETATM   27  C   UNL     1      -9.167   9.882  70.317  1.00  0.00    -0.123 C  
BRANCH  25  28
HETATM   28  C   UNL     1      -9.632   7.558  70.926  1.00  0.00    -0.165 A  
HETATM   29  C   UNL     1     -10.190   5.709  72.444  1.00  0.00    -0.232 A  
HETATM   30  C   UNL     1     -10.576   6.759  71.597  1.00  0.00    -0.239 A  
HETATM   31  F   UNL     1      -6.118   4.876  72.948  1.00  0.00    -0.021 F  
HETATM   32  C   UNL     1     -11.224   4.903  73.196  1.00  0.00    -0.326 C  
HETATM   33  F   UNL     1      -5.671   6.954  72.490  1.00  0.00    -0.037 F  
HETATM   34  C   UNL     1      -8.825   5.427  72.599  1.00  0.00    -0.123 A  
HETATM   35  F   UNL     1     -11.170   3.576  72.895  1.00  0.00    -0.192 F  
HETATM   36  F   UNL     1     -12.506   5.290  72.942  1.00  0.00    -0.283 F  
HETATM   37  F   UNL     1      -5.813   5.494  70.886  1.00  0.00    -0.019 F  
HETATM   38  C   UNL     1      -6.384   5.876  72.062  1.00  0.00    -0.049 C  
HETATM   39  C   UNL     1      -7.857   6.178  71.917  1.00  0.00    -0.102 A  
HETATM   40  F   UNL     1     -11.070   4.988  74.545  1.00  0.00    -0.179 F  
HETATM   41  C   UNL     1      -8.273   7.232  71.083  1.00  0.00    -0.107 A  
ENDBRANCH  25  28
ENDBRANCH   4  25
TORSDOF 5
ENDMDL
MODEL       91
REMARK 921   NORMALIZED FREE ENERGY PREDICTED BY IDOCK:   -5.22 KCAL/MOL
REMARK 922        TOTAL FREE ENERGY PREDICTED BY IDOCK:   -8.39 KCAL/MOL
REMARK 923 INTER-LIGAND FREE ENERGY PREDICTED BY IDOCK:   -7.29 KCAL/MOL
REMARK 924 INTRA-LIGAND FREE ENERGY PREDICTED BY IDOCK:   -1.10 KCAL/MOL
REMARK 927      BINDING AFFINITY PREDICTED BY RF-SCORE:    0.00 PKD
ROOT
HETATM    1  C   UNL     1      -6.337  10.474  67.372  1.00  0.00    -0.058 C  
HETATM    2  N   UNL     1      -7.714   9.963  67.276  1.00  0.00    -0.095 N  
HETATM    3  O   UNL     1      -6.861   7.878  67.085  1.00  0.00    -0.069 OA 
HETATM    4  C   UNL     1      -7.867   8.577  67.296  1.00  0.00    -0.098 C  
ENDROOT
BRANCH   2   5
HETATM    5  C   UNL     1      -8.702  10.905  67.628  1.00  0.00    -0.127 A  
HETATM    6  C   UNL     1     -10.470  12.462  67.344  1.00  0.00    -0.229 A  
HETATM    7  C   UNL     1      -8.817  11.196  68.997  1.00  0.00    -0.014 A  
HETATM    8  C   UNL     1      -9.547  11.572  66.722  1.00  0.00    -0.203 A  
HETATM    9  C   UNL     1     -10.616  12.605  68.732  1.00  0.00    -0.186 A  
HETATM   10  N   UNL     1      -9.747  11.995  69.550  1.00  0.00     0.839 NA 
BRANCH   9  11
HETATM   11  N   UNL     1     -11.649  13.325  69.296  1.00  0.00    -0.297 NA 
HETATM   12  C   UNL     1     -11.909  14.708  68.860  1.00  0.00    -0.309 C  
HETATM   13  C   UNL     1     -12.370  13.933  71.606  1.00  0.00    -0.178 C  
HETATM   14  C   UNL     1     -11.973  15.705  70.045  1.00  0.00    -0.368 C  
HETATM   15  N   UNL     1     -12.796  15.287  71.202  1.00  0.00    -0.391 NA 
HETATM   16  C   UNL     1     -14.224  15.333  70.897  1.00  0.00    -0.021 C  
HETATM   17  C   UNL     1     -12.384  12.869  70.481  1.00  0.00    -0.283 C  
ENDBRANCH   9  11
BRANCH   8  18
HETATM   18  C   UNL     1      -9.675  11.358  65.219  1.00  0.00    -0.276 A  
HETATM   19  C   UNL     1      -8.861  10.013  63.277  1.00  0.00    -0.246 A  
HETATM   20  C   UNL     1      -9.677  10.707  62.409  1.00  0.00    -0.095 A  
HETATM   21  C   UNL     1      -8.847  10.351  64.636  1.00  0.00    -0.216 A  
HETATM   22  C   UNL     1     -10.487  11.712  62.916  1.00  0.00    -0.085 A  
HETATM   23  C   UNL     1     -10.527  12.025  64.302  1.00  0.00    -0.369 A  
HETATM   24  C   UNL     1     -11.516  13.098  64.650  1.00  0.00    -0.368 C  
ENDBRANCH   8  18
ENDBRANCH   2   5
BRANCH   4  25
HETATM   25  C   UNL     1      -9.213   7.822  67.640  1.00  0.00    -0.146 C  
HETATM   26  C   UNL     1      -8.904   6.357  67.232  1.00  0.00    -0.108 C  
HETATM   27  C   UNL     1     -10.531   8.193  66.951  1.00  0.00    -0.379 C  
BRANCH  25  28
HETATM   28  C   UNL     1      -9.507   7.954  69.161  1.00  0.00    -0.155 A  
HETATM   29  C   UNL     1      -8.690   7.980  71.478  1.00  0.00    -0.168 A  
HETATM   30  C   UNL     1      -8.462   7.862  70.098  1.00  0.00    -0.129 A  
HETATM   31  F   UNL     1     -12.579   8.691  72.855  1.00  0.00    -0.441 F  
HETATM   32  C   UNL     1      -7.557   7.822  72.464  1.00  0.00    -0.098 C  
HETATM   33  F   UNL     1     -13.352   7.715  71.073  1.00  0.00    -0.297 F  
HETATM   34  C   UNL     1      -9.993   8.231  71.932  1.00  0.00    -0.299 A  
HETATM   35  F   UNL     1      -7.382   8.928  73.239  1.00  0.00    -0.050 F  
HETATM   36  F   UNL     1      -6.350   7.586  71.875  1.00  0.00    -0.040 F  
HETATM   37  F   UNL     1     -12.928   9.847  71.047  1.00  0.00    -0.374 F  
HETATM   38  C   UNL     1     -12.460   8.650  71.499  1.00  0.00    -0.323 C  
HETATM   39  C   UNL     1     -11.053   8.366  71.025  1.00  0.00    -0.298 A  
HETATM   40  F   UNL     1      -7.758   6.788  73.327  1.00  0.00    -0.090 F  
HETATM   41  C   UNL     1     -10.797   8.231  69.648  1.00  0.00    -0.154 A  
ENDBRANCH  25  28
ENDBRANCH   4  25
TORSDOF 5
ENDMDL
MODEL       92
REMARK 921   NORMALIZED FREE ENERGY PREDICTED BY IDOCK:   -5.22 KCAL/MOL
REMARK 922        TOTAL FREE ENERGY PREDICTED BY IDOCK:   -8.39 KCAL/MOL
REMARK 923 INTER-LIGAND FREE ENERGY PREDICTED BY IDOCK:   -6.38 KCAL/MOL
REMARK 924 INTRA-LIGAND FREE ENERGY PREDICTED BY IDOCK:   -2.01 KCAL/MOL
REMARK 927      BINDING AFFINITY PREDICTED BY RF-SCORE:    0.00 PKD
ROOT
HETATM    1  C   UNL     1     -10.834   9.205  70.241  1.00  0.00    -0.246 C  
HETATM    2  N   UNL     1     -10.576   9.457  68.814  1.00  0.00    -0.222 N  
HETATM    3  O   UNL     1     -11.078  11.633  69.173  1.00  0.00    -0.229 OA 
HETATM    4  C   UNL     1     -10.574  10.791  68.409  1.00  0.00    -0.197 C  
ENDROOT
BRANCH   2   5
HETATM    5  C   UNL     1      -9.931   8.395  68.151  1.00  0.00    -0.191 A  
HETATM    6  C   UNL     1      -8.207   6.863  67.590  1.00  0.00    -0.117 A  
HETATM    7  C   UNL     1     -10.683   7.733  67.167  1.00  0.00    -0.267 A  
HETATM    8  C   UNL     1      -8.609   7.973  68.387  1.00  0.00    -0.127 A  
HETATM    9  C   UNL     1      -9.059   6.168  66.717  1.00  0.00    -0.133 A  
HETATM   10  N   UNL     1     -10.289   6.645  66.482  1.00  0.00    -0.110 NA 
BRANCH   9  11
HETATM   11  N   UNL     1      -8.692   4.983  66.114  1.00  0.00    -0.118 NA 
HETATM   12  C   UNL     1      -7.452   4.910  65.321  1.00  0.00    -0.077 C  
HETATM   13  C   UNL     1      -9.760   3.342  64.567  1.00  0.00    -0.167 C  
HETATM   14  C   UNL     1      -7.685   4.336  63.901  1.00  0.00    -0.079 C  
HETATM   15  N   UNL     1      -8.506   3.107  63.824  1.00  0.00    -0.089 NA 
HETATM   16  C   UNL     1      -7.788   1.941  64.335  1.00  0.00    -0.069 C  
HETATM   17  C   UNL     1      -9.585   3.822  66.029  1.00  0.00    -0.159 C  
ENDBRANCH   9  11
BRANCH   8  18
HETATM   18  C   UNL     1      -7.638   8.466  69.454  1.00  0.00    -0.091 A  
HETATM   19  C   UNL     1      -5.905  10.181  69.994  1.00  0.00    -0.053 A  
HETATM   20  C   UNL     1      -5.709   9.639  71.247  1.00  0.00    -0.075 A  
HETATM   21  C   UNL     1      -6.826   9.590  69.120  1.00  0.00    -0.050 A  
HETATM   22  C   UNL     1      -6.455   8.532  71.618  1.00  0.00    -0.067 A  
HETATM   23  C   UNL     1      -7.436   7.959  70.763  1.00  0.00    -0.072 A  
HETATM   24  C   UNL     1      -8.176   6.809  71.379  1.00  0.00    -0.111 C  
ENDBRANCH   8  18
ENDBRANCH   2   5
BRANCH   4  25
HETATM   25  C   UNL     1      -9.911  11.330  67.077  1.00  0.00    -0.226 C  
HETATM   26  C   UNL     1     -11.129  11.520  66.135  1.00  0.00    -0.302 C  
HETATM   27  C   UNL     1      -8.891  10.489  66.301  1.00  0.00    -0.172 C  
BRANCH  25  28
HETATM   28  C   UNL     1      -9.184  12.672  67.368  1.00  0.00    -0.191 A  
HETATM   29  C   UNL     1      -9.096  15.119  67.156  1.00  0.00    -0.226 A  
HETATM   30  C   UNL     1      -9.724  13.888  66.910  1.00  0.00    -0.268 A  
HETATM   31  F   UNL     1      -5.547  15.197  69.377  1.00  0.00    -0.095 F  
HETATM   32  C   UNL     1      -9.669  16.403  66.604  1.00  0.00    -0.257 C  
HETATM   33  F   UNL     1      -5.130  13.168  68.718  1.00  0.00    -0.063 F  
HETATM   34  C   UNL     1      -7.915  15.139  67.912  1.00  0.00    -0.143 A  
HETATM   35  F   UNL     1      -9.970  17.302  67.581  1.00  0.00    -0.264 F  
HETATM   36  F   UNL     1     -10.820  16.225  65.895  1.00  0.00    -0.307 F  
HETATM   37  F   UNL     1      -6.308  13.506  70.512  1.00  0.00    -0.138 F  
HETATM   38  C   UNL     1      -6.103  13.960  69.245  1.00  0.00    -0.098 C  
HETATM   39  C   UNL     1      -7.367  13.952  68.417  1.00  0.00    -0.115 A  
HETATM   40  F   UNL     1      -8.808  17.037  65.762  1.00  0.00    -0.241 F  
HETATM   41  C   UNL     1      -8.012  12.731  68.144  1.00  0.00    -0.156 A  
ENDBRANCH  25  28
ENDBRANCH   4  25
TORSDOF 5
ENDMDL
MODEL       93
REMARK 921   NORMALIZED FREE ENERGY PREDICTED BY IDOCK:   -5.21 KCAL/MOL
REMARK 922        TOTAL FREE ENERGY PREDICTED BY IDOCK:   -8.38 KCAL/MOL
REMARK 923 INTER-LIGAND FREE ENERGY PREDICTED BY IDOCK:   -8.09 KCAL/MOL
REMARK 924 INTRA-LIGAND FREE ENERGY PREDICTED BY IDOCK:   -0.28 KCAL/MOL
REMARK 927      BINDING AFFINITY PREDICTED BY RF-SCORE:    0.00 PKD
ROOT
HETATM    1  C   UNL     1     -11.128  15.181  65.578  1.00  0.00    -0.345 C  
HETATM    2  N   UNL     1     -10.236  15.356  66.735  1.00  0.00    -0.265 N  
HETATM    3  O   UNL     1     -11.525  17.096  67.387  1.00  0.00     0.248 OA 
HETATM    4  C   UNL     1     -10.639  16.281  67.698  1.00  0.00    -0.311 C  
ENDROOT
BRANCH   2   5
HETATM    5  C   UNL     1      -9.354  14.279  66.948  1.00  0.00    -0.257 A  
HETATM    6  C   UNL     1      -7.297  13.134  67.249  1.00  0.00    -0.057 A  
HETATM    7  C   UNL     1      -9.948  13.014  67.095  1.00  0.00    -0.235 A  
HETATM    8  C   UNL     1      -7.951  14.376  67.004  1.00  0.00    -0.045 A  
HETATM    9  C   UNL     1      -7.965  11.929  67.515  1.00  0.00    -0.155 A  
HETATM   10  N   UNL     1      -9.297  11.875  67.390  1.00  0.00    -0.173 NA 
BRANCH   9  11
HETATM   11  N   UNL     1      -7.301  10.796  67.940  1.00  0.00    -0.087 NA 
HETATM   12  C   UNL     1      -7.748   9.465  67.490  1.00  0.00    -0.091 C  
HETATM   13  C   UNL     1      -6.639   9.814  70.136  1.00  0.00    -0.091 C  
HETATM   14  C   UNL     1      -7.987   8.487  68.668  1.00  0.00    -0.116 C  
HETATM   15  N   UNL     1      -6.922   8.434  69.695  1.00  0.00    -0.047 NA 
HETATM   16  C   UNL     1      -5.719   7.771  69.196  1.00  0.00    -0.030 C  
HETATM   17  C   UNL     1      -6.294  10.815  69.007  1.00  0.00    -0.048 C  
ENDBRANCH   9  11
BRANCH   8  18
HETATM   18  C   UNL     1      -7.091  15.634  66.968  1.00  0.00    -0.127 A  
HETATM   19  C   UNL     1      -6.913  17.953  66.058  1.00  0.00    -0.346 A  
HETATM   20  C   UNL     1      -5.704  18.146  66.692  1.00  0.00    -0.178 A  
HETATM   21  C   UNL     1      -7.569  16.721  66.177  1.00  0.00    -0.168 A  
HETATM   22  C   UNL     1      -5.180  17.116  67.457  1.00  0.00    -0.134 A  
HETATM   23  C   UNL     1      -5.864  15.882  67.634  1.00  0.00    -0.171 A  
HETATM   24  C   UNL     1      -5.158  14.927  68.551  1.00  0.00    -0.103 C  
ENDBRANCH   8  18
ENDBRANCH   2   5
BRANCH   4  25
HETATM   25  C   UNL     1     -10.104  16.327  69.186  1.00  0.00    -0.264 C  
HETATM   26  C   UNL     1     -10.277  17.820  69.572  1.00  0.00     0.127 C  
HETATM   27  C   UNL     1      -8.655  15.959  69.521  1.00  0.00    -0.095 C  
BRANCH  25  28
HETATM   28  C   UNL     1     -10.970  15.392  70.076  1.00  0.00    -0.313 A  
HETATM   29  C   UNL     1     -12.412  15.082  72.041  1.00  0.00    -0.409 A  
HETATM   30  C   UNL     1     -11.621  15.897  71.216  1.00  0.00    -0.509 A  
HETATM   31  F   UNL     1     -12.917  11.046  71.050  1.00  0.00    -0.411 F  
HETATM   32  C   UNL     1     -13.053  15.639  73.290  1.00  0.00    -0.564 C  
HETATM   33  F   UNL     1     -10.999  11.091  70.030  1.00  0.00    -0.297 F  
HETATM   34  C   UNL     1     -12.588  13.735  71.696  1.00  0.00    -0.370 A  
HETATM   35  F   UNL     1     -14.409  15.522  73.277  1.00  0.00    -0.177 F  
HETATM   36  F   UNL     1     -12.797  16.963  73.491  1.00  0.00    -0.256 F  
HETATM   37  F   UNL     1     -12.812  11.623  68.957  1.00  0.00     0.125 F  
HETATM   38  C   UNL     1     -12.179  11.758  70.155  1.00  0.00    -0.263 C  
HETATM   39  C   UNL     1     -11.986  13.205  70.546  1.00  0.00    -0.303 A  
HETATM   40  F   UNL     1     -12.633  15.004  74.418  1.00  0.00    -0.606 F  
HETATM   41  C   UNL     1     -11.188  14.042  69.745  1.00  0.00    -0.175 A  
ENDBRANCH  25  28
ENDBRANCH   4  25
TORSDOF 5
ENDMDL
MODEL       94
REMARK 921   NORMALIZED FREE ENERGY PREDICTED BY IDOCK:   -5.15 KCAL/MOL
REMARK 922        TOTAL FREE ENERGY PREDICTED BY IDOCK:   -8.30 KCAL/MOL
REMARK 923 INTER-LIGAND FREE ENERGY PREDICTED BY IDOCK:   -6.82 KCAL/MOL
REMARK 924 INTRA-LIGAND FREE ENERGY PREDICTED BY IDOCK:   -1.48 KCAL/MOL
REMARK 927      BINDING AFFINITY PREDICTED BY RF-SCORE:    0.00 PKD
ROOT
HETATM    1  C   UNL     1      -6.428   8.211  68.781  1.00  0.00    -0.053 C  
HETATM    2  N   UNL     1      -7.661   8.503  68.031  1.00  0.00    -0.097 N  
HETATM    3  O   UNL     1      -8.382   6.419  68.529  1.00  0.00    -0.112 OA 
HETATM    4  C   UNL     1      -8.677   7.551  68.109  1.00  0.00    -0.122 C  
ENDROOT
BRANCH   2   5
HETATM    5  C   UNL     1      -7.832   9.865  67.715  1.00  0.00    -0.094 A  
HETATM    6  C   UNL     1      -7.989  11.820  66.379  1.00  0.00     0.065 A  
HETATM    7  C   UNL     1      -8.073  10.725  68.799  1.00  0.00    -0.143 A  
HETATM    8  C   UNL     1      -7.761  10.414  66.421  1.00  0.00    -0.125 A  
HETATM    9  C   UNL     1      -8.354  12.595  67.490  1.00  0.00    -0.177 A  
HETATM   10  N   UNL     1      -8.348  12.038  68.709  1.00  0.00    -0.023 NA 
BRANCH   9  11
HETATM   11  N   UNL     1      -8.757  13.909  67.374  1.00  0.00    -0.192 NA 
HETATM   12  C   UNL     1      -9.975  14.245  66.615  1.00  0.00    -0.275 C  
HETATM   13  C   UNL     1      -7.719  16.052  66.628  1.00  0.00    -0.204 C  
HETATM   14  C   UNL     1      -9.725  15.330  65.537  1.00  0.00    -0.278 C  
HETATM   15  N   UNL     1      -8.959  16.518  65.977  1.00  0.00    -0.462 NA 
HETATM   16  C   UNL     1      -9.745  17.373  66.865  1.00  0.00    -0.286 C  
HETATM   17  C   UNL     1      -7.915  15.040  67.783  1.00  0.00    -0.143 C  
ENDBRANCH   9  11
BRANCH   8  18
HETATM   18  C   UNL     1      -7.608   9.682  65.093  1.00  0.00    -0.114 A  
HETATM   19  C   UNL     1      -6.293   7.951  63.863  1.00  0.00    -0.062 A  
HETATM   20  C   UNL     1      -7.053   8.130  62.727  1.00  0.00    -0.088 A  
HETATM   21  C   UNL     1      -6.552   8.726  65.001  1.00  0.00    -0.068 A  
HETATM   22  C   UNL     1      -8.079   9.062  62.752  1.00  0.00    -0.164 A  
HETATM   23  C   UNL     1      -8.391   9.813  63.919  1.00  0.00    -0.173 A  
HETATM   24  C   UNL     1      -9.576  10.717  63.754  1.00  0.00    -0.339 C  
ENDBRANCH   8  18
ENDBRANCH   2   5
BRANCH   4  25
HETATM   25  C   UNL     1     -10.198   7.824  67.772  1.00  0.00    -0.271 C  
HETATM   26  C   UNL     1     -10.786   6.395  67.634  1.00  0.00    -0.425 C  
HETATM   27  C   UNL     1     -10.607   8.584  66.505  1.00  0.00     0.054 C  
BRANCH  25  28
HETATM   28  C   UNL     1     -10.853   8.613  68.939  1.00  0.00    -0.024 A  
HETATM   29  C   UNL     1     -11.750   8.650  71.227  1.00  0.00    -0.341 A  
HETATM   30  C   UNL     1     -11.161   7.967  70.151  1.00  0.00    -0.145 A  
HETATM   31  F   UNL     1     -12.557  12.741  70.860  1.00  0.00    -0.409 F  
HETATM   32  C   UNL     1     -12.121   7.918  72.495  1.00  0.00    -0.246 C  
HETATM   33  F   UNL     1     -12.719  12.482  68.708  1.00  0.00     0.175 F  
HETATM   34  C   UNL     1     -12.006  10.023  71.103  1.00  0.00    -0.484 A  
HETATM   35  F   UNL     1     -11.495   8.426  73.592  1.00  0.00     0.376 F  
HETATM   36  F   UNL     1     -11.808   6.591  72.470  1.00  0.00    -0.302 F  
HETATM   37  F   UNL     1     -10.787  12.903  69.609  1.00  0.00    -0.107 F  
HETATM   38  C   UNL     1     -11.935  12.190  69.781  1.00  0.00    -0.302 C  
HETATM   39  C   UNL     1     -11.678  10.708  69.924  1.00  0.00    -0.395 A  
HETATM   40  F   UNL     1     -13.454   7.980  72.761  1.00  0.00    -0.030 F  
HETATM   41  C   UNL     1     -11.099   9.996  68.858  1.00  0.00    -0.219 A  
ENDBRANCH  25  28
ENDBRANCH   4  25
TORSDOF 5
ENDMDL
MODEL       95
REMARK 921   NORMALIZED FREE ENERGY PREDICTED BY IDOCK:   -5.15 KCAL/MOL
REMARK 922        TOTAL FREE ENERGY PREDICTED BY IDOCK:   -8.29 KCAL/MOL
REMARK 923 INTER-LIGAND FREE ENERGY PREDICTED BY IDOCK:   -6.62 KCAL/MOL
REMARK 924 INTRA-LIGAND FREE ENERGY PREDICTED BY IDOCK:   -1.67 KCAL/MOL
REMARK 927      BINDING AFFINITY PREDICTED BY RF-SCORE:    0.00 PKD
ROOT
HETATM    1  C   UNL     1      -6.100  10.736  70.890  1.00  0.00     0.074 C  
HETATM    2  N   UNL     1      -6.752  11.143  69.635  1.00  0.00    -0.134 N  
HETATM    3  O   UNL     1      -6.484  13.297  70.269  1.00  0.00    -0.001 OA 
HETATM    4  C   UNL     1      -6.746  12.507  69.345  1.00  0.00    -0.022 C  
ENDROOT
BRANCH   2   5
HETATM    5  C   UNL     1      -6.887  10.103  68.694  1.00  0.00    -0.057 A  
HETATM    6  C   UNL     1      -7.963   8.552  67.256  1.00  0.00    -0.102 A  
HETATM    7  C   UNL     1      -5.691   9.534  68.227  1.00  0.00    -0.037 A  
HETATM    8  C   UNL     1      -8.109   9.594  68.217  1.00  0.00    -0.105 A  
HETATM    9  C   UNL     1      -6.731   8.123  66.738  1.00  0.00    -0.064 A  
HETATM   10  N   UNL     1      -5.596   8.595  67.269  1.00  0.00    -0.038 NA 
BRANCH   9  11
HETATM   11  N   UNL     1      -6.642   7.253  65.670  1.00  0.00    -0.047 NA 
HETATM   12  C   UNL     1      -7.796   7.062  64.774  1.00  0.00    -0.126 C  
HETATM   13  C   UNL     1      -6.011   4.862  65.343  1.00  0.00    -0.022 C  
HETATM   14  C   UNL     1      -8.174   5.570  64.599  1.00  0.00    -0.130 C  
HETATM   15  N   UNL     1      -7.053   4.644  64.320  1.00  0.00    -0.049 NA 
HETATM   16  C   UNL     1      -6.526   4.820  62.969  1.00  0.00    -0.026 C  
HETATM   17  C   UNL     1      -5.521   6.323  65.492  1.00  0.00    -0.017 C  
ENDBRANCH   9  11
BRANCH   8  18
HETATM   18  C   UNL     1      -9.517  10.103  68.500  1.00  0.00    -0.159 A  
HETATM   19  C   UNL     1     -11.185  10.588  70.295  1.00  0.00    -0.391 A  
HETATM   20  C   UNL     1     -12.114  11.010  69.367  1.00  0.00    -0.389 A  
HETATM   21  C   UNL     1      -9.935  10.127  69.864  1.00  0.00    -0.250 A  
HETATM   22  C   UNL     1     -11.771  10.988  68.024  1.00  0.00    -0.257 A  
HETATM   23  C   UNL     1     -10.485  10.578  67.577  1.00  0.00    -0.284 A  
HETATM   24  C   UNL     1     -10.297  10.691  66.094  1.00  0.00    -0.291 C  
ENDBRANCH   8  18
ENDBRANCH   2   5
BRANCH   4  25
HETATM   25  C   UNL     1      -6.977  13.126  67.908  1.00  0.00    -0.132 C  
HETATM   26  C   UNL     1      -6.703  11.927  66.963  1.00  0.00    -0.119 C  
HETATM   27  C   UNL     1      -6.117  14.286  67.395  1.00  0.00     0.224 C  
BRANCH  25  28
HETATM   28  C   UNL     1      -8.442  13.634  67.794  1.00  0.00    -0.183 A  
HETATM   29  C   UNL     1     -10.403  14.139  66.402  1.00  0.00    -0.287 A  
HETATM   30  C   UNL     1      -9.081  13.689  66.542  1.00  0.00    -0.138 A  
HETATM   31  F   UNL     1     -12.543  15.291  69.810  1.00  0.00    -0.325 F  
HETATM   32  C   UNL     1     -11.044  14.240  65.038  1.00  0.00    -0.373 C  
HETATM   33  F   UNL     1     -10.663  15.789  70.781  1.00  0.00    -0.317 F  
HETATM   34  C   UNL     1     -11.118  14.511  67.549  1.00  0.00    -0.316 A  
HETATM   35  F   UNL     1     -12.168  13.479  64.933  1.00  0.00    -0.363 F  
HETATM   36  F   UNL     1     -10.228  13.839  64.021  1.00  0.00    -0.319 F  
HETATM   37  F   UNL     1     -11.454  13.770  70.917  1.00  0.00    -0.206 F  
HETATM   38  C   UNL     1     -11.291  14.818  70.064  1.00  0.00    -0.265 C  
HETATM   39  C   UNL     1     -10.528  14.434  68.818  1.00  0.00    -0.244 A  
HETATM   40  F   UNL     1     -11.422  15.511  64.733  1.00  0.00    -0.375 F  
HETATM   41  C   UNL     1      -9.197  13.990  68.926  1.00  0.00     0.039 A  
ENDBRANCH  25  28
ENDBRANCH   4  25
TORSDOF 5
ENDMDL
MODEL       96
REMARK 921   NORMALIZED FREE ENERGY PREDICTED BY IDOCK:   -5.10 KCAL/MOL
REMARK 922        TOTAL FREE ENERGY PREDICTED BY IDOCK:   -8.23 KCAL/MOL
REMARK 923 INTER-LIGAND FREE ENERGY PREDICTED BY IDOCK:   -7.79 KCAL/MOL
REMARK 924 INTRA-LIGAND FREE ENERGY PREDICTED BY IDOCK:   -0.44 KCAL/MOL
REMARK 927      BINDING AFFINITY PREDICTED BY RF-SCORE:    0.00 PKD
ROOT
HETATM    1  C   UNL     1      -5.692  11.435  70.344  1.00  0.00    -0.151 C  
HETATM    2  N   UNL     1      -6.871  11.135  69.515  1.00  0.00    -0.127 N  
HETATM    3  O   UNL     1      -7.147   9.235  70.710  1.00  0.00    -0.096 OA 
HETATM    4  C   UNL     1      -7.646  10.044  69.909  1.00  0.00    -0.170 C  
ENDROOT
BRANCH   2   5
HETATM    5  C   UNL     1      -7.314  12.219  68.732  1.00  0.00    -0.083 A  
HETATM    6  C   UNL     1      -7.928  13.433  66.788  1.00  0.00     0.332 A  
HETATM    7  C   UNL     1      -7.627  13.397  69.429  1.00  0.00     0.456 A  
HETATM    8  C   UNL     1      -7.442  12.209  67.331  1.00  0.00    -0.156 A  
HETATM    9  C   UNL     1      -8.346  14.528  67.560  1.00  0.00    -0.188 A  
HETATM   10  N   UNL     1      -8.146  14.512  68.884  1.00  0.00    -0.145 NA 
BRANCH   9  11
HETATM   11  N   UNL     1      -8.992  15.616  67.009  1.00  0.00    -0.208 NA 
HETATM   12  C   UNL     1      -8.211  16.727  66.436  1.00  0.00    -0.314 C  
HETATM   13  C   UNL     1     -10.733  17.242  67.752  1.00  0.00    -0.333 C  
HETATM   14  C   UNL     1      -8.626  18.106  67.010  1.00  0.00    -0.254 C  
HETATM   15  N   UNL     1     -10.081  18.375  67.067  1.00  0.00    -0.344 NA 
HETATM   16  C   UNL     1     -10.644  18.596  65.737  1.00  0.00    -0.249 C  
HETATM   17  C   UNL     1     -10.434  15.844  67.156  1.00  0.00    -0.313 C  
ENDBRANCH   9  11
BRANCH   8  18
HETATM   18  C   UNL     1      -7.255  11.036  66.375  1.00  0.00    -0.127 A  
HETATM   19  C   UNL     1      -5.695   9.222  65.659  1.00  0.00    -0.053 A  
HETATM   20  C   UNL     1      -6.591   8.777  64.710  1.00  0.00    -0.066 A  
HETATM   21  C   UNL     1      -6.015  10.335  66.447  1.00  0.00    -0.069 A  
HETATM   22  C   UNL     1      -7.805   9.435  64.580  1.00  0.00    -0.121 A  
HETATM   23  C   UNL     1      -8.166  10.529  65.414  1.00  0.00    -0.152 A  
HETATM   24  C   UNL     1      -9.546  11.055  65.153  1.00  0.00    -0.281 C  
ENDBRANCH   8  18
ENDBRANCH   2   5
BRANCH   4  25
HETATM   25  C   UNL     1      -9.144   9.795  69.467  1.00  0.00    -0.227 C  
HETATM   26  C   UNL     1      -8.993   8.879  68.224  1.00  0.00    -0.137 C  
HETATM   27  C   UNL     1     -10.051  10.955  69.042  1.00  0.00    -0.212 C  
BRANCH  25  28
HETATM   28  C   UNL     1      -9.912   9.090  70.620  1.00  0.00    -0.287 A  
HETATM   29  C   UNL     1     -12.029   8.635  71.783  1.00  0.00    -0.402 A  
HETATM   30  C   UNL     1     -11.302   9.259  70.756  1.00  0.00    -0.349 A  
HETATM   31  F   UNL     1     -10.024   6.140  74.483  1.00  0.00    -0.204 F  
HETATM   32  C   UNL     1     -13.511   8.879  71.939  1.00  0.00    -0.414 C  
HETATM   33  F   UNL     1      -8.202   7.271  74.123  1.00  0.00    -0.137 F  
HETATM   34  C   UNL     1     -11.353   7.790  72.676  1.00  0.00    -0.449 A  
HETATM   35  F   UNL     1     -14.240   7.733  71.855  1.00  0.00    -0.408 F  
HETATM   36  F   UNL     1     -14.027   9.718  70.996  1.00  0.00    -0.358 F  
HETATM   37  F   UNL     1      -8.695   5.574  72.858  1.00  0.00    -0.118 F  
HETATM   38  C   UNL     1      -9.237   6.649  73.494  1.00  0.00    -0.137 C  
HETATM   39  C   UNL     1      -9.975   7.568  72.548  1.00  0.00    -0.248 A  
HETATM   40  F   UNL     1     -13.823   9.435  73.142  1.00  0.00    -0.282 F  
HETATM   41  C   UNL     1      -9.271   8.216  71.516  1.00  0.00    -0.209 A  
ENDBRANCH  25  28
ENDBRANCH   4  25
TORSDOF 5
ENDMDL
MODEL       97
REMARK 921   NORMALIZED FREE ENERGY PREDICTED BY IDOCK:   -5.07 KCAL/MOL
REMARK 922        TOTAL FREE ENERGY PREDICTED BY IDOCK:   -8.19 KCAL/MOL
REMARK 923 INTER-LIGAND FREE ENERGY PREDICTED BY IDOCK:   -8.65 KCAL/MOL
REMARK 924 INTRA-LIGAND FREE ENERGY PREDICTED BY IDOCK:    0.46 KCAL/MOL
REMARK 927      BINDING AFFINITY PREDICTED BY RF-SCORE:    0.00 PKD
ROOT
HETATM    1  C   UNL     1      -6.481   9.746  67.340  1.00  0.00    -0.069 C  
HETATM    2  N   UNL     1      -7.894   9.897  67.723  1.00  0.00    -0.094 N  
HETATM    3  O   UNL     1      -8.104  11.454  66.097  1.00  0.00    -0.123 OA 
HETATM    4  C   UNL     1      -8.681  10.695  66.895  1.00  0.00    -0.132 C  
ENDROOT
BRANCH   2   5
HETATM    5  C   UNL     1      -8.367   8.886  68.583  1.00  0.00    -0.124 A  
HETATM    6  C   UNL     1      -8.951   6.706  69.318  1.00  0.00    -0.135 A  
HETATM    7  C   UNL     1      -8.801   9.306  69.851  1.00  0.00    -0.185 A  
HETATM    8  C   UNL     1      -8.451   7.519  68.260  1.00  0.00    -0.125 A  
HETATM    9  C   UNL     1      -9.243   7.179  70.607  1.00  0.00    -0.158 A  
HETATM   10  N   UNL     1      -9.205   8.497  70.846  1.00  0.00    -0.162 NA 
BRANCH   9  11
HETATM   11  N   UNL     1      -9.534   6.332  71.656  1.00  0.00    -0.148 NA 
HETATM   12  C   UNL     1     -10.878   6.342  72.262  1.00  0.00    -0.240 C  
HETATM   13  C   UNL     1      -8.546   5.826  73.890  1.00  0.00    -0.117 C  
HETATM   14  C   UNL     1     -10.836   6.520  73.801  1.00  0.00    -0.052 C  
HETATM   15  N   UNL     1      -9.868   5.668  74.528  1.00  0.00    -0.208 NA 
HETATM   16  C   UNL     1     -10.289   4.269  74.555  1.00  0.00    -0.246 C  
HETATM   17  C   UNL     1      -8.508   5.560  72.365  1.00  0.00    -0.118 C  
ENDBRANCH   9  11
BRANCH   8  18
HETATM   18  C   UNL     1      -7.961   6.816  66.999  1.00  0.00    -0.109 A  
HETATM   19  C   UNL     1      -7.967   6.875  64.502  1.00  0.00    -0.106 A  
HETATM   20  C   UNL     1      -7.200   5.730  64.438  1.00  0.00    -0.059 A  
HETATM   21  C   UNL     1      -8.353   7.382  65.749  1.00  0.00    -0.141 A  
HETATM   22  C   UNL     1      -6.808   5.124  65.622  1.00  0.00    -0.061 A  
HETATM   23  C   UNL     1      -7.143   5.662  66.895  1.00  0.00    -0.070 A  
HETATM   24  C   UNL     1      -6.567   4.891  68.045  1.00  0.00    -0.049 C  
ENDBRANCH   8  18
ENDBRANCH   2   5
BRANCH   4  25
HETATM   25  C   UNL     1     -10.262  10.659  66.842  1.00  0.00    -0.272 C  
HETATM   26  C   UNL     1     -10.578   9.142  66.918  1.00  0.00    -0.237 C  
HETATM   27  C   UNL     1     -11.029  11.200  65.630  1.00  0.00    -0.149 C  
BRANCH  25  28
HETATM   28  C   UNL     1     -10.839  11.436  68.058  1.00  0.00    -0.264 A  
HETATM   29  C   UNL     1     -11.289  13.575  69.181  1.00  0.00    -0.333 A  
HETATM   30  C   UNL     1     -10.776  12.841  68.100  1.00  0.00    -0.243 A  
HETATM   31  F   UNL     1     -13.124  11.541  72.348  1.00  0.00    -0.558 F  
HETATM   32  C   UNL     1     -11.158  15.079  69.225  1.00  0.00    -0.272 C  
HETATM   33  F   UNL     1     -11.906   9.800  71.891  1.00  0.00    -0.442 F  
HETATM   34  C   UNL     1     -11.914  12.889  70.232  1.00  0.00    -0.359 A  
HETATM   35  F   UNL     1     -12.364  15.706  69.298  1.00  0.00    -0.341 F  
HETATM   36  F   UNL     1     -10.533  15.603  68.132  1.00  0.00    -0.239 F  
HETATM   37  F   UNL     1     -13.822  10.075  70.903  1.00  0.00    -0.361 F  
HETATM   38  C   UNL     1     -12.712  10.740  71.326  1.00  0.00    -0.441 C  
HETATM   39  C   UNL     1     -12.029  11.492  70.207  1.00  0.00    -0.455 A  
HETATM   40  F   UNL     1     -10.446  15.508  70.303  1.00  0.00    -0.284 F  
HETATM   41  C   UNL     1     -11.495  10.781  69.116  1.00  0.00    -0.368 A  
ENDBRANCH  25  28
ENDBRANCH   4  25
TORSDOF 5
ENDMDL
MODEL       98
REMARK 921   NORMALIZED FREE ENERGY PREDICTED BY IDOCK:   -5.07 KCAL/MOL
REMARK 922        TOTAL FREE ENERGY PREDICTED BY IDOCK:   -8.19 KCAL/MOL
REMARK 923 INTER-LIGAND FREE ENERGY PREDICTED BY IDOCK:   -8.02 KCAL/MOL
REMARK 924 INTRA-LIGAND FREE ENERGY PREDICTED BY IDOCK:   -0.17 KCAL/MOL
REMARK 927      BINDING AFFINITY PREDICTED BY RF-SCORE:    0.00 PKD
ROOT
HETATM    1  C   UNL     1      -6.166   7.202  68.498  1.00  0.00    -0.035 C  
HETATM    2  N   UNL     1      -7.358   7.884  67.969  1.00  0.00    -0.093 N  
HETATM    3  O   UNL     1      -8.315   5.855  67.684  1.00  0.00    -0.105 OA 
HETATM    4  C   UNL     1      -8.477   7.087  67.732  1.00  0.00    -0.120 C  
ENDROOT
BRANCH   2   5
HETATM    5  C   UNL     1      -7.372   9.275  68.195  1.00  0.00    -0.079 A  
HETATM    6  C   UNL     1      -7.507  11.317  69.398  1.00  0.00     0.014 A  
HETATM    7  C   UNL     1      -7.209  10.086  67.060  1.00  0.00    -0.090 A  
HETATM    8  C   UNL     1      -7.553   9.893  69.446  1.00  0.00    -0.113 A  
HETATM    9  C   UNL     1      -7.209  12.058  68.244  1.00  0.00    -0.090 A  
HETATM   10  N   UNL     1      -7.106  11.427  67.067  1.00  0.00    -0.130 NA 
BRANCH   9  11
HETATM   11  N   UNL     1      -6.981  13.418  68.279  1.00  0.00    -0.095 NA 
HETATM   12  C   UNL     1      -5.939  13.970  69.164  1.00  0.00    -0.091 C  
HETATM   13  C   UNL     1      -8.357  15.466  68.646  1.00  0.00    -0.168 C  
HETATM   14  C   UNL     1      -6.472  15.103  70.077  1.00  0.00    -0.156 C  
HETATM   15  N   UNL     1      -7.292  16.141  69.413  1.00  0.00    -0.227 NA 
HETATM   16  C   UNL     1      -6.483  17.010  68.562  1.00  0.00    -0.164 C  
HETATM   17  C   UNL     1      -7.873  14.393  67.641  1.00  0.00    -0.181 C  
ENDBRANCH   9  11
BRANCH   8  18
HETATM   18  C   UNL     1      -7.654   9.235  70.817  1.00  0.00    -0.154 A  
HETATM   19  C   UNL     1      -9.224   8.256  72.495  1.00  0.00    -0.339 A  
HETATM   20  C   UNL     1      -8.185   7.978  73.358  1.00  0.00    -0.259 A  
HETATM   21  C   UNL     1      -8.961   8.888  71.273  1.00  0.00    -0.312 A  
HETATM   22  C   UNL     1      -6.895   8.313  72.976  1.00  0.00    -0.122 A  
HETATM   23  C   UNL     1      -6.607   8.901  71.714  1.00  0.00    -0.055 A  
HETATM   24  C   UNL     1      -5.144   9.124  71.472  1.00  0.00    -0.041 C  
ENDBRANCH   8  18
ENDBRANCH   2   5
BRANCH   4  25
HETATM   25  C   UNL     1      -9.958   7.627  67.592  1.00  0.00    -0.225 C  
HETATM   26  C   UNL     1     -10.306   8.070  69.037  1.00  0.00    -0.228 C  
HETATM   27  C   UNL     1     -11.098   6.710  67.134  1.00  0.00    -0.427 C  
BRANCH  25  28
HETATM   28  C   UNL     1      -9.981   8.820  66.596  1.00  0.00    -0.355 A  
HETATM   29  C   UNL     1     -10.664  11.120  66.066  1.00  0.00    -0.272 A  
HETATM   30  C   UNL     1     -10.626  10.022  66.939  1.00  0.00    -0.261 A  
HETATM   31  F   UNL     1      -8.743  10.851  62.356  1.00  0.00    -0.223 F  
HETATM   32  C   UNL     1     -11.413  12.378  66.439  1.00  0.00    -0.373 C  
HETATM   33  F   UNL     1      -9.027   8.696  62.403  1.00  0.00    -0.206 F  
HETATM   34  C   UNL     1     -10.007  11.028  64.830  1.00  0.00    -0.343 A  
HETATM   35  F   UNL     1     -10.609  13.476  66.459  1.00  0.00    -0.272 F  
HETATM   36  F   UNL     1     -11.995  12.320  67.670  1.00  0.00    -0.397 F  
HETATM   37  F   UNL     1      -7.256   9.579  63.302  1.00  0.00    -0.099 F  
HETATM   38  C   UNL     1      -8.597   9.752  63.147  1.00  0.00    -0.198 C  
HETATM   39  C   UNL     1      -9.321   9.860  64.469  1.00  0.00    -0.336 A  
HETATM   40  F   UNL     1     -12.417  12.664  65.565  1.00  0.00    -0.501 F  
HETATM   41  C   UNL     1      -9.311   8.771  65.360  1.00  0.00    -0.095 A  
ENDBRANCH  25  28
ENDBRANCH   4  25
TORSDOF 5
ENDMDL
MODEL       99
REMARK 921   NORMALIZED FREE ENERGY PREDICTED BY IDOCK:   -5.02 KCAL/MOL
REMARK 922        TOTAL FREE ENERGY PREDICTED BY IDOCK:   -8.13 KCAL/MOL
REMARK 923 INTER-LIGAND FREE ENERGY PREDICTED BY IDOCK:   -9.01 KCAL/MOL
REMARK 924 INTRA-LIGAND FREE ENERGY PREDICTED BY IDOCK:    0.89 KCAL/MOL
REMARK 927      BINDING AFFINITY PREDICTED BY RF-SCORE:    0.00 PKD
ROOT
HETATM    1  C   UNL     1      -5.828  12.247  67.161  1.00  0.00    -0.111 C  
HETATM    2  N   UNL     1      -7.251  12.214  67.538  1.00  0.00    -0.122 N  
HETATM    3  O   UNL     1      -7.374  14.412  67.023  1.00  0.00    -0.034 OA 
HETATM    4  C   UNL     1      -7.994  13.362  67.266  1.00  0.00    -0.119 C  
ENDROOT
BRANCH   2   5
HETATM    5  C   UNL     1      -7.773  10.914  67.697  1.00  0.00    -0.108 A  
HETATM    6  C   UNL     1      -8.616   8.783  67.083  1.00  0.00    -0.119 A  
HETATM    7  C   UNL     1      -7.961  10.482  69.019  1.00  0.00    -0.136 A  
HETATM    8  C   UNL     1      -8.128  10.048  66.646  1.00  0.00    -0.118 A  
HETATM    9  C   UNL     1      -8.654   8.371  68.424  1.00  0.00    -0.139 A  
HETATM   10  N   UNL     1      -8.364   9.253  69.389  1.00  0.00    -0.120 NA 
BRANCH   9  11
HETATM   11  N   UNL     1      -8.947   7.073  68.790  1.00  0.00    -0.132 NA 
HETATM   12  C   UNL     1     -10.224   6.461  68.384  1.00  0.00    -0.175 C  
HETATM   13  C   UNL     1      -9.017   5.776  70.919  1.00  0.00    -0.145 C  
HETATM   14  C   UNL     1     -11.001   5.855  69.580  1.00  0.00    -0.377 C  
HETATM   15  N   UNL     1     -10.213   5.013  70.508  1.00  0.00    -0.255 NA 
HETATM   16  C   UNL     1      -9.852   3.732  69.905  1.00  0.00    -0.010 C  
HETATM   17  C   UNL     1      -8.146   6.320  69.762  1.00  0.00    -0.120 C  
ENDBRANCH   9  11
BRANCH   8  18
HETATM   18  C   UNL     1      -7.931  10.252  65.148  1.00  0.00    -0.147 A  
HETATM   19  C   UNL     1      -6.252  10.273  63.300  1.00  0.00    -0.136 A  
HETATM   20  C   UNL     1      -7.225  10.579  62.372  1.00  0.00    -0.161 A  
HETATM   21  C   UNL     1      -6.599  10.140  64.650  1.00  0.00    -0.125 A  
HETATM   22  C   UNL     1      -8.535  10.722  62.802  1.00  0.00    -0.199 A  
HETATM   23  C   UNL     1      -8.910  10.531  64.161  1.00  0.00    -0.205 A  
HETATM   24  C   UNL     1     -10.384  10.668  64.404  1.00  0.00    -0.347 C  
ENDBRANCH   8  18
ENDBRANCH   2   5
BRANCH   4  25
HETATM   25  C   UNL     1      -9.572  13.415  67.172  1.00  0.00    -0.241 C  
HETATM   26  C   UNL     1     -10.006  12.077  67.827  1.00  0.00    -0.199 C  
HETATM   27  C   UNL     1     -10.285  13.485  65.818  1.00  0.00    -0.305 C  
BRANCH  25  28
HETATM   28  C   UNL     1     -10.095  14.647  67.963  1.00  0.00    -0.227 A  
HETATM   29  C   UNL     1     -11.227  15.564  69.942  1.00  0.00    -0.322 A  
HETATM   30  C   UNL     1     -10.744  14.475  69.200  1.00  0.00    -0.263 A  
HETATM   31  F   UNL     1     -10.664  19.447  68.480  1.00  0.00    -0.387 F  
HETATM   32  C   UNL     1     -11.970  15.346  71.239  1.00  0.00    -0.374 C  
HETATM   33  F   UNL     1     -10.616  18.644  66.461  1.00  0.00    -0.393 F  
HETATM   34  C   UNL     1     -11.023  16.863  69.454  1.00  0.00    -0.081 A  
HETATM   35  F   UNL     1     -11.366  15.958  72.295  1.00  0.00    -0.459 F  
HETATM   36  F   UNL     1     -12.085  14.033  71.587  1.00  0.00    -0.375 F  
HETATM   37  F   UNL     1      -8.784  18.771  67.623  1.00  0.00    -0.276 F  
HETATM   38  C   UNL     1     -10.109  18.469  67.712  1.00  0.00    -0.364 C  
HETATM   39  C   UNL     1     -10.347  17.075  68.244  1.00  0.00    -0.347 A  
HETATM   40  F   UNL     1     -13.240  15.834  71.200  1.00  0.00    -0.510 F  
HETATM   41  C   UNL     1      -9.885  15.963  67.515  1.00  0.00    -0.230 A  
ENDBRANCH  25  28
ENDBRANCH   4  25
TORSDOF 5
ENDMDL
MODEL      100
REMARK 921   NORMALIZED FREE ENERGY PREDICTED BY IDOCK:   -5.02 KCAL/MOL
REMARK 922        TOTAL FREE ENERGY PREDICTED BY IDOCK:   -8.13 KCAL/MOL
REMARK 923 INTER-LIGAND FREE ENERGY PREDICTED BY IDOCK:   -8.54 KCAL/MOL
REMARK 924 INTRA-LIGAND FREE ENERGY PREDICTED BY IDOCK:    0.41 KCAL/MOL
REMARK 927      BINDING AFFINITY PREDICTED BY RF-SCORE:    0.00 PKD
ROOT
HETATM    1  C   UNL     1     -12.494   7.715  71.158  1.00  0.00    -0.247 C  
HETATM    2  N   UNL     1     -11.733   8.212  70.000  1.00  0.00     0.179 N  
HETATM    3  O   UNL     1     -12.487  10.290  70.478  1.00  0.00    -0.292 OA 
HETATM    4  C   UNL     1     -11.673   9.597  69.845  1.00  0.00     0.040 C  
ENDROOT
BRANCH   2   5
HETATM    5  C   UNL     1     -10.811   7.284  69.477  1.00  0.00    -0.209 A  
HETATM    6  C   UNL     1      -8.871   5.921  69.365  1.00  0.00    -0.122 A  
HETATM    7  C   UNL     1     -11.127   6.741  68.221  1.00  0.00    -0.141 A  
HETATM    8  C   UNL     1      -9.615   6.888  70.103  1.00  0.00    -0.162 A  
HETATM    9  C   UNL     1      -9.315   5.326  68.174  1.00  0.00    -0.118 A  
HETATM   10  N   UNL     1     -10.430   5.781  67.588  1.00  0.00    -0.222 NA 
BRANCH   9  11
HETATM   11  N   UNL     1      -8.662   4.256  67.596  1.00  0.00    -0.103 NA 
HETATM   12  C   UNL     1      -7.595   3.555  68.333  1.00  0.00    -0.056 C  
HETATM   13  C   UNL     1      -7.447   3.829  65.460  1.00  0.00    -0.077 C  
HETATM   14  C   UNL     1      -6.284   3.440  67.516  1.00  0.00    -0.032 C  
HETATM   15  N   UNL     1      -6.429   2.985  66.115  1.00  0.00    -0.028 NA 
HETATM   16  C   UNL     1      -6.773   1.567  66.038  1.00  0.00    -0.027 C  
HETATM   17  C   UNL     1      -8.815   3.900  66.181  1.00  0.00    -0.124 C  
ENDBRANCH   9  11
BRANCH   8  18
HETATM   18  C   UNL     1      -9.108   7.261  71.491  1.00  0.00    -0.145 A  
HETATM   19  C   UNL     1      -9.608   7.159  73.936  1.00  0.00    -0.319 A  
HETATM   20  C   UNL     1      -8.437   7.821  74.239  1.00  0.00    -0.285 A  
HETATM   21  C   UNL     1      -9.938   6.911  72.598  1.00  0.00    -0.191 A  
HETATM   22  C   UNL     1      -7.601   8.205  73.202  1.00  0.00    -0.197 A  
HETATM   23  C   UNL     1      -7.896   7.907  71.843  1.00  0.00    -0.120 A  
HETATM   24  C   UNL     1      -6.831   8.352  70.884  1.00  0.00    -0.047 C  
ENDBRANCH   8  18
ENDBRANCH   2   5
BRANCH   4  25
HETATM   25  C   UNL     1     -10.595  10.361  68.975  1.00  0.00    -0.247 C  
HETATM   26  C   UNL     1     -10.406   9.425  67.752  1.00  0.00    -0.291 C  
HETATM   27  C   UNL     1      -9.192  10.648  69.520  1.00  0.00     0.008 C  
BRANCH  25  28
HETATM   28  C   UNL     1     -11.155  11.752  68.563  1.00  0.00    -0.288 A  
HETATM   29  C   UNL     1     -11.793  14.042  69.182  1.00  0.00    -0.391 A  
HETATM   30  C   UNL     1     -11.295  12.774  69.519  1.00  0.00    -0.223 A  
HETATM   31  F   UNL     1     -12.835  14.841  65.206  1.00  0.00    -0.283 F  
HETATM   32  C   UNL     1     -11.985  15.103  70.240  1.00  0.00    -0.319 C  
HETATM   33  F   UNL     1     -13.221  12.721  64.917  1.00  0.00    -0.467 F  
HETATM   34  C   UNL     1     -12.128  14.308  67.846  1.00  0.00    -0.296 A  
HETATM   35  F   UNL     1     -11.267  16.231  69.984  1.00  0.00    -0.302 F  
HETATM   36  F   UNL     1     -11.612  14.701  71.489  1.00  0.00    -0.364 F  
HETATM   37  F   UNL     1     -11.224  13.515  64.596  1.00  0.00    -0.314 F  
HETATM   38  C   UNL     1     -12.310  13.601  65.414  1.00  0.00    -0.476 C  
HETATM   39  C   UNL     1     -11.966  13.325  66.859  1.00  0.00    -0.430 A  
HETATM   40  F   UNL     1     -13.282  15.501  70.349  1.00  0.00    -0.410 F  
HETATM   41  C   UNL     1     -11.475  12.059  67.228  1.00  0.00    -0.403 A  
ENDBRANCH  25  28
ENDBRANCH   4  25
TORSDOF 5
ENDMDL
MODEL      101
REMARK 921   NORMALIZED FREE ENERGY PREDICTED BY IDOCK:   -5.01 KCAL/MOL
REMARK 922        TOTAL FREE ENERGY PREDICTED BY IDOCK:   -8.12 KCAL/MOL
REMARK 923 INTER-LIGAND FREE ENERGY PREDICTED BY IDOCK:   -6.92 KCAL/MOL
REMARK 924 INTRA-LIGAND FREE ENERGY PREDICTED BY IDOCK:   -1.20 KCAL/MOL
REMARK 927      BINDING AFFINITY PREDICTED BY RF-SCORE:    0.00 PKD
ROOT
HETATM    1  C   UNL     1      -7.057  11.613  68.613  1.00  0.00    -0.099 C  
HETATM    2  N   UNL     1      -8.390  11.086  68.277  1.00  0.00    -0.126 N  
HETATM    3  O   UNL     1      -8.128  11.927  66.195  1.00  0.00     0.086 OA 
HETATM    4  C   UNL     1      -8.771  11.167  66.939  1.00  0.00    -0.152 C  
ENDROOT
BRANCH   2   5
HETATM    5  C   UNL     1      -8.906  10.183  69.227  1.00  0.00    -0.183 A  
HETATM    6  C   UNL     1     -10.332   9.341  70.927  1.00  0.00    -0.367 A  
HETATM    7  C   UNL     1      -8.240   8.952  69.335  1.00  0.00    -0.107 A  
HETATM    8  C   UNL     1     -10.006  10.431  70.069  1.00  0.00    -0.015 A  
HETATM    9  C   UNL     1      -9.700   8.089  70.887  1.00  0.00    -0.164 A  
HETATM   10  N   UNL     1      -8.620   7.923  70.113  1.00  0.00    -0.133 NA 
BRANCH   9  11
HETATM   11  N   UNL     1     -10.172   7.001  71.593  1.00  0.00    -0.194 NA 
HETATM   12  C   UNL     1     -10.761   7.187  72.931  1.00  0.00    -0.302 C  
HETATM   13  C   UNL     1      -9.265   4.792  72.316  1.00  0.00    -0.127 C  
HETATM   14  C   UNL     1     -10.118   6.266  73.999  1.00  0.00    -0.289 C  
HETATM   15  N   UNL     1      -9.956   4.845  73.619  1.00  0.00    -0.151 NA 
HETATM   16  C   UNL     1     -11.238   4.144  73.577  1.00  0.00    -0.250 C  
HETATM   17  C   UNL     1      -9.922   5.615  71.181  1.00  0.00    -0.190 C  
ENDBRANCH   9  11
BRANCH   8  18
HETATM   18  C   UNL     1     -10.937  11.638  70.074  1.00  0.00     0.244 A  
HETATM   19  C   UNL     1     -11.306  13.928  69.149  1.00  0.00    -0.331 A  
HETATM   20  C   UNL     1     -12.477  14.067  69.864  1.00  0.00    -0.301 A  
HETATM   21  C   UNL     1     -10.551  12.755  69.275  1.00  0.00     0.117 A  
HETATM   22  C   UNL     1     -12.890  13.021  70.674  1.00  0.00    -0.081 A  
HETATM   23  C   UNL     1     -12.165  11.801  70.765  1.00  0.00    -0.424 A  
HETATM   24  C   UNL     1     -12.816  10.776  71.645  1.00  0.00    -0.562 C  
ENDBRANCH   8  18
ENDBRANCH   2   5
BRANCH   4  25
HETATM   25  C   UNL     1      -9.920  10.306  66.274  1.00  0.00    -0.295 C  
HETATM   26  C   UNL     1     -10.193  11.057  64.944  1.00  0.00    -0.373 C  
HETATM   27  C   UNL     1     -11.280  10.132  66.959  1.00  0.00     0.123 C  
BRANCH  25  28
HETATM   28  C   UNL     1      -9.408   8.859  66.031  1.00  0.00    -0.306 A  
HETATM   29  C   UNL     1      -9.551   6.455  66.519  1.00  0.00    -0.185 A  
HETATM   30  C   UNL     1      -9.986   7.775  66.716  1.00  0.00    -0.331 A  
HETATM   31  F   UNL     1      -6.490   5.700  63.765  1.00  0.00    -0.029 F  
HETATM   32  C   UNL     1     -10.152   5.317  67.311  1.00  0.00    -0.195 C  
HETATM   33  F   UNL     1      -5.741   7.713  64.096  1.00  0.00    -0.041 F  
HETATM   34  C   UNL     1      -8.534   6.207  65.586  1.00  0.00    -0.151 A  
HETATM   35  F   UNL     1     -10.720   4.371  66.513  1.00  0.00    -0.208 F  
HETATM   36  F   UNL     1     -11.131   5.712  68.174  1.00  0.00    -0.282 F  
HETATM   37  F   UNL     1      -7.253   7.352  62.577  1.00  0.00    -0.071 F  
HETATM   38  C   UNL     1      -6.874   7.004  63.838  1.00  0.00    -0.051 C  
HETATM   39  C   UNL     1      -7.960   7.258  64.857  1.00  0.00    -0.127 A  
HETATM   40  F   UNL     1      -9.229   4.664  68.068  1.00  0.00    -0.117 F  
HETATM   41  C   UNL     1      -8.408   8.572  65.084  1.00  0.00    -0.178 A  
ENDBRANCH  25  28
ENDBRANCH   4  25
TORSDOF 5
ENDMDL
MODEL      102
REMARK 921   NORMALIZED FREE ENERGY PREDICTED BY IDOCK:   -5.00 KCAL/MOL
REMARK 922        TOTAL FREE ENERGY PREDICTED BY IDOCK:   -8.10 KCAL/MOL
REMARK 923 INTER-LIGAND FREE ENERGY PREDICTED BY IDOCK:   -9.36 KCAL/MOL
REMARK 924 INTRA-LIGAND FREE ENERGY PREDICTED BY IDOCK:    1.26 KCAL/MOL
REMARK 927      BINDING AFFINITY PREDICTED BY RF-SCORE:    0.00 PKD
ROOT
HETATM    1  C   UNL     1      -6.994  11.083  67.486  1.00  0.00    -0.086 C  
HETATM    2  N   UNL     1      -8.368  11.410  67.901  1.00  0.00    -0.132 N  
HETATM    3  O   UNL     1      -8.187  13.349  66.752  1.00  0.00    -0.018 OA 
HETATM    4  C   UNL     1      -8.941  12.540  67.320  1.00  0.00    -0.192 C  
ENDROOT
BRANCH   2   5
HETATM    5  C   UNL     1      -9.072  10.325  68.460  1.00  0.00    -0.138 A  
HETATM    6  C   UNL     1      -9.997   8.146  68.635  1.00  0.00    -0.201 A  
HETATM    7  C   UNL     1      -9.639  10.544  69.727  1.00  0.00     0.069 A  
HETATM    8  C   UNL     1      -9.259   9.074  67.844  1.00  0.00    -0.151 A  
HETATM    9  C   UNL     1     -10.421   8.393  69.950  1.00  0.00    -0.222 A  
HETATM   10  N   UNL     1     -10.273   9.619  70.469  1.00  0.00    -0.281 NA 
BRANCH   9  11
HETATM   11  N   UNL     1     -10.957   7.404  70.750  1.00  0.00    -0.249 NA 
HETATM   12  C   UNL     1     -11.412   7.724  72.115  1.00  0.00    -0.310 C  
HETATM   13  C   UNL     1     -10.256   5.141  71.529  1.00  0.00    -0.207 C  
HETATM   14  C   UNL     1     -10.795   6.786  73.183  1.00  0.00    -0.284 C  
HETATM   15  N   UNL     1     -10.830   5.339  72.875  1.00  0.00    -0.249 NA 
HETATM   16  C   UNL     1     -12.183   4.796  72.968  1.00  0.00     0.358 C  
HETATM   17  C   UNL     1     -10.903   5.980  70.401  1.00  0.00    -0.318 C  
ENDBRANCH   9  11
BRANCH   8  18
HETATM   18  C   UNL     1      -8.670   8.572  66.531  1.00  0.00    -0.149 A  
HETATM   19  C   UNL     1      -7.122   6.905  65.500  1.00  0.00    -0.068 A  
HETATM   20  C   UNL     1      -7.378   7.395  64.237  1.00  0.00    -0.090 A  
HETATM   21  C   UNL     1      -7.734   7.498  66.612  1.00  0.00    -0.101 A  
HETATM   22  C   UNL     1      -8.263   8.453  64.100  1.00  0.00    -0.122 A  
HETATM   23  C   UNL     1      -8.937   9.025  65.214  1.00  0.00    -0.233 A  
HETATM   24  C   UNL     1      -9.899  10.115  64.843  1.00  0.00    -0.390 C  
ENDBRANCH   8  18
ENDBRANCH   2   5
BRANCH   4  25
HETATM   25  C   UNL     1     -10.494  12.839  67.266  1.00  0.00    -0.238 C  
HETATM   26  C   UNL     1     -11.123  11.504  67.744  1.00  0.00    -0.319 C  
HETATM   27  C   UNL     1     -11.188  13.196  65.947  1.00  0.00    -0.311 C  
BRANCH  25  28
HETATM   28  C   UNL     1     -10.828  14.016  68.224  1.00  0.00    -0.268 A  
HETATM   29  C   UNL     1     -11.955  14.844  70.245  1.00  0.00    -0.365 A  
HETATM   30  C   UNL     1     -11.636  13.805  69.356  1.00  0.00    -0.365 A  
HETATM   31  F   UNL     1     -10.409  18.673  69.554  1.00  0.00    -0.273 F  
HETATM   32  C   UNL     1     -12.870  14.601  71.421  1.00  0.00    -0.330 C  
HETATM   33  F   UNL     1     -10.304  18.212  67.433  1.00  0.00    -0.322 F  
HETATM   34  C   UNL     1     -11.423  16.121  70.015  1.00  0.00    -0.294 A  
HETATM   35  F   UNL     1     -12.274  14.881  72.613  1.00  0.00    -0.380 F  
HETATM   36  F   UNL     1     -13.303  13.311  71.517  1.00  0.00    -0.424 F  
HETATM   37  F   UNL     1      -8.632  17.727  68.734  1.00  0.00    -0.283 F  
HETATM   38  C   UNL     1      -9.992  17.728  68.666  1.00  0.00    -0.379 C  
HETATM   39  C   UNL     1     -10.584  16.361  68.918  1.00  0.00    -0.307 A  
HETATM   40  F   UNL     1     -13.993  15.368  71.375  1.00  0.00    -0.499 F  
HETATM   41  C   UNL     1     -10.291  15.303  68.038  1.00  0.00    -0.244 A  
ENDBRANCH  25  28
ENDBRANCH   4  25
TORSDOF 5
ENDMDL
MODEL      103
REMARK 921   NORMALIZED FREE ENERGY PREDICTED BY IDOCK:   -5.00 KCAL/MOL
REMARK 922        TOTAL FREE ENERGY PREDICTED BY IDOCK:   -8.10 KCAL/MOL
REMARK 923 INTER-LIGAND FREE ENERGY PREDICTED BY IDOCK:   -7.74 KCAL/MOL
REMARK 924 INTRA-LIGAND FREE ENERGY PREDICTED BY IDOCK:   -0.35 KCAL/MOL
REMARK 927      BINDING AFFINITY PREDICTED BY RF-SCORE:    0.00 PKD
ROOT
HETATM    1  C   UNL     1     -12.365  13.142  68.148  1.00  0.00     0.169 C  
HETATM    2  N   UNL     1     -10.942  12.825  68.353  1.00  0.00    -0.242 N  
HETATM    3  O   UNL     1     -11.555  10.716  68.894  1.00  0.00    -0.274 OA 
HETATM    4  C   UNL     1     -10.630  11.485  68.578  1.00  0.00    -0.210 C  
ENDROOT
BRANCH   2   5
HETATM    5  C   UNL     1     -10.059  13.803  67.856  1.00  0.00    -0.246 A  
HETATM    6  C   UNL     1      -8.871  15.103  66.265  1.00  0.00    -0.211 A  
HETATM    7  C   UNL     1      -9.387  14.575  68.818  1.00  0.00    -0.177 A  
HETATM    8  C   UNL     1      -9.794  14.042  66.494  1.00  0.00    -0.298 A  
HETATM    9  C   UNL     1      -8.338  15.918  67.275  1.00  0.00    -0.186 A  
HETATM   10  N   UNL     1      -8.572  15.612  68.558  1.00  0.00    -0.172 NA 
BRANCH   9  11
HETATM   11  N   UNL     1      -7.606  17.055  66.997  1.00  0.00    -0.172 NA 
HETATM   12  C   UNL     1      -6.143  17.054  67.179  1.00  0.00    -0.164 C  
HETATM   13  C   UNL     1      -7.676  19.453  67.679  1.00  0.00    -0.264 C  
HETATM   14  C   UNL     1      -5.653  18.231  68.061  1.00  0.00    -0.164 C  
HETATM   15  N   UNL     1      -6.205  19.564  67.731  1.00  0.00    -0.206 NA 
HETATM   16  C   UNL     1      -5.660  20.083  66.479  1.00  0.00    -0.170 C  
HETATM   17  C   UNL     1      -8.227  18.358  66.734  1.00  0.00    -0.253 C  
ENDBRANCH   9  11
BRANCH   8  18
HETATM   18  C   UNL     1     -10.461  13.409  65.279  1.00  0.00    -0.334 A  
HETATM   19  C   UNL     1     -10.491  11.405  63.787  1.00  0.00    -0.456 A  
HETATM   20  C   UNL     1     -11.505  11.945  63.025  1.00  0.00    -0.034 A  
HETATM   21  C   UNL     1      -9.972  12.133  64.866  1.00  0.00    -0.235 A  
HETATM   22  C   UNL     1     -12.004  13.192  63.366  1.00  0.00    -0.552 A  
HETATM   23  C   UNL     1     -11.527  13.915  64.494  1.00  0.00    -0.393 A  
HETATM   24  C   UNL     1     -12.244  15.212  64.726  1.00  0.00    -0.141 C  
ENDBRANCH   8  18
ENDBRANCH   2   5
BRANCH   4  25
HETATM   25  C   UNL     1      -9.193  10.849  68.393  1.00  0.00    -0.168 C  
HETATM   26  C   UNL     1      -8.278  11.819  69.185  1.00  0.00     0.281 C  
HETATM   27  C   UNL     1      -8.564  10.698  67.004  1.00  0.00    -0.128 C  
BRANCH  25  28
HETATM   28  C   UNL     1      -9.181   9.415  68.994  1.00  0.00    -0.145 A  
HETATM   29  C   UNL     1      -8.822   7.002  68.701  1.00  0.00    -0.128 A  
HETATM   30  C   UNL     1      -8.846   8.310  68.191  1.00  0.00    -0.139 A  
HETATM   31  F   UNL     1      -9.700   6.367  72.745  1.00  0.00    -0.157 F  
HETATM   32  C   UNL     1      -8.514   5.828  67.802  1.00  0.00    -0.103 C  
HETATM   33  F   UNL     1     -10.911   8.172  72.731  1.00  0.00    -0.362 F  
HETATM   34  C   UNL     1      -9.104   6.798  70.059  1.00  0.00    -0.148 A  
HETATM   35  F   UNL     1      -7.425   5.125  68.218  1.00  0.00    -0.070 F  
HETATM   36  F   UNL     1      -8.256   6.183  66.511  1.00  0.00    -0.105 F  
HETATM   37  F   UNL     1      -8.786   8.293  73.169  1.00  0.00    -0.241 F  
HETATM   38  C   UNL     1      -9.697   7.675  72.367  1.00  0.00    -0.178 C  
HETATM   39  C   UNL     1      -9.404   7.879  70.899  1.00  0.00    -0.162 A  
HETATM   40  F   UNL     1      -9.538   4.934  67.744  1.00  0.00    -0.135 F  
HETATM   41  C   UNL     1      -9.433   9.178  70.357  1.00  0.00    -0.269 A  
ENDBRANCH  25  28
ENDBRANCH   4  25
TORSDOF 5
ENDMDL
MODEL      104
REMARK 921   NORMALIZED FREE ENERGY PREDICTED BY IDOCK:   -4.98 KCAL/MOL
REMARK 922        TOTAL FREE ENERGY PREDICTED BY IDOCK:   -8.07 KCAL/MOL
REMARK 923 INTER-LIGAND FREE ENERGY PREDICTED BY IDOCK:   -7.76 KCAL/MOL
REMARK 924 INTRA-LIGAND FREE ENERGY PREDICTED BY IDOCK:   -0.31 KCAL/MOL
REMARK 927      BINDING AFFINITY PREDICTED BY RF-SCORE:    0.00 PKD
ROOT
HETATM    1  C   UNL     1     -10.190   9.495  70.245  1.00  0.00    -0.260 C  
HETATM    2  N   UNL     1     -10.345  10.180  68.951  1.00  0.00    -0.194 N  
HETATM    3  O   UNL     1     -11.627  11.724  69.993  1.00  0.00    -0.293 OA 
HETATM    4  C   UNL     1     -10.978  11.422  68.977  1.00  0.00    -0.236 C  
ENDROOT
BRANCH   2   5
HETATM    5  C   UNL     1      -9.459   9.728  67.953  1.00  0.00    -0.130 A  
HETATM    6  C   UNL     1      -7.406   9.374  66.817  1.00  0.00    -0.086 A  
HETATM    7  C   UNL     1     -10.038   9.012  66.892  1.00  0.00    -0.267 A  
HETATM    8  C   UNL     1      -8.071   9.956  67.935  1.00  0.00    -0.109 A  
HETATM    9  C   UNL     1      -8.032   8.558  65.863  1.00  0.00    -0.105 A  
HETATM   10  N   UNL     1      -9.365   8.422  65.888  1.00  0.00    -0.177 NA 
BRANCH   9  11
HETATM   11  N   UNL     1      -7.322   7.855  64.911  1.00  0.00    -0.069 NA 
HETATM   12  C   UNL     1      -7.305   8.316  63.512  1.00  0.00    -0.108 C  
HETATM   13  C   UNL     1      -7.224   5.492  64.119  1.00  0.00    -0.051 C  
HETATM   14  C   UNL     1      -7.703   7.201  62.512  1.00  0.00    -0.121 C  
HETATM   15  N   UNL     1      -7.048   5.888  62.708  1.00  0.00    -0.047 NA 
HETATM   16  C   UNL     1      -5.637   5.924  62.330  1.00  0.00    -0.021 C  
HETATM   17  C   UNL     1      -6.747   6.529  65.165  1.00  0.00    -0.043 C  
ENDBRANCH   9  11
BRANCH   8  18
HETATM   18  C   UNL     1      -7.210  10.615  69.006  1.00  0.00    -0.095 A  
HETATM   19  C   UNL     1      -6.336  12.793  69.860  1.00  0.00    -0.030 A  
HETATM   20  C   UNL     1      -5.655  12.161  70.879  1.00  0.00    -0.088 A  
HETATM   21  C   UNL     1      -7.069  12.034  68.940  1.00  0.00    -0.104 A  
HETATM   22  C   UNL     1      -5.737  10.781  70.979  1.00  0.00    -0.021 A  
HETATM   23  C   UNL     1      -6.526  10.003  70.088  1.00  0.00    -0.107 A  
HETATM   24  C   UNL     1      -6.531   8.538  70.409  1.00  0.00    -0.036 C  
ENDBRANCH   8  18
ENDBRANCH   2   5
BRANCH   4  25
HETATM   25  C   UNL     1     -10.875  12.511  67.835  1.00  0.00    -0.251 C  
HETATM   26  C   UNL     1     -12.034  12.125  66.878  1.00  0.00    -0.164 C  
HETATM   27  C   UNL     1      -9.619  12.635  66.965  1.00  0.00    -0.219 C  
BRANCH  25  28
HETATM   28  C   UNL     1     -11.075  13.925  68.449  1.00  0.00    -0.278 A  
HETATM   29  C   UNL     1     -11.872  15.334  70.298  1.00  0.00    -0.353 A  
HETATM   30  C   UNL     1     -11.679  14.074  69.711  1.00  0.00    -0.375 A  
HETATM   31  F   UNL     1     -10.556  18.755  68.275  1.00  0.00    -0.382 F  
HETATM   32  C   UNL     1     -12.575  15.467  71.628  1.00  0.00    -0.419 C  
HETATM   33  F   UNL     1     -10.792  17.693  66.393  1.00  0.00    -0.267 F  
HETATM   34  C   UNL     1     -11.417  16.475  69.621  1.00  0.00     0.024 A  
HETATM   35  F   UNL     1     -11.796  16.068  72.571  1.00  0.00    -0.467 F  
HETATM   36  F   UNL     1     -12.954  14.273  72.166  1.00  0.00    -0.368 F  
HETATM   37  F   UNL     1      -8.917  17.567  67.484  1.00  0.00    -0.223 F  
HETATM   38  C   UNL     1     -10.269  17.583  67.645  1.00  0.00    -0.343 C  
HETATM   39  C   UNL     1     -10.777  16.363  68.379  1.00  0.00    -0.327 A  
HETATM   40  F   UNL     1     -13.708  16.216  71.546  1.00  0.00    -0.290 F  
HETATM   41  C   UNL     1     -10.607  15.088  67.810  1.00  0.00    -0.264 A  
ENDBRANCH  25  28
ENDBRANCH   4  25
TORSDOF 5
ENDMDL
MODEL      105
REMARK 921   NORMALIZED FREE ENERGY PREDICTED BY IDOCK:   -4.96 KCAL/MOL
REMARK 922        TOTAL FREE ENERGY PREDICTED BY IDOCK:   -8.05 KCAL/MOL
REMARK 923 INTER-LIGAND FREE ENERGY PREDICTED BY IDOCK:   -8.88 KCAL/MOL
REMARK 924 INTRA-LIGAND FREE ENERGY PREDICTED BY IDOCK:    0.83 KCAL/MOL
REMARK 927      BINDING AFFINITY PREDICTED BY RF-SCORE:    0.00 PKD
ROOT
HETATM    1  C   UNL     1     -12.521   8.162  71.584  1.00  0.00    -0.319 C  
HETATM    2  N   UNL     1     -11.894   8.702  70.367  1.00  0.00    -0.026 N  
HETATM    3  O   UNL     1     -12.686  10.741  70.940  1.00  0.00    -0.347 OA 
HETATM    4  C   UNL     1     -11.907  10.089  70.224  1.00  0.00    -0.216 C  
ENDROOT
BRANCH   2   5
HETATM    5  C   UNL     1     -10.987   7.819  69.748  1.00  0.00    -0.158 A  
HETATM    6  C   UNL     1      -9.136   6.351  69.526  1.00  0.00    -0.138 A  
HETATM    7  C   UNL     1     -11.216   7.552  68.388  1.00  0.00     0.412 A  
HETATM    8  C   UNL     1      -9.883   7.216  70.377  1.00  0.00    -0.177 A  
HETATM    9  C   UNL     1      -9.502   6.031  68.210  1.00  0.00    -0.115 A  
HETATM   10  N   UNL     1     -10.525   6.677  67.636  1.00  0.00    -0.196 NA 
BRANCH   9  11
HETATM   11  N   UNL     1      -8.866   5.041  67.487  1.00  0.00    -0.103 NA 
HETATM   12  C   UNL     1      -9.652   3.962  66.862  1.00  0.00    -0.200 C  
HETATM   13  C   UNL     1      -7.003   3.432  67.889  1.00  0.00    -0.050 C  
HETATM   14  C   UNL     1      -9.134   2.552  67.240  1.00  0.00    -0.157 C  
HETATM   15  N   UNL     1      -7.671   2.349  67.141  1.00  0.00    -0.065 NA 
HETATM   16  C   UNL     1      -7.223   2.300  65.751  1.00  0.00    -0.065 C  
HETATM   17  C   UNL     1      -7.409   4.869  67.482  1.00  0.00    -0.078 C  
ENDBRANCH   9  11
BRANCH   8  18
HETATM   18  C   UNL     1      -9.487   7.276  71.848  1.00  0.00    -0.163 A  
HETATM   19  C   UNL     1      -8.185   8.549  73.556  1.00  0.00    -0.059 A  
HETATM   20  C   UNL     1      -8.558   7.669  74.549  1.00  0.00    -0.188 A  
HETATM   21  C   UNL     1      -8.620   8.338  72.242  1.00  0.00    -0.257 A  
HETATM   22  C   UNL     1      -9.382   6.604  74.220  1.00  0.00    -0.247 A  
HETATM   23  C   UNL     1      -9.880   6.411  72.902  1.00  0.00    -0.176 A  
HETATM   24  C   UNL     1     -10.807   5.239  72.772  1.00  0.00    -0.313 C  
ENDBRANCH   8  18
ENDBRANCH   2   5
BRANCH   4  25
HETATM   25  C   UNL     1     -10.950  10.907  69.266  1.00  0.00    -0.295 C  
HETATM   26  C   UNL     1     -11.281  10.329  67.865  1.00  0.00    -0.290 C  
HETATM   27  C   UNL     1      -9.426  10.834  69.414  1.00  0.00    -0.037 C  
BRANCH  25  28
HETATM   28  C   UNL     1     -11.288  12.421  69.366  1.00  0.00    -0.286 A  
HETATM   29  C   UNL     1     -12.299  14.284  70.608  1.00  0.00    -0.431 A  
HETATM   30  C   UNL     1     -11.980  12.923  70.483  1.00  0.00    -0.282 A  
HETATM   31  F   UNL     1     -11.106  16.949  67.609  1.00  0.00    -0.310 F  
HETATM   32  C   UNL     1     -13.092  14.786  71.793  1.00  0.00    -0.336 C  
HETATM   33  F   UNL     1     -11.146  15.310  66.182  1.00  0.00    -0.332 F  
HETATM   34  C   UNL     1     -11.885  15.174  69.607  1.00  0.00    -0.362 A  
HETATM   35  F   UNL     1     -12.419  15.729  72.508  1.00  0.00    -0.384 F  
HETATM   36  F   UNL     1     -13.418  13.807  72.684  1.00  0.00    -0.526 F  
HETATM   37  F   UNL     1      -9.339  15.716  67.319  1.00  0.00    -0.205 F  
HETATM   38  C   UNL     1     -10.696  15.665  67.417  1.00  0.00    -0.309 C  
HETATM   39  C   UNL     1     -11.161  14.716  68.497  1.00  0.00    -0.288 A  
HETATM   40  F   UNL     1     -14.268  15.362  71.425  1.00  0.00    -0.521 F  
HETATM   41  C   UNL     1     -10.866  13.344  68.392  1.00  0.00    -0.284 A  
ENDBRANCH  25  28
ENDBRANCH   4  25
TORSDOF 5
ENDMDL
MODEL      106
REMARK 921   NORMALIZED FREE ENERGY PREDICTED BY IDOCK:   -4.93 KCAL/MOL
REMARK 922        TOTAL FREE ENERGY PREDICTED BY IDOCK:   -8.01 KCAL/MOL
REMARK 923 INTER-LIGAND FREE ENERGY PREDICTED BY IDOCK:   -7.59 KCAL/MOL
REMARK 924 INTRA-LIGAND FREE ENERGY PREDICTED BY IDOCK:   -0.42 KCAL/MOL
REMARK 927      BINDING AFFINITY PREDICTED BY RF-SCORE:    0.00 PKD
ROOT
HETATM    1  C   UNL     1      -8.662   9.162  72.183  1.00  0.00     0.559 C  
HETATM    2  N   UNL     1      -8.238   8.927  70.793  1.00  0.00    -0.153 N  
HETATM    3  O   UNL     1      -7.200   7.045  71.495  1.00  0.00    -0.076 OA 
HETATM    4  C   UNL     1      -7.621   7.705  70.529  1.00  0.00    -0.081 C  
ENDROOT
BRANCH   2   5
HETATM    5  C   UNL     1      -8.895   9.738  69.847  1.00  0.00    -0.225 A  
HETATM    6  C   UNL     1     -10.693  10.748  68.672  1.00  0.00    -0.242 A  
HETATM    7  C   UNL     1      -8.067  10.479  68.988  1.00  0.00    -0.143 A  
HETATM    8  C   UNL     1     -10.290   9.841  69.695  1.00  0.00    -0.259 A  
HETATM    9  C   UNL     1      -9.808  11.554  67.939  1.00  0.00    -0.185 A  
HETATM   10  N   UNL     1      -8.488  11.374  68.077  1.00  0.00    -0.139 NA 
BRANCH   9  11
HETATM   11  N   UNL     1     -10.247  12.557  67.099  1.00  0.00    -0.217 NA 
HETATM   12  C   UNL     1     -10.836  13.786  67.661  1.00  0.00    -0.254 C  
HETATM   13  C   UNL     1     -11.794  12.725  65.149  1.00  0.00    -0.391 C  
HETATM   14  C   UNL     1     -12.222  14.116  67.051  1.00  0.00    -0.339 C  
HETATM   15  N   UNL     1     -12.318  14.038  65.576  1.00  0.00    -0.456 NA 
HETATM   16  C   UNL     1     -11.608  15.138  64.926  1.00  0.00    -0.336 C  
HETATM   17  C   UNL     1     -10.368  12.385  65.647  1.00  0.00    -0.258 C  
ENDBRANCH   9  11
BRANCH   8  18
HETATM   18  C   UNL     1     -11.381   9.218  70.558  1.00  0.00    -0.306 A  
HETATM   19  C   UNL     1     -13.166   9.692  72.239  1.00  0.00    -0.492 A  
HETATM   20  C   UNL     1     -13.506   8.357  72.307  1.00  0.00    -0.301 A  
HETATM   21  C   UNL     1     -12.117  10.099  71.406  1.00  0.00    -0.475 A  
HETATM   22  C   UNL     1     -12.810   7.452  71.521  1.00  0.00    -0.416 A  
HETATM   23  C   UNL     1     -11.782   7.860  70.626  1.00  0.00    -0.169 A  
HETATM   24  C   UNL     1     -11.202   6.735  69.822  1.00  0.00    -0.368 C  
ENDBRANCH   8  18
ENDBRANCH   2   5
BRANCH   4  25
HETATM   25  C   UNL     1      -7.480   7.056  69.094  1.00  0.00    -0.095 C  
HETATM   26  C   UNL     1      -5.955   7.142  68.821  1.00  0.00    -0.023 C  
HETATM   27  C   UNL     1      -8.172   7.671  67.872  1.00  0.00    -0.123 C  
BRANCH  25  28
HETATM   28  C   UNL     1      -7.982   5.585  69.139  1.00  0.00    -0.095 A  
HETATM   29  C   UNL     1      -8.711   3.639  70.449  1.00  0.00    -0.125 A  
HETATM   30  C   UNL     1      -8.254   4.964  70.371  1.00  0.00    -0.088 A  
HETATM   31  F   UNL     1      -9.353   1.485  66.917  1.00  0.00    -0.130 F  
HETATM   32  C   UNL     1      -8.941   2.979  71.789  1.00  0.00    -0.090 C  
HETATM   33  F   UNL     1      -7.862   2.722  65.932  1.00  0.00    -0.077 F  
HETATM   34  C   UNL     1      -8.937   2.928  69.262  1.00  0.00    -0.175 A  
HETATM   35  F   UNL     1     -10.226   2.558  71.948  1.00  0.00    -0.233 F  
HETATM   36  F   UNL     1      -8.684   3.796  72.850  1.00  0.00    -0.091 F  
HETATM   37  F   UNL     1      -9.941   3.353  65.973  1.00  0.00    -0.109 F  
HETATM   38  C   UNL     1      -8.965   2.776  66.727  1.00  0.00    -0.152 C  
HETATM   39  C   UNL     1      -8.713   3.526  68.015  1.00  0.00    -0.130 A  
HETATM   40  F   UNL     1      -8.161   1.879  71.968  1.00  0.00    -0.043 F  
HETATM   41  C   UNL     1      -8.243   4.852  67.967  1.00  0.00    -0.096 A  
ENDBRANCH  25  28
ENDBRANCH   4  25
TORSDOF 5
ENDMDL
MODEL      107
REMARK 921   NORMALIZED FREE ENERGY PREDICTED BY IDOCK:   -4.92 KCAL/MOL
REMARK 922        TOTAL FREE ENERGY PREDICTED BY IDOCK:   -7.99 KCAL/MOL
REMARK 923 INTER-LIGAND FREE ENERGY PREDICTED BY IDOCK:   -5.45 KCAL/MOL
REMARK 924 INTRA-LIGAND FREE ENERGY PREDICTED BY IDOCK:   -2.55 KCAL/MOL
REMARK 927      BINDING AFFINITY PREDICTED BY RF-SCORE:    0.00 PKD
ROOT
HETATM    1  C   UNL     1     -11.093  10.274  68.510  1.00  0.00    -0.242 C  
HETATM    2  N   UNL     1     -10.562   9.042  69.115  1.00  0.00    -0.224 N  
HETATM    3  O   UNL     1     -11.648   9.586  71.023  1.00  0.00    -0.291 OA 
HETATM    4  C   UNL     1     -11.054   8.705  70.375  1.00  0.00    -0.230 C  
ENDROOT
BRANCH   2   5
HETATM    5  C   UNL     1      -9.991   8.147  68.189  1.00  0.00    -0.186 A  
HETATM    6  C   UNL     1      -8.304   7.009  66.967  1.00  0.00    -0.121 A  
HETATM    7  C   UNL     1     -10.894   7.366  67.449  1.00  0.00    -0.229 A  
HETATM    8  C   UNL     1      -8.613   7.998  67.945  1.00  0.00    -0.129 A  
HETATM    9  C   UNL     1      -9.255   6.173  66.362  1.00  0.00    -0.152 A  
HETATM   10  N   UNL     1     -10.558   6.395  66.580  1.00  0.00    -0.216 NA 
BRANCH   9  11
HETATM   11  N   UNL     1      -8.899   5.100  65.571  1.00  0.00    -0.146 NA 
HETATM   12  C   UNL     1      -7.966   5.289  64.446  1.00  0.00    -0.114 C  
HETATM   13  C   UNL     1     -10.101   3.349  64.263  1.00  0.00    -0.176 C  
HETATM   14  C   UNL     1      -8.524   4.734  63.110  1.00  0.00    -0.115 C  
HETATM   15  N   UNL     1      -9.114   3.378  63.166  1.00  0.00    -0.093 NA 
HETATM   16  C   UNL     1      -8.091   2.348  63.335  1.00  0.00    -0.073 C  
HETATM   17  C   UNL     1      -9.570   3.798  65.646  1.00  0.00    -0.166 C  
ENDBRANCH   9  11
BRANCH   8  18
HETATM   18  C   UNL     1      -7.450   8.656  68.678  1.00  0.00    -0.096 A  
HETATM   19  C   UNL     1      -6.791  10.551  70.166  1.00  0.00    -0.145 A  
HETATM   20  C   UNL     1      -5.477  10.135  70.173  1.00  0.00    -0.046 A  
HETATM   21  C   UNL     1      -7.739   9.841  69.418  1.00  0.00    -0.109 A  
HETATM   22  C   UNL     1      -5.133   9.001  69.453  1.00  0.00    -0.035 A  
HETATM   23  C   UNL     1      -6.096   8.238  68.737  1.00  0.00    -0.044 A  
HETATM   24  C   UNL     1      -5.529   7.014  68.081  1.00  0.00    -0.020 C  
ENDBRANCH   8  18
ENDBRANCH   2   5
BRANCH   4  25
HETATM   25  C   UNL     1     -10.979   7.262  71.018  1.00  0.00    -0.272 C  
HETATM   26  C   UNL     1     -11.697   6.374  69.967  1.00  0.00    -0.345 C  
HETATM   27  C   UNL     1     -11.641   6.957  72.366  1.00  0.00    -0.278 C  
BRANCH  25  28
HETATM   28  C   UNL     1      -9.490   6.856  71.204  1.00  0.00    -0.166 A  
HETATM   29  C   UNL     1      -7.337   7.177  72.344  1.00  0.00    -0.079 A  
HETATM   30  C   UNL     1      -8.684   7.520  72.147  1.00  0.00    -0.140 A  
HETATM   31  F   UNL     1      -5.676   4.045  70.117  1.00  0.00    -0.013 F  
HETATM   32  C   UNL     1      -6.480   7.945  73.323  1.00  0.00    -0.074 C  
HETATM   33  F   UNL     1      -7.127   4.437  68.546  1.00  0.00    -0.049 F  
HETATM   34  C   UNL     1      -6.790   6.119  71.604  1.00  0.00    -0.068 A  
HETATM   35  F   UNL     1      -5.965   7.149  74.300  1.00  0.00    -0.069 F  
HETATM   36  F   UNL     1      -7.150   8.940  73.969  1.00  0.00    -0.138 F  
HETATM   37  F   UNL     1      -7.622   3.077  70.167  1.00  0.00    -0.043 F  
HETATM   38  C   UNL     1      -7.002   4.257  69.889  1.00  0.00    -0.042 C  
HETATM   39  C   UNL     1      -7.574   5.409  70.683  1.00  0.00    -0.081 A  
HETATM   40  F   UNL     1      -5.413   8.541  72.724  1.00  0.00    -0.040 F  
HETATM   41  C   UNL     1      -8.918   5.783  70.498  1.00  0.00    -0.152 A  
ENDBRANCH  25  28
ENDBRANCH   4  25
TORSDOF 5
ENDMDL
MODEL      108
REMARK 921   NORMALIZED FREE ENERGY PREDICTED BY IDOCK:   -4.85 KCAL/MOL
REMARK 922        TOTAL FREE ENERGY PREDICTED BY IDOCK:   -7.91 KCAL/MOL
REMARK 923 INTER-LIGAND FREE ENERGY PREDICTED BY IDOCK:   -6.77 KCAL/MOL
REMARK 924 INTRA-LIGAND FREE ENERGY PREDICTED BY IDOCK:   -1.14 KCAL/MOL
REMARK 927      BINDING AFFINITY PREDICTED BY RF-SCORE:    0.00 PKD
ROOT
HETATM    1  C   UNL     1     -11.135  10.906  65.110  1.00  0.00     0.155 C  
HETATM    2  N   UNL     1      -9.945  10.841  65.973  1.00  0.00    -0.233 N  
HETATM    3  O   UNL     1      -9.488  12.980  65.397  1.00  0.00     0.022 OA 
HETATM    4  C   UNL     1      -9.256  12.037  66.173  1.00  0.00    -0.179 C  
ENDROOT
BRANCH   2   5
HETATM    5  C   UNL     1      -9.916   9.722  66.828  1.00  0.00    -0.218 A  
HETATM    6  C   UNL     1      -9.237   7.617  67.689  1.00  0.00    -0.144 A  
HETATM    7  C   UNL     1     -10.821   9.741  67.901  1.00  0.00    -0.242 A  
HETATM    8  C   UNL     1      -9.076   8.603  66.673  1.00  0.00    -0.203 A  
HETATM    9  C   UNL     1     -10.072   7.764  68.807  1.00  0.00    -0.196 A  
HETATM   10  N   UNL     1     -10.896   8.818  68.877  1.00  0.00    -0.083 NA 
BRANCH   9  11
HETATM   11  N   UNL     1     -10.052   6.878  69.865  1.00  0.00    -0.185 NA 
HETATM   12  C   UNL     1     -11.281   6.163  70.252  1.00  0.00    -0.369 C  
HETATM   13  C   UNL     1      -9.355   6.948  72.259  1.00  0.00    -0.137 C  
HETATM   14  C   UNL     1     -11.610   6.316  71.759  1.00  0.00    -0.304 C  
HETATM   15  N   UNL     1     -10.483   6.102  72.695  1.00  0.00    -0.200 NA 
HETATM   16  C   UNL     1     -10.102   4.694  72.772  1.00  0.00    -0.170 C  
HETATM   17  C   UNL     1      -8.916   6.763  70.786  1.00  0.00    -0.151 C  
ENDBRANCH   9  11
BRANCH   8  18
HETATM   18  C   UNL     1      -7.960   8.396  65.656  1.00  0.00    -0.115 A  
HETATM   19  C   UNL     1      -7.370   8.499  63.231  1.00  0.00    -0.103 A  
HETATM   20  C   UNL     1      -6.079   8.092  63.491  1.00  0.00    -0.071 A  
HETATM   21  C   UNL     1      -8.285   8.621  64.285  1.00  0.00    -0.160 A  
HETATM   22  C   UNL     1      -5.713   7.838  64.804  1.00  0.00    -0.037 A  
HETATM   23  C   UNL     1      -6.614   8.014  65.889  1.00  0.00    -0.046 A  
HETATM   24  C   UNL     1      -6.001   7.748  67.232  1.00  0.00    -0.048 C  
ENDBRANCH   8  18
ENDBRANCH   2   5
BRANCH   4  25
HETATM   25  C   UNL     1      -8.248  12.310  67.361  1.00  0.00    -0.178 C  
HETATM   26  C   UNL     1      -6.862  12.073  66.705  1.00  0.00     0.046 C  
HETATM   27  C   UNL     1      -8.274  11.460  68.636  1.00  0.00    -0.142 C  
BRANCH  25  28
HETATM   28  C   UNL     1      -8.415  13.775  67.855  1.00  0.00    -0.176 A  
HETATM   29  C   UNL     1      -7.582  16.085  67.943  1.00  0.00    -0.144 A  
HETATM   30  C   UNL     1      -7.461  14.752  67.518  1.00  0.00    -0.221 A  
HETATM   31  F   UNL     1     -10.909  17.211  70.222  1.00  0.00    -0.222 F  
HETATM   32  C   UNL     1      -6.513  17.100  67.614  1.00  0.00    -0.146 C  
HETATM   33  F   UNL     1     -11.064  15.167  70.944  1.00  0.00    -0.309 F  
HETATM   34  C   UNL     1      -8.705  16.458  68.695  1.00  0.00    -0.234 A  
HETATM   35  F   UNL     1      -6.998  18.154  66.901  1.00  0.00    -0.186 F  
HETATM   36  F   UNL     1      -5.487  16.591  66.875  1.00  0.00    -0.165 F  
HETATM   37  F   UNL     1     -12.072  15.750  69.110  1.00  0.00    -0.370 F  
HETATM   38  C   UNL     1     -10.918  15.912  69.814  1.00  0.00    -0.328 C  
HETATM   39  C   UNL     1      -9.696  15.520  69.017  1.00  0.00    -0.237 A  
HETATM   40  F   UNL     1      -5.941  17.633  68.728  1.00  0.00    -0.159 F  
HETATM   41  C   UNL     1      -9.542  14.189  68.588  1.00  0.00    -0.179 A  
ENDBRANCH  25  28
ENDBRANCH   4  25
TORSDOF 5
ENDMDL
MODEL      109
REMARK 921   NORMALIZED FREE ENERGY PREDICTED BY IDOCK:   -4.84 KCAL/MOL
REMARK 922        TOTAL FREE ENERGY PREDICTED BY IDOCK:   -7.89 KCAL/MOL
REMARK 923 INTER-LIGAND FREE ENERGY PREDICTED BY IDOCK:   -7.35 KCAL/MOL
REMARK 924 INTRA-LIGAND FREE ENERGY PREDICTED BY IDOCK:   -0.54 KCAL/MOL
REMARK 927      BINDING AFFINITY PREDICTED BY RF-SCORE:    0.00 PKD
ROOT
HETATM    1  C   UNL     1     -10.902  11.310  64.282  1.00  0.00    -0.328 C  
HETATM    2  N   UNL     1      -9.833  10.402  64.727  1.00  0.00    -0.319 N  
HETATM    3  O   UNL     1      -8.788  10.769  62.755  1.00  0.00    -0.219 OA 
HETATM    4  C   UNL     1      -8.702  10.328  63.915  1.00  0.00    -0.204 C  
ENDROOT
BRANCH   2   5
HETATM    5  C   UNL     1      -9.883  10.085  66.099  1.00  0.00    -0.246 A  
HETATM    6  C   UNL     1      -9.835  10.422  68.447  1.00  0.00    -0.173 A  
HETATM    7  C   UNL     1     -10.092   8.732  66.412  1.00  0.00    -0.243 A  
HETATM    8  C   UNL     1      -9.722  11.004  67.152  1.00  0.00    -0.198 A  
HETATM    9  C   UNL     1     -10.175   9.082  68.683  1.00  0.00    -0.205 A  
HETATM   10  N   UNL     1     -10.257   8.233  67.650  1.00  0.00    -0.215 NA 
BRANCH   9  11
HETATM   11  N   UNL     1     -10.467   8.605  69.945  1.00  0.00    -0.214 NA 
HETATM   12  C   UNL     1     -10.189   7.199  70.287  1.00  0.00    -0.198 C  
HETATM   13  C   UNL     1     -12.470   8.555  71.432  1.00  0.00    -0.297 C  
HETATM   14  C   UNL     1     -11.424   6.473  70.878  1.00  0.00    -0.351 C  
HETATM   15  N   UNL     1     -12.162   7.201  71.935  1.00  0.00    -0.321 NA 
HETATM   16  C   UNL     1     -11.410   7.250  73.187  1.00  0.00    -0.128 C  
HETATM   17  C   UNL     1     -11.254   9.367  70.922  1.00  0.00    -0.325 C  
ENDBRANCH   9  11
BRANCH   8  18
HETATM   18  C   UNL     1      -9.580  12.520  67.067  1.00  0.00    -0.216 A  
HETATM   19  C   UNL     1      -7.960  14.420  67.134  1.00  0.00    -0.147 A  
HETATM   20  C   UNL     1      -8.974  15.337  66.954  1.00  0.00    -0.274 A  
HETATM   21  C   UNL     1      -8.265  13.055  67.212  1.00  0.00    -0.174 A  
HETATM   22  C   UNL     1     -10.275  14.875  66.828  1.00  0.00    -0.259 A  
HETATM   23  C   UNL     1     -10.592  13.489  66.846  1.00  0.00    -0.270 A  
HETATM   24  C   UNL     1     -12.047  13.199  66.629  1.00  0.00    -0.409 C  
ENDBRANCH   8  18
ENDBRANCH   2   5
BRANCH   4  25
HETATM   25  C   UNL     1      -7.289   9.789  64.380  1.00  0.00    -0.132 C  
HETATM   26  C   UNL     1      -6.900  10.768  65.519  1.00  0.00     0.015 C  
HETATM   27  C   UNL     1      -6.097   9.749  63.418  1.00  0.00    -0.111 C  
BRANCH  25  28
HETATM   28  C   UNL     1      -7.437   8.329  64.894  1.00  0.00    -0.092 A  
HETATM   29  C   UNL     1      -8.087   5.996  64.477  1.00  0.00    -0.126 A  
HETATM   30  C   UNL     1      -7.944   7.325  64.048  1.00  0.00    -0.087 A  
HETATM   31  F   UNL     1      -6.912   4.962  68.360  1.00  0.00    -0.051 F  
HETATM   32  C   UNL     1      -8.687   4.951  63.566  1.00  0.00    -0.107 C  
HETATM   33  F   UNL     1      -7.293   7.009  68.985  1.00  0.00    -0.081 F  
HETATM   34  C   UNL     1      -7.680   5.653  65.775  1.00  0.00    -0.088 A  
HETATM   35  F   UNL     1      -7.838   3.912  63.335  1.00  0.00    -0.072 F  
HETATM   36  F   UNL     1      -9.030   5.432  62.338  1.00  0.00    -0.128 F  
HETATM   37  F   UNL     1      -5.342   6.457  68.204  1.00  0.00    -0.006 F  
HETATM   38  C   UNL     1      -6.678   6.261  68.028  1.00  0.00    -0.064 C  
HETATM   39  C   UNL     1      -7.134   6.619  66.633  1.00  0.00    -0.068 A  
HETATM   40  F   UNL     1      -9.820   4.401  64.081  1.00  0.00    -0.157 F  
HETATM   41  C   UNL     1      -7.014   7.946  66.179  1.00  0.00    -0.062 A  
ENDBRANCH  25  28
ENDBRANCH   4  25
TORSDOF 5
ENDMDL
MODEL      110
REMARK 921   NORMALIZED FREE ENERGY PREDICTED BY IDOCK:   -4.83 KCAL/MOL
REMARK 922        TOTAL FREE ENERGY PREDICTED BY IDOCK:   -7.89 KCAL/MOL
REMARK 923 INTER-LIGAND FREE ENERGY PREDICTED BY IDOCK:   -6.00 KCAL/MOL
REMARK 924 INTRA-LIGAND FREE ENERGY PREDICTED BY IDOCK:   -1.89 KCAL/MOL
REMARK 927      BINDING AFFINITY PREDICTED BY RF-SCORE:    0.00 PKD
ROOT
HETATM    1  C   UNL     1     -11.570   8.261  71.317  1.00  0.00    -0.281 C  
HETATM    2  N   UNL     1     -10.852   8.306  70.033  1.00  0.00    -0.247 N  
HETATM    3  O   UNL     1     -11.158   6.072  69.856  1.00  0.00    -0.362 OA 
HETATM    4  C   UNL     1     -10.845   7.130  69.283  1.00  0.00    -0.183 C  
ENDROOT
BRANCH   2   5
HETATM    5  C   UNL     1     -10.664   9.606  69.526  1.00  0.00    -0.232 A  
HETATM    6  C   UNL     1      -9.509  11.532  68.757  1.00  0.00    -0.099 A  
HETATM    7  C   UNL     1     -11.832  10.341  69.260  1.00  0.00    -0.010 A  
HETATM    8  C   UNL     1      -9.417  10.214  69.290  1.00  0.00    -0.231 A  
HETATM    9  C   UNL     1     -10.714  12.154  68.394  1.00  0.00    -0.228 A  
HETATM   10  N   UNL     1     -11.876  11.560  68.695  1.00  0.00    -0.432 NA 
BRANCH   9  11
HETATM   11  N   UNL     1     -10.750  13.347  67.702  1.00  0.00    -0.245 NA 
HETATM   12  C   UNL     1     -11.857  13.628  66.771  1.00  0.00    -0.413 C  
HETATM   13  C   UNL     1      -9.197  14.613  66.215  1.00  0.00    -0.222 C  
HETATM   14  C   UNL     1     -11.360  14.042  65.362  1.00  0.00    -0.315 C  
HETATM   15  N   UNL     1     -10.286  15.060  65.325  1.00  0.00    -0.381 NA 
HETATM   16  C   UNL     1     -10.779  16.384  65.700  1.00  0.00    -0.270 C  
HETATM   17  C   UNL     1      -9.619  14.282  67.667  1.00  0.00    -0.219 C  
ENDBRANCH   9  11
BRANCH   8  18
HETATM   18  C   UNL     1      -8.029   9.594  69.409  1.00  0.00    -0.111 A  
HETATM   19  C   UNL     1      -6.508   8.277  70.888  1.00  0.00    -0.038 A  
HETATM   20  C   UNL     1      -5.500   8.318  69.947  1.00  0.00    -0.022 A  
HETATM   21  C   UNL     1      -7.725   8.920  70.629  1.00  0.00    -0.112 A  
HETATM   22  C   UNL     1      -5.732   8.979  68.751  1.00  0.00    -0.041 A  
HETATM   23  C   UNL     1      -6.983   9.585  68.451  1.00  0.00    -0.066 A  
HETATM   24  C   UNL     1      -7.047  10.189  67.080  1.00  0.00    -0.089 C  
ENDBRANCH   8  18
ENDBRANCH   2   5
BRANCH   4  25
HETATM   25  C   UNL     1     -10.536   7.049  67.734  1.00  0.00    -0.298 C  
HETATM   26  C   UNL     1     -10.754   8.510  67.258  1.00  0.00    -0.219 C  
HETATM   27  C   UNL     1     -11.371   6.163  66.803  1.00  0.00     0.124 C  
BRANCH  25  28
HETATM   28  C   UNL     1      -9.069   6.580  67.522  1.00  0.00    -0.115 A  
HETATM   29  C   UNL     1      -7.017   6.598  66.171  1.00  0.00    -0.062 A  
HETATM   30  C   UNL     1      -8.344   6.999  66.392  1.00  0.00    -0.125 A  
HETATM   31  F   UNL     1      -5.128   4.138  68.983  1.00  0.00    -0.003 F  
HETATM   32  C   UNL     1      -6.282   7.018  64.920  1.00  0.00    -0.037 C  
HETATM   33  F   UNL     1      -7.074   3.360  69.560  1.00  0.00    -0.040 F  
HETATM   34  C   UNL     1      -6.386   5.785  67.123  1.00  0.00    -0.042 A  
HETATM   35  F   UNL     1      -5.150   7.723  65.193  1.00  0.00    -0.027 F  
HETATM   36  F   UNL     1      -7.022   7.809  64.093  1.00  0.00    -0.061 F  
HETATM   37  F   UNL     1      -6.286   5.139  70.526  1.00  0.00    -0.019 F  
HETATM   38  C   UNL     1      -6.392   4.514  69.322  1.00  0.00    -0.031 C  
HETATM   39  C   UNL     1      -7.065   5.378  68.281  1.00  0.00    -0.066 A  
HETATM   40  F   UNL     1      -5.889   5.955  64.166  1.00  0.00    -0.022 F  
HETATM   41  C   UNL     1      -8.398   5.786  68.470  1.00  0.00    -0.107 A  
ENDBRANCH  25  28
ENDBRANCH   4  25
TORSDOF 5
ENDMDL
MODEL      111
REMARK 921   NORMALIZED FREE ENERGY PREDICTED BY IDOCK:   -4.81 KCAL/MOL
REMARK 922        TOTAL FREE ENERGY PREDICTED BY IDOCK:   -7.85 KCAL/MOL
REMARK 923 INTER-LIGAND FREE ENERGY PREDICTED BY IDOCK:   -8.02 KCAL/MOL
REMARK 924 INTRA-LIGAND FREE ENERGY PREDICTED BY IDOCK:    0.16 KCAL/MOL
REMARK 927      BINDING AFFINITY PREDICTED BY RF-SCORE:    0.00 PKD
ROOT
HETATM    1  C   UNL     1     -10.984   7.942  70.896  1.00  0.00    -0.243 C  
HETATM    2  N   UNL     1     -10.827   8.727  69.661  1.00  0.00    -0.209 N  
HETATM    3  O   UNL     1     -11.824  10.464  70.712  1.00  0.00    -0.312 OA 
HETATM    4  C   UNL     1     -11.152  10.081  69.738  1.00  0.00    -0.274 C  
ENDROOT
BRANCH   2   5
HETATM    5  C   UNL     1      -9.964   8.141  68.714  1.00  0.00    -0.189 A  
HETATM    6  C   UNL     1      -7.937   7.355  67.762  1.00  0.00    -0.118 A  
HETATM    7  C   UNL     1     -10.564   7.688  67.528  1.00  0.00    -0.252 A  
HETATM    8  C   UNL     1      -8.572   7.999  68.863  1.00  0.00    -0.131 A  
HETATM    9  C   UNL     1      -8.622   6.811  66.664  1.00  0.00    -0.123 A  
HETATM   10  N   UNL     1      -9.938   7.026  66.539  1.00  0.00    -0.142 NA 
BRANCH   9  11
HETATM   11  N   UNL     1      -7.995   6.025  65.719  1.00  0.00    -0.108 NA 
HETATM   12  C   UNL     1      -7.756   6.550  64.362  1.00  0.00    -0.109 C  
HETATM   13  C   UNL     1      -8.332   3.746  64.762  1.00  0.00    -0.097 C  
HETATM   14  C   UNL     1      -8.292   5.607  63.255  1.00  0.00    -0.056 C  
HETATM   15  N   UNL     1      -7.951   4.174  63.401  1.00  0.00    -0.082 NA 
HETATM   16  C   UNL     1      -6.537   3.922  63.134  1.00  0.00    -0.034 C  
HETATM   17  C   UNL     1      -7.741   4.593  65.914  1.00  0.00    -0.094 C  
ENDBRANCH   9  11
BRANCH   8  18
HETATM   18  C   UNL     1      -7.716   8.322  70.082  1.00  0.00    -0.084 A  
HETATM   19  C   UNL     1      -6.347  10.087  71.198  1.00  0.00     0.099 A  
HETATM   20  C   UNL     1      -6.052   9.245  72.249  1.00  0.00     0.095 A  
HETATM   21  C   UNL     1      -7.136   9.624  70.138  1.00  0.00    -0.116 A  
HETATM   22  C   UNL     1      -6.571   7.959  72.238  1.00  0.00    -0.063 A  
HETATM   23  C   UNL     1      -7.422   7.496  71.197  1.00  0.00    -0.079 A  
HETATM   24  C   UNL     1      -7.927   6.099  71.408  1.00  0.00    -0.113 C  
ENDBRANCH   8  18
ENDBRANCH   2   5
BRANCH   4  25
HETATM   25  C   UNL     1     -10.669  11.185  68.714  1.00  0.00    -0.236 C  
HETATM   26  C   UNL     1     -11.478  10.851  67.433  1.00  0.00    -0.175 C  
HETATM   27  C   UNL     1      -9.201  11.284  68.285  1.00  0.00    -0.176 C  
BRANCH  25  28
HETATM   28  C   UNL     1     -11.017  12.594  69.271  1.00  0.00    -0.123 A  
HETATM   29  C   UNL     1     -12.254  13.990  70.871  1.00  0.00    -0.436 A  
HETATM   30  C   UNL     1     -11.920  12.734  70.341  1.00  0.00    -0.331 A  
HETATM   31  F   UNL     1     -10.468  17.425  69.277  1.00  0.00    -0.336 F  
HETATM   32  C   UNL     1     -13.270  14.113  71.983  1.00  0.00    -0.402 C  
HETATM   33  F   UNL     1     -10.222  16.379  67.388  1.00  0.00    -0.255 F  
HETATM   34  C   UNL     1     -11.643  15.135  70.342  1.00  0.00    -0.330 A  
HETATM   35  F   UNL     1     -12.754  14.703  73.096  1.00  0.00    -0.454 F  
HETATM   36  F   UNL     1     -13.774  12.916  72.396  1.00  0.00    -0.591 F  
HETATM   37  F   UNL     1      -8.683  16.238  68.916  1.00  0.00    -0.204 F  
HETATM   38  C   UNL     1     -10.032  16.256  68.730  1.00  0.00    -0.237 C  
HETATM   39  C   UNL     1     -10.709  15.032  69.301  1.00  0.00    -0.250 A  
HETATM   40  F   UNL     1     -14.345  14.866  71.624  1.00  0.00    -0.449 F  
HETATM   41  C   UNL     1     -10.402  13.761  68.781  1.00  0.00    -0.198 A  
ENDBRANCH  25  28
ENDBRANCH   4  25
TORSDOF 5
ENDMDL
MODEL      112
REMARK 921   NORMALIZED FREE ENERGY PREDICTED BY IDOCK:   -4.71 KCAL/MOL
REMARK 922        TOTAL FREE ENERGY PREDICTED BY IDOCK:   -7.73 KCAL/MOL
REMARK 923 INTER-LIGAND FREE ENERGY PREDICTED BY IDOCK:   -6.94 KCAL/MOL
REMARK 924 INTRA-LIGAND FREE ENERGY PREDICTED BY IDOCK:   -0.79 KCAL/MOL
REMARK 927      BINDING AFFINITY PREDICTED BY RF-SCORE:    0.00 PKD
ROOT
HETATM    1  C   UNL     1      -6.996  11.504  66.850  1.00  0.00    -0.134 C  
HETATM    2  N   UNL     1      -8.335  10.900  66.934  1.00  0.00    -0.129 N  
HETATM    3  O   UNL     1      -7.401   8.909  66.410  1.00  0.00    -0.086 OA 
HETATM    4  C   UNL     1      -8.398   9.510  66.848  1.00  0.00    -0.116 C  
ENDROOT
BRANCH   2   5
HETATM    5  C   UNL     1      -9.304  11.732  67.529  1.00  0.00    -0.174 A  
HETATM    6  C   UNL     1     -11.207  13.142  67.692  1.00  0.00    -0.313 A  
HETATM    7  C   UNL     1      -9.174  11.940  68.912  1.00  0.00     0.149 A  
HETATM    8  C   UNL     1     -10.357  12.369  66.848  1.00  0.00    -0.240 A  
HETATM    9  C   UNL     1     -11.090  13.198  69.089  1.00  0.00    -0.196 A  
HETATM   10  N   UNL     1     -10.036  12.625  69.684  1.00  0.00     0.993 NA 
BRANCH   9  11
HETATM   11  N   UNL     1     -12.046  13.795  69.886  1.00  0.00    -0.337 NA 
HETATM   12  C   UNL     1     -12.268  15.250  69.810  1.00  0.00    -0.294 C  
HETATM   13  C   UNL     1     -12.576  13.856  72.323  1.00  0.00    -0.126 C  
HETATM   14  C   UNL     1     -12.201  15.936  71.198  1.00  0.00    -0.399 C  
HETATM   15  N   UNL     1     -12.962  15.280  72.285  1.00  0.00    -0.339 NA 
HETATM   16  C   UNL     1     -14.404  15.442  72.112  1.00  0.00    -0.544 C  
HETATM   17  C   UNL     1     -12.719  13.092  70.985  1.00  0.00    -0.277 C  
ENDBRANCH   9  11
BRANCH   8  18
HETATM   18  C   UNL     1     -10.757  12.225  65.384  1.00  0.00    -0.320 A  
HETATM   19  C   UNL     1     -10.253  11.043  63.243  1.00  0.00    -0.360 A  
HETATM   20  C   UNL     1     -11.260  11.721  62.589  1.00  0.00     0.846 A  
HETATM   21  C   UNL     1      -9.999  11.310  64.594  1.00  0.00    -0.331 A  
HETATM   22  C   UNL     1     -12.016  12.638  63.302  1.00  0.00    -0.526 A  
HETATM   23  C   UNL     1     -11.808  12.876  64.689  1.00  0.00    -0.422 A  
HETATM   24  C   UNL     1     -12.774  13.857  65.284  1.00  0.00    -0.485 C  
ENDBRANCH   8  18
ENDBRANCH   2   5
BRANCH   4  25
HETATM   25  C   UNL     1      -9.618   8.629  67.335  1.00  0.00    -0.204 C  
HETATM   26  C   UNL     1      -9.420   7.301  66.557  1.00  0.00    -0.218 C  
HETATM   27  C   UNL     1     -11.065   9.067  67.082  1.00  0.00     0.350 C  
BRANCH  25  28
HETATM   28  C   UNL     1      -9.526   8.423  68.873  1.00  0.00    -0.147 A  
HETATM   29  C   UNL     1     -10.599   7.782  70.988  1.00  0.00    -0.226 A  
HETATM   30  C   UNL     1     -10.647   7.982  69.600  1.00  0.00    -0.223 A  
HETATM   31  F   UNL     1      -7.003   8.445  73.028  1.00  0.00    -0.116 F  
HETATM   32  C   UNL     1     -11.833   7.363  71.751  1.00  0.00    -0.294 C  
HETATM   33  F   UNL     1      -6.430   9.867  71.486  1.00  0.00    -0.001 F  
HETATM   34  C   UNL     1      -9.388   7.993  71.663  1.00  0.00    -0.208 A  
HETATM   35  F   UNL     1     -11.664   6.184  72.410  1.00  0.00    -0.314 F  
HETATM   36  F   UNL     1     -12.931   7.192  70.960  1.00  0.00    -0.394 F  
HETATM   37  F   UNL     1      -5.955   7.759  71.251  1.00  0.00    -0.035 F  
HETATM   38  C   UNL     1      -6.926   8.614  71.679  1.00  0.00    -0.085 C  
HETATM   39  C   UNL     1      -8.240   8.396  70.966  1.00  0.00    -0.145 A  
HETATM   40  F   UNL     1     -12.194   8.272  72.697  1.00  0.00    -0.406 F  
HETATM   41  C   UNL     1      -8.321   8.600  69.577  1.00  0.00    -0.117 A  
ENDBRANCH  25  28
ENDBRANCH   4  25
TORSDOF 5
ENDMDL
MODEL      113
REMARK 921   NORMALIZED FREE ENERGY PREDICTED BY IDOCK:   -4.71 KCAL/MOL
REMARK 922        TOTAL FREE ENERGY PREDICTED BY IDOCK:   -7.73 KCAL/MOL
REMARK 923 INTER-LIGAND FREE ENERGY PREDICTED BY IDOCK:   -6.60 KCAL/MOL
REMARK 924 INTRA-LIGAND FREE ENERGY PREDICTED BY IDOCK:   -1.13 KCAL/MOL
REMARK 927      BINDING AFFINITY PREDICTED BY RF-SCORE:    0.00 PKD
ROOT
HETATM    1  C   UNL     1     -11.956   8.691  71.219  1.00  0.00    -0.293 C  
HETATM    2  N   UNL     1     -11.129   8.657  70.002  1.00  0.00    -0.206 N  
HETATM    3  O   UNL     1     -11.376   6.409  69.973  1.00  0.00    -0.370 OA 
HETATM    4  C   UNL     1     -11.034   7.429  69.349  1.00  0.00    -0.108 C  
ENDROOT
BRANCH   2   5
HETATM    5  C   UNL     1     -10.921   9.920  69.413  1.00  0.00    -0.230 A  
HETATM    6  C   UNL     1      -9.737  11.779  68.533  1.00  0.00    -0.181 A  
HETATM    7  C   UNL     1     -12.078  10.648  69.088  1.00  0.00    -0.080 A  
HETATM    8  C   UNL     1      -9.665  10.497  69.152  1.00  0.00    -0.226 A  
HETATM    9  C   UNL     1     -10.931  12.389  68.118  1.00  0.00    -0.228 A  
HETATM   10  N   UNL     1     -12.103  11.828  68.444  1.00  0.00    -0.480 NA 
BRANCH   9  11
HETATM   11  N   UNL     1     -10.946  13.535  67.349  1.00  0.00    -0.268 NA 
HETATM   12  C   UNL     1     -11.721  13.574  66.096  1.00  0.00    -0.365 C  
HETATM   13  C   UNL     1      -9.239  15.037  66.323  1.00  0.00    -0.289 C  
HETATM   14  C   UNL     1     -10.874  14.039  64.885  1.00  0.00    -0.410 C  
HETATM   15  N   UNL     1     -10.039  15.243  65.100  1.00  0.00    -0.327 NA 
HETATM   16  C   UNL     1     -10.849  16.456  65.185  1.00  0.00    -0.275 C  
HETATM   17  C   UNL     1     -10.046  14.668  67.591  1.00  0.00    -0.228 C  
ENDBRANCH   9  11
BRANCH   8  18
HETATM   18  C   UNL     1      -8.286   9.873  69.326  1.00  0.00    -0.138 A  
HETATM   19  C   UNL     1      -6.719   8.820  70.962  1.00  0.00    -0.070 A  
HETATM   20  C   UNL     1      -5.759   8.651  69.987  1.00  0.00    -0.027 A  
HETATM   21  C   UNL     1      -7.935   9.436  70.639  1.00  0.00    -0.189 A  
HETATM   22  C   UNL     1      -6.036   9.076  68.698  1.00  0.00    -0.045 A  
HETATM   23  C   UNL     1      -7.289   9.649  68.343  1.00  0.00    -0.075 A  
HETATM   24  C   UNL     1      -7.408   9.980  66.885  1.00  0.00    -0.092 C  
ENDBRANCH   8  18
ENDBRANCH   2   5
BRANCH   4  25
HETATM   25  C   UNL     1     -10.589   7.238  67.843  1.00  0.00    -0.266 C  
HETATM   26  C   UNL     1     -10.627   8.685  67.283  1.00  0.00    -0.308 C  
HETATM   27  C   UNL     1     -11.409   6.378  66.875  1.00  0.00    -0.002 C  
BRANCH  25  28
HETATM   28  C   UNL     1      -9.157   6.634  67.799  1.00  0.00    -0.113 A  
HETATM   29  C   UNL     1      -7.270   5.581  68.967  1.00  0.00    -0.069 A  
HETATM   30  C   UNL     1      -8.559   6.136  68.971  1.00  0.00    -0.121 A  
HETATM   31  F   UNL     1      -5.160   5.331  65.360  1.00  0.00    -0.008 F  
HETATM   32  C   UNL     1      -6.630   5.106  70.251  1.00  0.00    -0.039 C  
HETATM   33  F   UNL     1      -6.287   7.036  64.621  1.00  0.00    -0.035 F  
HETATM   34  C   UNL     1      -6.573   5.488  67.754  1.00  0.00    -0.053 A  
HETATM   35  F   UNL     1      -6.300   3.785  70.211  1.00  0.00    -0.024 F  
HETATM   36  F   UNL     1      -7.428   5.256  71.346  1.00  0.00    -0.081 F  
HETATM   37  F   UNL     1      -7.062   5.024  64.355  1.00  0.00    -0.046 F  
HETATM   38  C   UNL     1      -6.420   5.833  65.242  1.00  0.00    -0.042 C  
HETATM   39  C   UNL     1      -7.153   5.939  66.559  1.00  0.00    -0.069 A  
HETATM   40  F   UNL     1      -5.478   5.772  70.536  1.00  0.00    -0.010 F  
HETATM   41  C   UNL     1      -8.442   6.502  66.595  1.00  0.00    -0.116 A  
ENDBRANCH  25  28
ENDBRANCH   4  25
TORSDOF 5
ENDMDL
MODEL      114
REMARK 921   NORMALIZED FREE ENERGY PREDICTED BY IDOCK:   -4.71 KCAL/MOL
REMARK 922        TOTAL FREE ENERGY PREDICTED BY IDOCK:   -7.73 KCAL/MOL
REMARK 923 INTER-LIGAND FREE ENERGY PREDICTED BY IDOCK:   -6.13 KCAL/MOL
REMARK 924 INTRA-LIGAND FREE ENERGY PREDICTED BY IDOCK:   -1.59 KCAL/MOL
REMARK 927      BINDING AFFINITY PREDICTED BY RF-SCORE:    0.00 PKD
ROOT
HETATM    1  C   UNL     1     -10.991  12.854  64.775  1.00  0.00    -0.318 C  
HETATM    2  N   UNL     1     -10.906  13.068  66.228  1.00  0.00    -0.277 N  
HETATM    3  O   UNL     1     -12.011  11.117  66.518  1.00  0.00     0.031 OA 
HETATM    4  C   UNL     1     -11.325  12.014  67.039  1.00  0.00    -0.336 C  
ENDROOT
BRANCH   2   5
HETATM    5  C   UNL     1     -10.014  14.092  66.606  1.00  0.00    -0.278 A  
HETATM    6  C   UNL     1      -7.964  15.125  67.210  1.00  0.00    -0.234 A  
HETATM    7  C   UNL     1     -10.571  15.373  66.753  1.00  0.00    -0.309 A  
HETATM    8  C   UNL     1      -8.641  13.920  66.860  1.00  0.00    -0.138 A  
HETATM    9  C   UNL     1      -8.562  16.394  67.209  1.00  0.00    -0.181 A  
HETATM   10  N   UNL     1      -9.884  16.497  67.022  1.00  0.00    -0.250 NA 
BRANCH   9  11
HETATM   11  N   UNL     1      -7.830  17.555  67.360  1.00  0.00    -0.200 NA 
HETATM   12  C   UNL     1      -6.708  17.602  68.314  1.00  0.00    -0.200 C  
HETATM   13  C   UNL     1      -8.332  19.948  67.854  1.00  0.00    -0.286 C  
HETATM   14  C   UNL     1      -6.815  18.792  69.302  1.00  0.00    -0.238 C  
HETATM   15  N   UNL     1      -7.134  20.107  68.702  1.00  0.00    -0.250 NA 
HETATM   16  C   UNL     1      -6.007  20.647  67.945  1.00  0.00    -0.268 C  
HETATM   17  C   UNL     1      -8.243  18.837  66.779  1.00  0.00    -0.278 C  
ENDBRANCH   9  11
BRANCH   8  18
HETATM   18  C   UNL     1      -7.798  12.663  66.678  1.00  0.00     0.303 A  
HETATM   19  C   UNL     1      -7.629  10.482  65.474  1.00  0.00    -0.120 A  
HETATM   20  C   UNL     1      -6.445  10.180  66.112  1.00  0.00    -0.096 A  
HETATM   21  C   UNL     1      -8.293  11.678  65.772  1.00  0.00     0.280 A  
HETATM   22  C   UNL     1      -5.928  11.091  67.021  1.00  0.00    -0.077 A  
HETATM   23  C   UNL     1      -6.561  12.336  67.288  1.00  0.00    -0.146 A  
HETATM   24  C   UNL     1      -5.805  13.201  68.252  1.00  0.00    -0.087 C  
ENDBRANCH   8  18
ENDBRANCH   2   5
BRANCH   4  25
HETATM   25  C   UNL     1     -10.935  11.834  68.561  1.00  0.00    -0.270 C  
HETATM   26  C   UNL     1     -12.313  11.705  69.262  1.00  0.00    -0.088 C  
HETATM   27  C   UNL     1     -10.165  12.922  69.318  1.00  0.00     0.384 C  
BRANCH  25  28
HETATM   28  C   UNL     1     -10.075  10.549  68.725  1.00  0.00    -0.202 A  
HETATM   29  C   UNL     1      -8.065   9.448  69.612  1.00  0.00    -0.123 A  
HETATM   30  C   UNL     1      -8.864  10.589  69.440  1.00  0.00    -0.091 A  
HETATM   31  F   UNL     1      -9.343   5.797  68.012  1.00  0.00    -0.111 F  
HETATM   32  C   UNL     1      -6.742   9.534  70.336  1.00  0.00    -0.093 C  
HETATM   33  F   UNL     1     -10.460   6.888  66.500  1.00  0.00    -0.290 F  
HETATM   34  C   UNL     1      -8.505   8.226  69.085  1.00  0.00    -0.127 A  
HETATM   35  F   UNL     1      -6.690   8.718  71.424  1.00  0.00    -0.055 F  
HETATM   36  F   UNL     1      -6.452  10.784  70.794  1.00  0.00    -0.113 F  
HETATM   37  F   UNL     1     -11.386   6.422  68.410  1.00  0.00    -0.361 F  
HETATM   38  C   UNL     1     -10.218   6.825  67.838  1.00  0.00    -0.171 C  
HETATM   39  C   UNL     1      -9.725   8.139  68.399  1.00  0.00    -0.172 A  
HETATM   40  F   UNL     1      -5.693   9.173  69.547  1.00  0.00    -0.033 F  
HETATM   41  C   UNL     1     -10.499   9.302  68.232  1.00  0.00    -0.260 A  
ENDBRANCH  25  28
ENDBRANCH   4  25
TORSDOF 5
ENDMDL
MODEL      115
REMARK 921   NORMALIZED FREE ENERGY PREDICTED BY IDOCK:   -4.70 KCAL/MOL
REMARK 922        TOTAL FREE ENERGY PREDICTED BY IDOCK:   -7.71 KCAL/MOL
REMARK 923 INTER-LIGAND FREE ENERGY PREDICTED BY IDOCK:   -6.78 KCAL/MOL
REMARK 924 INTRA-LIGAND FREE ENERGY PREDICTED BY IDOCK:   -0.92 KCAL/MOL
REMARK 927      BINDING AFFINITY PREDICTED BY RF-SCORE:    0.00 PKD
ROOT
HETATM    1  C   UNL     1     -11.255  10.294  66.626  1.00  0.00     0.354 C  
HETATM    2  N   UNL     1      -9.954  10.796  67.097  1.00  0.00    -0.188 N  
HETATM    3  O   UNL     1     -10.579  12.862  66.422  1.00  0.00    -0.266 OA 
HETATM    4  C   UNL     1      -9.782  12.180  67.090  1.00  0.00    -0.199 C  
ENDROOT
BRANCH   2   5
HETATM    5  C   UNL     1      -9.242   9.883  67.900  1.00  0.00    -0.130 A  
HETATM    6  C   UNL     1      -8.731   8.522  69.776  1.00  0.00    -0.132 A  
HETATM    7  C   UNL     1      -8.051   9.378  67.352  1.00  0.00    -0.110 A  
HETATM    8  C   UNL     1      -9.622   9.467  69.189  1.00  0.00    -0.170 A  
HETATM    9  C   UNL     1      -7.627   7.962  69.114  1.00  0.00    -0.098 A  
HETATM   10  N   UNL     1      -7.272   8.436  67.913  1.00  0.00    -0.090 NA 
BRANCH   9  11
HETATM   11  N   UNL     1      -6.907   6.909  69.641  1.00  0.00    -0.050 NA 
HETATM   12  C   UNL     1      -6.666   5.701  68.832  1.00  0.00    -0.053 C  
HETATM   13  C   UNL     1      -7.025   5.495  71.692  1.00  0.00    -0.068 C  
HETATM   14  C   UNL     1      -7.086   4.401  69.563  1.00  0.00    -0.050 C  
HETATM   15  N   UNL     1      -6.635   4.270  70.967  1.00  0.00    -0.029 NA 
HETATM   16  C   UNL     1      -5.196   4.027  71.054  1.00  0.00     0.000 C  
HETATM   17  C   UNL     1      -6.544   6.823  71.060  1.00  0.00    -0.053 C  
ENDBRANCH   9  11
BRANCH   8  18
HETATM   18  C   UNL     1     -10.902   9.798  69.948  1.00  0.00    -0.306 A  
HETATM   19  C   UNL     1     -12.517  11.615  70.521  1.00  0.00    -0.344 A  
HETATM   20  C   UNL     1     -13.281  10.747  71.272  1.00  0.00    -0.326 A  
HETATM   21  C   UNL     1     -11.349  11.152  69.901  1.00  0.00    -0.348 A  
HETATM   22  C   UNL     1     -12.882   9.423  71.371  1.00  0.00    -0.423 A  
HETATM   23  C   UNL     1     -11.732   8.927  70.698  1.00  0.00    -0.212 A  
HETATM   24  C   UNL     1     -11.513   7.454  70.883  1.00  0.00    -0.311 C  
ENDBRANCH   8  18
ENDBRANCH   2   5
BRANCH   4  25
HETATM   25  C   UNL     1      -8.689  12.959  67.927  1.00  0.00    -0.186 C  
HETATM   26  C   UNL     1      -7.551  13.178  66.896  1.00  0.00     0.296 C  
HETATM   27  C   UNL     1      -8.038  12.329  69.164  1.00  0.00     0.419 C  
BRANCH  25  28
HETATM   28  C   UNL     1      -9.285  14.303  68.431  1.00  0.00    -0.196 A  
HETATM   29  C   UNL     1      -9.606  16.720  68.127  1.00  0.00    -0.242 A  
HETATM   30  C   UNL     1      -9.081  15.490  67.703  1.00  0.00    -0.183 A  
HETATM   31  F   UNL     1     -11.911  16.867  71.620  1.00  0.00    -0.297 F  
HETATM   32  C   UNL     1      -9.323  17.988  67.356  1.00  0.00    -0.254 C  
HETATM   33  F   UNL     1     -10.846  15.121  72.355  1.00  0.00    -0.397 F  
HETATM   34  C   UNL     1     -10.388  16.761  69.290  1.00  0.00    -0.309 A  
HETATM   35  F   UNL     1     -10.459  18.595  66.916  1.00  0.00    -0.357 F  
HETATM   36  F   UNL     1      -8.554  17.790  66.247  1.00  0.00    -0.266 F  
HETATM   37  F   UNL     1     -12.630  14.873  71.140  1.00  0.00    -0.312 F  
HETATM   38  C   UNL     1     -11.498  15.618  71.269  1.00  0.00    -0.409 C  
HETATM   39  C   UNL     1     -10.645  15.592  70.021  1.00  0.00    -0.337 A  
HETATM   40  F   UNL     1      -8.667  18.917  68.103  1.00  0.00    -0.293 F  
HETATM   41  C   UNL     1     -10.095  14.375  69.579  1.00  0.00     0.142 A  
ENDBRANCH  25  28
ENDBRANCH   4  25
TORSDOF 5
ENDMDL
MODEL      116
REMARK 921   NORMALIZED FREE ENERGY PREDICTED BY IDOCK:   -4.69 KCAL/MOL
REMARK 922        TOTAL FREE ENERGY PREDICTED BY IDOCK:   -7.70 KCAL/MOL
REMARK 923 INTER-LIGAND FREE ENERGY PREDICTED BY IDOCK:   -7.25 KCAL/MOL
REMARK 924 INTRA-LIGAND FREE ENERGY PREDICTED BY IDOCK:   -0.45 KCAL/MOL
REMARK 927      BINDING AFFINITY PREDICTED BY RF-SCORE:    0.00 PKD
ROOT
HETATM    1  C   UNL     1     -10.523  12.650  64.558  1.00  0.00    -0.355 C  
HETATM    2  N   UNL     1     -10.664  12.992  65.983  1.00  0.00    -0.272 N  
HETATM    3  O   UNL     1     -11.965  11.158  66.230  1.00  0.00     0.142 OA 
HETATM    4  C   UNL     1     -11.302  12.049  66.789  1.00  0.00    -0.339 C  
ENDROOT
BRANCH   2   5
HETATM    5  C   UNL     1      -9.764  13.980  66.428  1.00  0.00    -0.296 A  
HETATM    6  C   UNL     1      -7.783  14.913  67.344  1.00  0.00    -0.231 A  
HETATM    7  C   UNL     1     -10.197  15.311  66.302  1.00  0.00    -0.287 A  
HETATM    8  C   UNL     1      -8.500  13.732  66.994  1.00  0.00    -0.150 A  
HETATM    9  C   UNL     1      -8.226  16.216  67.068  1.00  0.00    -0.216 A  
HETATM   10  N   UNL     1      -9.462  16.401  66.585  1.00  0.00    -0.242 NA 
BRANCH   9  11
HETATM   11  N   UNL     1      -7.420  17.323  67.242  1.00  0.00    -0.171 NA 
HETATM   12  C   UNL     1      -7.086  17.787  68.600  1.00  0.00    -0.257 C  
HETATM   13  C   UNL     1      -7.411  19.687  66.447  1.00  0.00    -0.275 C  
HETATM   14  C   UNL     1      -7.395  19.291  68.809  1.00  0.00    -0.346 C  
HETATM   15  N   UNL     1      -6.927  20.204  67.742  1.00  0.00    -0.267 NA 
HETATM   16  C   UNL     1      -5.473  20.352  67.753  1.00  0.00    -0.199 C  
HETATM   17  C   UNL     1      -7.043  18.215  66.140  1.00  0.00    -0.281 C  
ENDBRANCH   9  11
BRANCH   8  18
HETATM   18  C   UNL     1      -7.780  12.397  67.146  1.00  0.00    -0.122 A  
HETATM   19  C   UNL     1      -7.323  10.196  66.060  1.00  0.00    -0.118 A  
HETATM   20  C   UNL     1      -6.551   9.789  67.128  1.00  0.00    -0.070 A  
HETATM   21  C   UNL     1      -7.936  11.454  66.087  1.00  0.00     0.021 A  
HETATM   22  C   UNL     1      -6.383  10.656  68.196  1.00  0.00    -0.058 A  
HETATM   23  C   UNL     1      -6.951  11.959  68.210  1.00  0.00    -0.077 A  
HETATM   24  C   UNL     1      -6.595  12.760  69.427  1.00  0.00    -0.064 C  
ENDBRANCH   8  18
ENDBRANCH   2   5
BRANCH   4  25
HETATM   25  C   UNL     1     -11.188  11.984  68.365  1.00  0.00    -0.313 C  
HETATM   26  C   UNL     1     -12.588  12.459  68.836  1.00  0.00     0.786 C  
HETATM   27  C   UNL     1     -10.164  12.835  69.124  1.00  0.00     0.232 C  
BRANCH  25  28
HETATM   28  C   UNL     1     -10.892  10.521  68.802  1.00  0.00    -0.269 A  
HETATM   29  C   UNL     1     -10.113   8.261  68.234  1.00  0.00    -0.231 A  
HETATM   30  C   UNL     1     -10.394   9.588  67.874  1.00  0.00    -0.276 A  
HETATM   31  F   UNL     1     -10.704   7.048  72.197  1.00  0.00    -0.210 F  
HETATM   32  C   UNL     1      -9.632   7.267  67.204  1.00  0.00    -0.160 C  
HETATM   33  F   UNL     1     -12.222   8.589  72.407  1.00  0.00    -0.379 F  
HETATM   34  C   UNL     1     -10.300   7.865  69.566  1.00  0.00    -0.217 A  
HETATM   35  F   UNL     1      -8.418   6.736  67.518  1.00  0.00    -0.118 F  
HETATM   36  F   UNL     1      -9.493   7.799  65.956  1.00  0.00    -0.219 F  
HETATM   37  F   UNL     1     -10.139   9.053  72.817  1.00  0.00    -0.194 F  
HETATM   38  C   UNL     1     -10.953   8.367  71.968  1.00  0.00    -0.323 C  
HETATM   39  C   UNL     1     -10.759   8.777  70.527  1.00  0.00    -0.259 A  
HETATM   40  F   UNL     1     -10.479   6.210  67.066  1.00  0.00    -0.198 F  
HETATM   41  C   UNL     1     -11.044  10.097  70.134  1.00  0.00    -0.378 A  
ENDBRANCH  25  28
ENDBRANCH   4  25
TORSDOF 5
ENDMDL
MODEL      117
REMARK 921   NORMALIZED FREE ENERGY PREDICTED BY IDOCK:   -4.68 KCAL/MOL
REMARK 922        TOTAL FREE ENERGY PREDICTED BY IDOCK:   -7.69 KCAL/MOL
REMARK 923 INTER-LIGAND FREE ENERGY PREDICTED BY IDOCK:   -8.24 KCAL/MOL
REMARK 924 INTRA-LIGAND FREE ENERGY PREDICTED BY IDOCK:    0.55 KCAL/MOL
REMARK 927      BINDING AFFINITY PREDICTED BY RF-SCORE:    0.00 PKD
ROOT
HETATM    1  C   UNL     1      -7.501   9.282  70.436  1.00  0.00    -0.121 C  
HETATM    2  N   UNL     1      -8.251   9.105  69.181  1.00  0.00    -0.114 N  
HETATM    3  O   UNL     1      -8.485  11.352  69.078  1.00  0.00    -0.075 OA 
HETATM    4  C   UNL     1      -8.570  10.266  68.478  1.00  0.00    -0.126 C  
ENDROOT
BRANCH   2   5
HETATM    5  C   UNL     1      -8.154   7.811  68.632  1.00  0.00    -0.127 A  
HETATM    6  C   UNL     1      -8.594   5.497  68.339  1.00  0.00    -0.099 A  
HETATM    7  C   UNL     1      -7.255   7.659  67.564  1.00  0.00    -0.087 A  
HETATM    8  C   UNL     1      -8.865   6.683  69.082  1.00  0.00    -0.129 A  
HETATM    9  C   UNL     1      -7.779   5.450  67.198  1.00  0.00    -0.096 A  
HETATM   10  N   UNL     1      -7.076   6.535  66.847  1.00  0.00    -0.071 NA 
BRANCH   9  11
HETATM   11  N   UNL     1      -7.698   4.331  66.394  1.00  0.00    -0.093 NA 
HETATM   12  C   UNL     1      -6.826   4.336  65.206  1.00  0.00    -0.053 C  
HETATM   13  C   UNL     1      -9.312   2.862  65.186  1.00  0.00    -0.124 C  
HETATM   14  C   UNL     1      -7.574   3.911  63.917  1.00  0.00    -0.077 C  
HETATM   15  N   UNL     1      -8.417   2.699  64.024  1.00  0.00    -0.086 NA 
HETATM   16  C   UNL     1      -7.611   1.485  64.131  1.00  0.00    -0.059 C  
HETATM   17  C   UNL     1      -8.609   3.188  66.526  1.00  0.00    -0.119 C  
ENDBRANCH   9  11
BRANCH   8  18
HETATM   18  C   UNL     1      -9.953   6.617  70.147  1.00  0.00    -0.190 A  
HETATM   19  C   UNL     1     -12.119   7.601  70.909  1.00  0.00    -0.226 A  
HETATM   20  C   UNL     1     -12.164   6.750  71.993  1.00  0.00    -0.331 A  
HETATM   21  C   UNL     1     -11.030   7.547  70.030  1.00  0.00    -0.252 A  
HETATM   22  C   UNL     1     -11.134   5.840  72.169  1.00  0.00    -0.327 A  
HETATM   23  C   UNL     1     -10.052   5.734  71.252  1.00  0.00    -0.253 A  
HETATM   24  C   UNL     1      -9.079   4.644  71.590  1.00  0.00    -0.172 C  
ENDBRANCH   8  18
ENDBRANCH   2   5
BRANCH   4  25
HETATM   25  C   UNL     1      -8.964  10.315  66.947  1.00  0.00    -0.149 C  
HETATM   26  C   UNL     1     -10.102   9.265  66.846  1.00  0.00    -0.324 C  
HETATM   27  C   UNL     1      -7.950   9.960  65.854  1.00  0.00    -0.115 C  
BRANCH  25  28
HETATM   28  C   UNL     1      -9.456  11.744  66.585  1.00  0.00    -0.215 A  
HETATM   29  C   UNL     1     -11.155  13.203  65.573  1.00  0.00    -0.299 A  
HETATM   30  C   UNL     1     -10.678  11.927  65.912  1.00  0.00    -0.326 A  
HETATM   31  F   UNL     1      -8.921  16.576  66.650  1.00  0.00    -0.211 F  
HETATM   32  C   UNL     1     -12.443  13.366  64.800  1.00  0.00    -0.365 C  
HETATM   33  F   UNL     1      -7.121  15.357  66.604  1.00  0.00    -0.101 F  
HETATM   34  C   UNL     1     -10.408  14.329  65.948  1.00  0.00    -0.325 A  
HETATM   35  F   UNL     1     -13.364  14.109  65.473  1.00  0.00    -0.531 F  
HETATM   36  F   UNL     1     -13.058  12.184  64.511  1.00  0.00    -0.529 F  
HETATM   37  F   UNL     1      -8.291  15.498  68.430  1.00  0.00    -0.142 F  
HETATM   38  C   UNL     1      -8.397  15.393  67.076  1.00  0.00    -0.236 C  
HETATM   39  C   UNL     1      -9.205  14.188  66.653  1.00  0.00    -0.272 A  
HETATM   40  F   UNL     1     -12.257  13.991  63.605  1.00  0.00    -0.503 F  
HETATM   41  C   UNL     1      -8.746  12.896  66.969  1.00  0.00    -0.195 A  
ENDBRANCH  25  28
ENDBRANCH   4  25
TORSDOF 5
ENDMDL
MODEL      118
REMARK 921   NORMALIZED FREE ENERGY PREDICTED BY IDOCK:   -4.66 KCAL/MOL
REMARK 922        TOTAL FREE ENERGY PREDICTED BY IDOCK:   -7.67 KCAL/MOL
REMARK 923 INTER-LIGAND FREE ENERGY PREDICTED BY IDOCK:   -8.59 KCAL/MOL
REMARK 924 INTRA-LIGAND FREE ENERGY PREDICTED BY IDOCK:    0.92 KCAL/MOL
REMARK 927      BINDING AFFINITY PREDICTED BY RF-SCORE:    0.00 PKD
ROOT
HETATM    1  C   UNL     1      -7.864   9.219  70.726  1.00  0.00    -0.145 C  
HETATM    2  N   UNL     1      -8.169   9.179  69.287  1.00  0.00    -0.114 N  
HETATM    3  O   UNL     1      -7.780   6.952  69.330  1.00  0.00    -0.100 OA 
HETATM    4  C   UNL     1      -8.254   7.915  68.704  1.00  0.00    -0.127 C  
ENDROOT
BRANCH   2   5
HETATM    5  C   UNL     1      -8.770  10.354  68.794  1.00  0.00    -0.146 A  
HETATM    6  C   UNL     1     -10.434  12.014  68.466  1.00  0.00    -0.244 A  
HETATM    7  C   UNL     1      -7.982  11.137  67.935  1.00  0.00    -0.114 A  
HETATM    8  C   UNL     1     -10.081  10.778  69.081  1.00  0.00    -0.224 A  
HETATM    9  C   UNL     1      -9.547  12.808  67.723  1.00  0.00    -0.204 A  
HETATM   10  N   UNL     1      -8.331  12.332  67.427  1.00  0.00    -0.168 NA 
BRANCH   9  11
HETATM   11  N   UNL     1      -9.868  14.086  67.312  1.00  0.00    -0.238 NA 
HETATM   12  C   UNL     1      -8.806  15.009  66.873  1.00  0.00    -0.258 C  
HETATM   13  C   UNL     1     -11.135  16.016  68.256  1.00  0.00    -0.351 C  
HETATM   14  C   UNL     1      -8.856  16.370  67.612  1.00  0.00    -0.188 C  
HETATM   15  N   UNL     1     -10.188  17.008  67.709  1.00  0.00    -0.300 NA 
HETATM   16  C   UNL     1     -10.637  17.527  66.419  1.00  0.00    -0.195 C  
HETATM   17  C   UNL     1     -11.201  14.671  67.495  1.00  0.00    -0.333 C  
ENDBRANCH   9  11
BRANCH   8  18
HETATM   18  C   UNL     1     -11.083  10.156  70.047  1.00  0.00    -0.368 A  
HETATM   19  C   UNL     1     -11.850   8.020  71.089  1.00  0.00    -0.307 A  
HETATM   20  C   UNL     1     -12.832   8.678  71.800  1.00  0.00    -0.397 A  
HETATM   21  C   UNL     1     -11.021   8.741  70.221  1.00  0.00    -0.255 A  
HETATM   22  C   UNL     1     -12.953  10.051  71.653  1.00  0.00    -0.554 A  
HETATM   23  C   UNL     1     -12.079  10.804  70.821  1.00  0.00    -0.473 A  
HETATM   24  C   UNL     1     -12.339  12.281  70.853  1.00  0.00    -0.363 C  
ENDBRANCH   8  18
ENDBRANCH   2   5
BRANCH   4  25
HETATM   25  C   UNL     1      -8.976   7.600  67.332  1.00  0.00    -0.130 C  
HETATM   26  C   UNL     1      -7.975   8.143  66.279  1.00  0.00    -0.101 C  
HETATM   27  C   UNL     1     -10.338   8.214  66.991  1.00  0.00    -0.403 C  
BRANCH  25  28
HETATM   28  C   UNL     1      -9.186   6.065  67.199  1.00  0.00    -0.117 A  
HETATM   29  C   UNL     1      -9.543   4.096  65.774  1.00  0.00    -0.190 A  
HETATM   30  C   UNL     1      -9.355   5.477  65.932  1.00  0.00    -0.140 A  
HETATM   31  F   UNL     1      -9.539   1.630  69.158  1.00  0.00    -0.174 F  
HETATM   32  C   UNL     1      -9.777   3.499  64.406  1.00  0.00    -0.172 C  
HETATM   33  F   UNL     1     -10.209   3.321  70.349  1.00  0.00    -0.047 F  
HETATM   34  C   UNL     1      -9.527   3.274  66.910  1.00  0.00    -0.145 A  
HETATM   35  F   UNL     1      -8.839   2.571  64.074  1.00  0.00    -0.088 F  
HETATM   36  F   UNL     1      -9.761   4.420  63.400  1.00  0.00    -0.150 F  
HETATM   37  F   UNL     1      -8.084   2.980  70.047  1.00  0.00    -0.046 F  
HETATM   38  C   UNL     1      -9.291   2.944  69.417  1.00  0.00    -0.126 C  
HETATM   39  C   UNL     1      -9.325   3.819  68.186  1.00  0.00    -0.228 A  
HETATM   40  F   UNL     1     -10.979   2.867  64.313  1.00  0.00    -0.041 F  
HETATM   41  C   UNL     1      -9.150   5.209  68.315  1.00  0.00    -0.128 A  
ENDBRANCH  25  28
ENDBRANCH   4  25
TORSDOF 5
ENDMDL
MODEL      119
REMARK 921   NORMALIZED FREE ENERGY PREDICTED BY IDOCK:   -4.63 KCAL/MOL
REMARK 922        TOTAL FREE ENERGY PREDICTED BY IDOCK:   -7.63 KCAL/MOL
REMARK 923 INTER-LIGAND FREE ENERGY PREDICTED BY IDOCK:   -7.58 KCAL/MOL
REMARK 924 INTRA-LIGAND FREE ENERGY PREDICTED BY IDOCK:   -0.04 KCAL/MOL
REMARK 927      BINDING AFFINITY PREDICTED BY RF-SCORE:    0.00 PKD
ROOT
HETATM    1  C   UNL     1     -10.958   8.481  71.023  1.00  0.00    -0.249 C  
HETATM    2  N   UNL     1     -10.837   9.018  69.659  1.00  0.00    -0.218 N  
HETATM    3  O   UNL     1     -11.496  11.028  70.459  1.00  0.00    -0.294 OA 
HETATM    4  C   UNL     1     -10.983  10.398  69.518  1.00  0.00    -0.262 C  
ENDROOT
BRANCH   2   5
HETATM    5  C   UNL     1     -10.157   8.168  68.765  1.00  0.00    -0.199 A  
HETATM    6  C   UNL     1      -8.376   6.892  67.852  1.00  0.00    -0.121 A  
HETATM    7  C   UNL     1     -10.899   7.708  67.664  1.00  0.00    -0.101 A  
HETATM    8  C   UNL     1      -8.812   7.772  68.885  1.00  0.00    -0.135 A  
HETATM    9  C   UNL     1      -9.213   6.370  66.854  1.00  0.00    -0.135 A  
HETATM   10  N   UNL     1     -10.468   6.825  66.746  1.00  0.00    -0.246 NA 
BRANCH   9  11
HETATM   11  N   UNL     1      -8.803   5.372  65.994  1.00  0.00    -0.139 NA 
HETATM   12  C   UNL     1      -7.980   5.703  64.817  1.00  0.00    -0.119 C  
HETATM   13  C   UNL     1      -9.904   3.550  64.694  1.00  0.00    -0.168 C  
HETATM   14  C   UNL     1      -8.572   5.141  63.499  1.00  0.00    -0.082 C  
HETATM   15  N   UNL     1      -9.008   3.727  63.534  1.00  0.00    -0.100 NA 
HETATM   16  C   UNL     1      -7.873   2.809  63.587  1.00  0.00    -0.073 C  
HETATM   17  C   UNL     1      -9.325   4.002  66.056  1.00  0.00    -0.168 C  
ENDBRANCH   9  11
BRANCH   8  18
HETATM   18  C   UNL     1      -7.843   8.059  70.026  1.00  0.00    -0.104 A  
HETATM   19  C   UNL     1      -6.218   9.716  70.949  1.00  0.00    -0.087 A  
HETATM   20  C   UNL     1      -5.941   8.899  72.024  1.00  0.00    -0.076 A  
HETATM   21  C   UNL     1      -7.125   9.291  69.970  1.00  0.00    -0.070 A  
HETATM   22  C   UNL     1      -6.593   7.679  72.119  1.00  0.00    -0.055 A  
HETATM   23  C   UNL     1      -7.560   7.261  71.164  1.00  0.00    -0.080 A  
HETATM   24  C   UNL     1      -8.194   5.941  71.486  1.00  0.00    -0.119 C  
ENDBRANCH   8  18
ENDBRANCH   2   5
BRANCH   4  25
HETATM   25  C   UNL     1     -10.478  11.238  68.276  1.00  0.00    -0.220 C  
HETATM   26  C   UNL     1     -11.477  10.841  67.157  1.00  0.00     0.044 C  
HETATM   27  C   UNL     1      -9.074  11.032  67.696  1.00  0.00    -0.145 C  
BRANCH  25  28
HETATM   28  C   UNL     1     -10.552  12.753  68.613  1.00  0.00    -0.256 A  
HETATM   29  C   UNL     1      -9.855  15.061  68.139  1.00  0.00    -0.216 A  
HETATM   30  C   UNL     1      -9.809  13.685  67.865  1.00  0.00    -0.237 A  
HETATM   31  F   UNL     1     -12.323  16.454  71.221  1.00  0.00    -0.400 F  
HETATM   32  C   UNL     1      -9.003  16.033  67.357  1.00  0.00    -0.191 C  
HETATM   33  F   UNL     1     -12.132  14.523  72.201  1.00  0.00    -0.378 F  
HETATM   34  C   UNL     1     -10.694  15.523  69.164  1.00  0.00    -0.250 A  
HETATM   35  F   UNL     1      -9.745  16.978  66.716  1.00  0.00    -0.235 F  
HETATM   36  F   UNL     1      -8.245  15.439  66.392  1.00  0.00    -0.281 F  
HETATM   37  F   UNL     1     -13.706  14.847  70.738  1.00  0.00    -0.394 F  
HETATM   38  C   UNL     1     -12.397  15.111  71.003  1.00  0.00    -0.347 C  
HETATM   39  C   UNL     1     -11.478  14.627  69.905  1.00  0.00    -0.320 A  
HETATM   40  F   UNL     1      -8.131  16.715  68.148  1.00  0.00    -0.168 F  
HETATM   41  C   UNL     1     -11.403  13.252  69.616  1.00  0.00    -0.191 A  
ENDBRANCH  25  28
ENDBRANCH   4  25
TORSDOF 5
ENDMDL
MODEL      120
REMARK 921   NORMALIZED FREE ENERGY PREDICTED BY IDOCK:   -4.63 KCAL/MOL
REMARK 922        TOTAL FREE ENERGY PREDICTED BY IDOCK:   -7.62 KCAL/MOL
REMARK 923 INTER-LIGAND FREE ENERGY PREDICTED BY IDOCK:   -7.05 KCAL/MOL
REMARK 924 INTRA-LIGAND FREE ENERGY PREDICTED BY IDOCK:   -0.57 KCAL/MOL
REMARK 927      BINDING AFFINITY PREDICTED BY RF-SCORE:    0.00 PKD
ROOT
HETATM    1  C   UNL     1     -11.943  12.384  70.003  1.00  0.00    -0.299 C  
HETATM    2  N   UNL     1     -11.071  12.436  68.818  1.00  0.00    -0.249 N  
HETATM    3  O   UNL     1     -10.595  14.584  69.340  1.00  0.00    -0.227 OA 
HETATM    4  C   UNL     1     -10.292  13.582  68.669  1.00  0.00    -0.214 C  
ENDROOT
BRANCH   2   5
HETATM    5  C   UNL     1     -10.797  11.175  68.251  1.00  0.00    -0.212 A  
HETATM    6  C   UNL     1     -10.591   9.502  66.580  1.00  0.00    -0.174 A  
HETATM    7  C   UNL     1     -10.348  10.183  69.138  1.00  0.00    -0.219 A  
HETATM    8  C   UNL     1     -10.956  10.844  66.893  1.00  0.00    -0.286 A  
HETATM    9  C   UNL     1     -10.025   8.604  67.498  1.00  0.00    -0.199 A  
HETATM   10  N   UNL     1      -9.951   8.946  68.791  1.00  0.00    -0.178 NA 
BRANCH   9  11
HETATM   11  N   UNL     1      -9.504   7.385  67.113  1.00  0.00    -0.142 NA 
HETATM   12  C   UNL     1     -10.191   6.578  66.089  1.00  0.00     0.300 C  
HETATM   13  C   UNL     1      -8.786   5.291  68.262  1.00  0.00    -0.104 C  
HETATM   14  C   UNL     1     -10.459   5.125  66.557  1.00  0.00    -0.294 C  
HETATM   15  N   UNL     1      -9.319   4.426  67.191  1.00  0.00    -0.143 NA 
HETATM   16  C   UNL     1      -8.286   4.077  66.217  1.00  0.00    -0.105 C  
HETATM   17  C   UNL     1      -8.405   6.727  67.829  1.00  0.00    -0.119 C  
ENDBRANCH   9  11
BRANCH   8  18
HETATM   18  C   UNL     1     -11.334  11.762  65.736  1.00  0.00    -0.309 A  
HETATM   19  C   UNL     1     -12.609  13.812  65.097  1.00  0.00    -0.471 A  
HETATM   20  C   UNL     1     -12.229  13.680  63.778  1.00  0.00    -0.413 A  
HETATM   21  C   UNL     1     -12.190  12.863  66.038  1.00  0.00    -0.431 A  
HETATM   22  C   UNL     1     -11.415  12.616  63.423  1.00  0.00    -0.499 A  
HETATM   23  C   UNL     1     -10.934  11.679  64.378  1.00  0.00    -0.399 A  
HETATM   24  C   UNL     1     -10.016  10.644  63.799  1.00  0.00    -0.379 C  
ENDBRANCH   8  18
ENDBRANCH   2   5
BRANCH   4  25
HETATM   25  C   UNL     1      -9.001  13.685  67.760  1.00  0.00    -0.196 C  
HETATM   26  C   UNL     1      -8.220  14.866  68.396  1.00  0.00    -0.151 C  
HETATM   27  C   UNL     1      -9.107  13.994  66.262  1.00  0.00    -0.047 C  
BRANCH  25  28
HETATM   28  C   UNL     1      -8.206  12.352  67.838  1.00  0.00    -0.163 A  
HETATM   29  C   UNL     1      -7.021  10.527  66.697  1.00  0.00    -0.113 A  
HETATM   30  C   UNL     1      -7.745  11.729  66.664  1.00  0.00    -0.023 A  
HETATM   31  F   UNL     1      -6.143   8.768  70.394  1.00  0.00    -0.032 F  
HETATM   32  C   UNL     1      -6.587   9.851  65.418  1.00  0.00    -0.099 C  
HETATM   33  F   UNL     1      -7.909   9.723  71.229  1.00  0.00     0.023 F  
HETATM   34  C   UNL     1      -6.719   9.950  67.939  1.00  0.00    -0.068 A  
HETATM   35  F   UNL     1      -5.236   9.698  65.341  1.00  0.00    -0.037 F  
HETATM   36  F   UNL     1      -6.948  10.531  64.293  1.00  0.00    -0.114 F  
HETATM   37  F   UNL     1      -6.005  10.770  71.229  1.00  0.00    -0.045 F  
HETATM   38  C   UNL     1      -6.799   9.959  70.477  1.00  0.00    -0.118 C  
HETATM   39  C   UNL     1      -7.129  10.562  69.132  1.00  0.00    -0.089 A  
HETATM   40  F   UNL     1      -7.113   8.603  65.283  1.00  0.00    -0.077 F  
HETATM   41  C   UNL     1      -7.864  11.760  69.067  1.00  0.00     0.064 A  
ENDBRANCH  25  28
ENDBRANCH   4  25
TORSDOF 5
ENDMDL
MODEL      121
REMARK 921   NORMALIZED FREE ENERGY PREDICTED BY IDOCK:   -4.63 KCAL/MOL
REMARK 922        TOTAL FREE ENERGY PREDICTED BY IDOCK:   -7.62 KCAL/MOL
REMARK 923 INTER-LIGAND FREE ENERGY PREDICTED BY IDOCK:   -7.21 KCAL/MOL
REMARK 924 INTRA-LIGAND FREE ENERGY PREDICTED BY IDOCK:   -0.41 KCAL/MOL
REMARK 927      BINDING AFFINITY PREDICTED BY RF-SCORE:    0.00 PKD
ROOT
HETATM    1  C   UNL     1      -6.917  11.058  66.779  1.00  0.00    -0.131 C  
HETATM    2  N   UNL     1      -7.827  10.196  67.550  1.00  0.00    -0.102 N  
HETATM    3  O   UNL     1      -8.375  12.000  68.799  1.00  0.00    -0.079 OA 
HETATM    4  C   UNL     1      -8.658  10.834  68.470  1.00  0.00    -0.148 C  
ENDROOT
BRANCH   2   5
HETATM    5  C   UNL     1      -8.067   8.939  66.960  1.00  0.00    -0.109 A  
HETATM    6  C   UNL     1      -8.811   7.359  65.352  1.00  0.00     0.071 A  
HETATM    7  C   UNL     1      -7.632   7.821  67.690  1.00  0.00    -0.113 A  
HETATM    8  C   UNL     1      -8.713   8.731  65.727  1.00  0.00    -0.209 A  
HETATM    9  C   UNL     1      -8.235   6.301  66.073  1.00  0.00    -0.125 A  
HETATM   10  N   UNL     1      -7.685   6.545  67.270  1.00  0.00    -0.099 NA 
BRANCH   9  11
HETATM   11  N   UNL     1      -8.182   5.014  65.578  1.00  0.00    -0.114 NA 
HETATM   12  C   UNL     1      -8.653   4.728  64.211  1.00  0.00    -0.141 C  
HETATM   13  C   UNL     1      -8.984   2.769  66.310  1.00  0.00    -0.143 C  
HETATM   14  C   UNL     1      -9.687   3.574  64.167  1.00  0.00    -0.168 C  
HETATM   15  N   UNL     1      -9.337   2.359  64.937  1.00  0.00    -0.131 NA 
HETATM   16  C   UNL     1      -8.254   1.608  64.304  1.00  0.00    -0.070 C  
HETATM   17  C   UNL     1      -7.881   3.850  66.418  1.00  0.00    -0.090 C  
ENDBRANCH   9  11
BRANCH   8  18
HETATM   18  C   UNL     1      -9.183   9.774  64.721  1.00  0.00    -0.319 A  
HETATM   19  C   UNL     1     -10.923  11.501  64.241  1.00  0.00    -0.406 A  
HETATM   20  C   UNL     1     -10.333  11.811  63.034  1.00  0.00    -0.237 A  
HETATM   21  C   UNL     1     -10.373  10.493  65.044  1.00  0.00    -0.310 A  
HETATM   22  C   UNL     1      -9.187  11.129  62.658  1.00  0.00    -0.357 A  
HETATM   23  C   UNL     1      -8.584  10.146  63.491  1.00  0.00    -0.201 A  
HETATM   24  C   UNL     1      -7.316   9.575  62.928  1.00  0.00    -0.103 C  
ENDBRANCH   8  18
ENDBRANCH   2   5
BRANCH   4  25
HETATM   25  C   UNL     1      -9.980  10.213  69.077  1.00  0.00    -0.216 C  
HETATM   26  C   UNL     1     -10.703   9.644  67.828  1.00  0.00    -0.316 C  
HETATM   27  C   UNL     1     -11.005  11.085  69.810  1.00  0.00    -0.258 C  
BRANCH  25  28
HETATM   28  C   UNL     1      -9.608   9.096  70.093  1.00  0.00    -0.235 A  
HETATM   29  C   UNL     1      -8.078   8.218  71.804  1.00  0.00    -0.179 A  
HETATM   30  C   UNL     1      -8.443   9.205  70.875  1.00  0.00    -0.251 A  
HETATM   31  F   UNL     1     -10.553   4.880  72.321  1.00  0.00    -0.252 F  
HETATM   32  C   UNL     1      -6.793   8.334  72.589  1.00  0.00    -0.093 C  
HETATM   33  F   UNL     1     -11.256   5.128  70.279  1.00  0.00    -0.164 F  
HETATM   34  C   UNL     1      -8.918   7.109  71.982  1.00  0.00    -0.141 A  
HETATM   35  F   UNL     1      -7.004   8.347  73.934  1.00  0.00    -0.144 F  
HETATM   36  F   UNL     1      -6.086   9.466  72.312  1.00  0.00    -0.061 F  
HETATM   37  F   UNL     1     -12.253   6.169  71.906  1.00  0.00    -0.373 F  
HETATM   38  C   UNL     1     -11.027   5.803  71.439  1.00  0.00    -0.237 C  
HETATM   39  C   UNL     1     -10.106   6.985  71.247  1.00  0.00    -0.199 A  
HETATM   40  F   UNL     1      -5.944   7.297  72.353  1.00  0.00    -0.040 F  
HETATM   41  C   UNL     1     -10.440   7.984  70.315  1.00  0.00    -0.222 A  
ENDBRANCH  25  28
ENDBRANCH   4  25
TORSDOF 5
ENDMDL
MODEL      122
REMARK 921   NORMALIZED FREE ENERGY PREDICTED BY IDOCK:   -4.59 KCAL/MOL
REMARK 922        TOTAL FREE ENERGY PREDICTED BY IDOCK:   -7.57 KCAL/MOL
REMARK 923 INTER-LIGAND FREE ENERGY PREDICTED BY IDOCK:   -7.62 KCAL/MOL
REMARK 924 INTRA-LIGAND FREE ENERGY PREDICTED BY IDOCK:    0.05 KCAL/MOL
REMARK 927      BINDING AFFINITY PREDICTED BY RF-SCORE:    0.00 PKD
ROOT
HETATM    1  C   UNL     1     -11.391  11.521  65.541  1.00  0.00    -0.083 C  
HETATM    2  N   UNL     1     -10.138  11.918  66.205  1.00  0.00    -0.221 N  
HETATM    3  O   UNL     1     -10.951  14.024  66.337  1.00  0.00    -0.303 OA 
HETATM    4  C   UNL     1     -10.092  13.212  66.723  1.00  0.00    -0.253 C  
ENDROOT
BRANCH   2   5
HETATM    5  C   UNL     1      -9.343  10.835  66.626  1.00  0.00    -0.166 A  
HETATM    6  C   UNL     1      -8.555   9.083  68.021  1.00  0.00    -0.129 A  
HETATM    7  C   UNL     1      -8.328  10.433  65.742  1.00  0.00    -0.158 A  
HETATM    8  C   UNL     1      -9.479  10.155  67.851  1.00  0.00    -0.154 A  
HETATM    9  C   UNL     1      -7.652   8.656  67.036  1.00  0.00    -0.084 A  
HETATM   10  N   UNL     1      -7.518   9.373  65.912  1.00  0.00    -0.098 NA 
BRANCH   9  11
HETATM   11  N   UNL     1      -6.915   7.496  67.163  1.00  0.00    -0.080 NA 
HETATM   12  C   UNL     1      -7.182   6.350  66.276  1.00  0.00    -0.072 C  
HETATM   13  C   UNL     1      -6.346   5.918  69.009  1.00  0.00    -0.041 C  
HETATM   14  C   UNL     1      -7.419   5.033  67.059  1.00  0.00    -0.087 C  
HETATM   15  N   UNL     1      -6.446   4.733  68.134  1.00  0.00    -0.040 NA 
HETATM   16  C   UNL     1      -5.143   4.349  67.595  1.00  0.00    -0.007 C  
HETATM   17  C   UNL     1      -6.010   7.247  68.290  1.00  0.00    -0.030 C  
ENDBRANCH   9  11
BRANCH   8  18
HETATM   18  C   UNL     1     -10.550  10.342  68.919  1.00  0.00    -0.242 A  
HETATM   19  C   UNL     1     -12.817  11.280  69.387  1.00  0.00     0.609 A  
HETATM   20  C   UNL     1     -12.759  10.859  70.699  1.00  0.00    -0.396 A  
HETATM   21  C   UNL     1     -11.730  11.047  68.535  1.00  0.00    -0.348 A  
HETATM   22  C   UNL     1     -11.627  10.188  71.134  1.00  0.00    -0.430 A  
HETATM   23  C   UNL     1     -10.542   9.892  70.264  1.00  0.00    -0.359 A  
HETATM   24  C   UNL     1      -9.445   9.102  70.915  1.00  0.00    -0.343 C  
ENDBRANCH   8  18
ENDBRANCH   2   5
BRANCH   4  25
HETATM   25  C   UNL     1      -9.070  13.708  67.823  1.00  0.00    -0.199 C  
HETATM   26  C   UNL     1      -7.830  14.120  66.987  1.00  0.00     0.070 C  
HETATM   27  C   UNL     1      -8.560  12.764  68.917  1.00  0.00     0.316 C  
BRANCH  25  28
HETATM   28  C   UNL     1      -9.682  14.914  68.590  1.00  0.00    -0.226 A  
HETATM   29  C   UNL     1     -11.069  15.767  70.430  1.00  0.00    -0.380 A  
HETATM   30  C   UNL     1     -10.504  14.702  69.712  1.00  0.00    -0.018 A  
HETATM   31  F   UNL     1     -10.240  19.698  69.252  1.00  0.00    -0.483 F  
HETATM   32  C   UNL     1     -11.994  15.507  71.596  1.00  0.00    -0.408 C  
HETATM   33  F   UNL     1      -9.916  18.986  67.224  1.00  0.00    -0.323 F  
HETATM   34  C   UNL     1     -10.777  17.081  70.038  1.00  0.00     0.188 A  
HETATM   35  F   UNL     1     -11.537  16.057  72.755  1.00  0.00    -0.514 F  
HETATM   36  F   UNL     1     -12.179  14.183  71.860  1.00  0.00    -0.377 F  
HETATM   37  F   UNL     1      -8.268  19.019  68.639  1.00  0.00    -0.349 F  
HETATM   38  C   UNL     1      -9.596  18.743  68.524  1.00  0.00    -0.369 C  
HETATM   39  C   UNL     1      -9.931  17.332  68.949  1.00  0.00    -0.307 A  
HETATM   40  F   UNL     1     -13.237  16.026  71.400  1.00  0.00    -0.524 F  
HETATM   41  C   UNL     1      -9.388  16.245  68.240  1.00  0.00    -0.204 A  
ENDBRANCH  25  28
ENDBRANCH   4  25
TORSDOF 5
ENDMDL
MODEL      123
REMARK 921   NORMALIZED FREE ENERGY PREDICTED BY IDOCK:   -4.57 KCAL/MOL
REMARK 922        TOTAL FREE ENERGY PREDICTED BY IDOCK:   -7.54 KCAL/MOL
REMARK 923 INTER-LIGAND FREE ENERGY PREDICTED BY IDOCK:   -6.82 KCAL/MOL
REMARK 924 INTRA-LIGAND FREE ENERGY PREDICTED BY IDOCK:   -0.72 KCAL/MOL
REMARK 927      BINDING AFFINITY PREDICTED BY RF-SCORE:    0.00 PKD
ROOT
HETATM    1  C   UNL     1     -10.430   9.884  70.533  1.00  0.00    -0.264 C  
HETATM    2  N   UNL     1     -10.180   9.827  69.084  1.00  0.00    -0.188 N  
HETATM    3  O   UNL     1     -10.746  12.013  68.963  1.00  0.00    -0.206 OA 
HETATM    4  C   UNL     1     -10.217  11.040  68.398  1.00  0.00    -0.185 C  
ENDROOT
BRANCH   2   5
HETATM    5  C   UNL     1      -9.503   8.665  68.664  1.00  0.00    -0.142 A  
HETATM    6  C   UNL     1      -7.720   7.121  68.396  1.00  0.00    -0.120 A  
HETATM    7  C   UNL     1     -10.258   7.748  67.914  1.00  0.00    -0.206 A  
HETATM    8  C   UNL     1      -8.151   8.374  68.921  1.00  0.00    -0.114 A  
HETATM    9  C   UNL     1      -8.568   6.196  67.767  1.00  0.00    -0.114 A  
HETATM   10  N   UNL     1      -9.831   6.544  67.492  1.00  0.00    -0.120 NA 
BRANCH   9  11
HETATM   11  N   UNL     1      -8.159   4.916  67.450  1.00  0.00    -0.105 NA 
HETATM   12  C   UNL     1      -7.714   3.998  68.514  1.00  0.00    -0.065 C  
HETATM   13  C   UNL     1      -6.504   3.889  65.891  1.00  0.00    -0.033 C  
HETATM   14  C   UNL     1      -6.322   3.381  68.224  1.00  0.00    -0.033 C  
HETATM   15  N   UNL     1      -6.122   2.843  66.859  1.00  0.00    -0.024 NA 
HETATM   16  C   UNL     1      -6.876   1.610  66.645  1.00  0.00    -0.038 C  
HETATM   17  C   UNL     1      -7.927   4.473  66.071  1.00  0.00    -0.099 C  
ENDBRANCH   9  11
BRANCH   8  18
HETATM   18  C   UNL     1      -7.165   9.157  69.780  1.00  0.00    -0.062 A  
HETATM   19  C   UNL     1      -5.786  11.234  69.917  1.00  0.00    -0.092 A  
HETATM   20  C   UNL     1      -5.296  10.870  71.153  1.00  0.00    -0.070 A  
HETATM   21  C   UNL     1      -6.674  10.385  69.245  1.00  0.00    -0.067 A  
HETATM   22  C   UNL     1      -5.721   9.676  71.713  1.00  0.00    -0.001 A  
HETATM   23  C   UNL     1      -6.668   8.833  71.068  1.00  0.00    -0.070 A  
HETATM   24  C   UNL     1      -7.042   7.622  71.871  1.00  0.00    -0.064 C  
ENDBRANCH   8  18
ENDBRANCH   2   5
BRANCH   4  25
HETATM   25  C   UNL     1      -9.572  11.294  66.976  1.00  0.00    -0.197 C  
HETATM   26  C   UNL     1     -10.282  10.247  66.078  1.00  0.00    -0.298 C  
HETATM   27  C   UNL     1      -8.068  11.114  66.743  1.00  0.00    -0.155 C  
BRANCH  25  28
HETATM   28  C   UNL     1      -9.874  12.750  66.524  1.00  0.00    -0.258 A  
HETATM   29  C   UNL     1      -9.211  15.114  66.422  1.00  0.00    -0.334 A  
HETATM   30  C   UNL     1      -8.972  13.789  66.818  1.00  0.00    -0.202 A  
HETATM   31  F   UNL     1     -12.673  16.005  64.242  1.00  0.00    -0.068 F  
HETATM   32  C   UNL     1      -8.252  16.218  66.801  1.00  0.00    -0.259 C  
HETATM   33  F   UNL     1     -13.650  14.293  65.159  1.00  0.00    -0.134 F  
HETATM   34  C   UNL     1     -10.366  15.403  65.681  1.00  0.00    -0.395 A  
HETATM   35  F   UNL     1      -7.742  16.860  65.714  1.00  0.00    -0.311 F  
HETATM   36  F   UNL     1      -7.176  15.784  67.516  1.00  0.00    -0.137 F  
HETATM   37  F   UNL     1     -12.511  14.040  63.325  1.00  0.00    -0.457 F  
HETATM   38  C   UNL     1     -12.510  14.683  64.526  1.00  0.00    -0.292 C  
HETATM   39  C   UNL     1     -11.269  14.388  65.336  1.00  0.00    -0.335 A  
HETATM   40  F   UNL     1      -8.841  17.180  67.562  1.00  0.00    -0.209 F  
HETATM   41  C   UNL     1     -11.009  13.071  65.757  1.00  0.00    -0.299 A  
ENDBRANCH  25  28
ENDBRANCH   4  25
TORSDOF 5
ENDMDL
MODEL      124
REMARK 921   NORMALIZED FREE ENERGY PREDICTED BY IDOCK:   -4.57 KCAL/MOL
REMARK 922        TOTAL FREE ENERGY PREDICTED BY IDOCK:   -7.54 KCAL/MOL
REMARK 923 INTER-LIGAND FREE ENERGY PREDICTED BY IDOCK:   -8.65 KCAL/MOL
REMARK 924 INTRA-LIGAND FREE ENERGY PREDICTED BY IDOCK:    1.11 KCAL/MOL
REMARK 927      BINDING AFFINITY PREDICTED BY RF-SCORE:    0.00 PKD
ROOT
HETATM    1  C   UNL     1     -10.917  11.656  65.112  1.00  0.00    -0.266 C  
HETATM    2  N   UNL     1     -10.584  11.711  66.545  1.00  0.00    -0.243 N  
HETATM    3  O   UNL     1     -12.290  13.168  66.822  1.00  0.00    -0.316 OA 
HETATM    4  C   UNL     1     -11.473  12.404  67.365  1.00  0.00    -0.352 C  
ENDROOT
BRANCH   2   5
HETATM    5  C   UNL     1      -9.691  10.706  66.965  1.00  0.00    -0.176 A  
HETATM    6  C   UNL     1      -7.694   9.735  67.804  1.00  0.00    -0.091 A  
HETATM    7  C   UNL     1     -10.165   9.386  66.890  1.00  0.00    -0.248 A  
HETATM    8  C   UNL     1      -8.379  10.926  67.425  1.00  0.00    -0.117 A  
HETATM    9  C   UNL     1      -8.280   8.460  67.825  1.00  0.00    -0.126 A  
HETATM   10  N   UNL     1      -9.509   8.294  67.319  1.00  0.00    -0.145 NA 
BRANCH   9  11
HETATM   11  N   UNL     1      -7.649   7.366  68.382  1.00  0.00    -0.112 NA 
HETATM   12  C   UNL     1      -7.799   6.034  67.769  1.00  0.00    -0.105 C  
HETATM   13  C   UNL     1      -7.548   6.302  70.636  1.00  0.00    -0.096 C  
HETATM   14  C   UNL     1      -8.260   4.959  68.786  1.00  0.00    -0.083 C  
HETATM   15  N   UNL     1      -7.539   4.935  70.078  1.00  0.00    -0.055 NA 
HETATM   16  C   UNL     1      -6.179   4.422  69.932  1.00  0.00    -0.027 C  
HETATM   17  C   UNL     1      -7.002   7.406  69.698  1.00  0.00    -0.053 C  
ENDBRANCH   9  11
BRANCH   8  18
HETATM   18  C   UNL     1      -7.681  12.256  67.683  1.00  0.00    -0.144 A  
HETATM   19  C   UNL     1      -7.537  14.649  66.983  1.00  0.00     0.070 A  
HETATM   20  C   UNL     1      -6.554  14.900  67.916  1.00  0.00    -0.173 A  
HETATM   21  C   UNL     1      -8.063  13.356  66.859  1.00  0.00     0.097 A  
HETATM   22  C   UNL     1      -6.127  13.862  68.730  1.00  0.00    -0.086 A  
HETATM   23  C   UNL     1      -6.694  12.559  68.655  1.00  0.00    -0.087 A  
HETATM   24  C   UNL     1      -6.138  11.601  69.666  1.00  0.00    -0.117 C  
ENDBRANCH   8  18
ENDBRANCH   2   5
BRANCH   4  25
HETATM   25  C   UNL     1     -11.572  12.237  68.935  1.00  0.00    -0.367 C  
HETATM   26  C   UNL     1     -10.302  11.413  69.278  1.00  0.00    -0.056 C  
HETATM   27  C   UNL     1     -12.751  11.505  69.584  1.00  0.00     0.225 C  
BRANCH  25  28
HETATM   28  C   UNL     1     -11.554  13.640  69.605  1.00  0.00    -0.342 A  
HETATM   29  C   UNL     1     -12.084  15.069  71.533  1.00  0.00    -0.403 A  
HETATM   30  C   UNL     1     -12.086  13.818  70.896  1.00  0.00    -0.366 A  
HETATM   31  F   UNL     1     -10.390  18.359  69.576  1.00  0.00    -0.290 F  
HETATM   32  C   UNL     1     -12.712  15.242  72.896  1.00  0.00    -0.421 C  
HETATM   33  F   UNL     1     -10.837  17.414  67.670  1.00  0.00    -0.357 F  
HETATM   34  C   UNL     1     -11.503  16.164  70.878  1.00  0.00    -0.421 A  
HETATM   35  F   UNL     1     -11.825  15.694  73.825  1.00  0.00    -0.508 F  
HETATM   36  F   UNL     1     -13.231  14.090  73.407  1.00  0.00    -0.519 F  
HETATM   37  F   UNL     1      -8.958  16.993  68.677  1.00  0.00    -0.237 F  
HETATM   38  C   UNL     1     -10.288  17.184  68.895  1.00  0.00    -0.348 C  
HETATM   39  C   UNL     1     -10.930  16.016  69.607  1.00  0.00    -0.326 A  
HETATM   40  F   UNL     1     -13.735  16.139  72.887  1.00  0.00    -0.606 F  
HETATM   41  C   UNL     1     -10.957  14.753  68.987  1.00  0.00    -0.257 A  
ENDBRANCH  25  28
ENDBRANCH   4  25
TORSDOF 5
ENDMDL
MODEL      125
REMARK 921   NORMALIZED FREE ENERGY PREDICTED BY IDOCK:   -4.55 KCAL/MOL
REMARK 922        TOTAL FREE ENERGY PREDICTED BY IDOCK:   -7.53 KCAL/MOL
REMARK 923 INTER-LIGAND FREE ENERGY PREDICTED BY IDOCK:   -6.29 KCAL/MOL
REMARK 924 INTRA-LIGAND FREE ENERGY PREDICTED BY IDOCK:   -1.24 KCAL/MOL
REMARK 927      BINDING AFFINITY PREDICTED BY RF-SCORE:    0.00 PKD
ROOT
HETATM    1  C   UNL     1      -5.979   9.826  68.823  1.00  0.00    -0.038 C  
HETATM    2  N   UNL     1      -7.292   9.898  68.160  1.00  0.00    -0.079 N  
HETATM    3  O   UNL     1      -7.661   7.761  68.799  1.00  0.00    -0.108 OA 
HETATM    4  C   UNL     1      -8.148   8.816  68.357  1.00  0.00    -0.117 C  
ENDROOT
BRANCH   2   5
HETATM    5  C   UNL     1      -7.684  11.204  67.804  1.00  0.00    -0.112 A  
HETATM    6  C   UNL     1      -8.357  13.006  66.414  1.00  0.00     0.483 A  
HETATM    7  C   UNL     1      -7.776  12.130  68.855  1.00  0.00     0.036 A  
HETATM    8  C   UNL     1      -7.966  11.638  66.495  1.00  0.00    -0.053 A  
HETATM    9  C   UNL     1      -8.553  13.838  67.526  1.00  0.00    -0.193 A  
HETATM   10  N   UNL     1      -8.213  13.397  68.745  1.00  0.00    -0.009 NA 
BRANCH   9  11
HETATM   11  N   UNL     1      -9.120  15.092  67.420  1.00  0.00    -0.186 NA 
HETATM   12  C   UNL     1     -10.586  15.241  67.408  1.00  0.00    -0.282 C  
HETATM   13  C   UNL     1      -8.925  17.030  65.862  1.00  0.00    -0.014 C  
HETATM   14  C   UNL     1     -11.091  16.068  66.199  1.00  0.00     0.027 C  
HETATM   15  N   UNL     1     -10.368  17.331  65.927  1.00  0.00    -0.524 NA 
HETATM   16  C   UNL     1     -10.661  18.351  66.932  1.00  0.00    -0.347 C  
HETATM   17  C   UNL     1      -8.343  16.293  67.092  1.00  0.00    -0.191 C  
ENDBRANCH   9  11
BRANCH   8  18
HETATM   18  C   UNL     1      -8.027  10.808  65.219  1.00  0.00     0.009 A  
HETATM   19  C   UNL     1      -9.493  10.078  63.333  1.00  0.00    -0.239 A  
HETATM   20  C   UNL     1      -8.472   9.335  62.780  1.00  0.00    -0.211 A  
HETATM   21  C   UNL     1      -9.277  10.771  64.531  1.00  0.00    -0.250 A  
HETATM   22  C   UNL     1      -7.241   9.316  63.417  1.00  0.00    -0.096 A  
HETATM   23  C   UNL     1      -6.991  10.062  64.601  1.00  0.00    -0.137 A  
HETATM   24  C   UNL     1      -5.578   9.956  65.093  1.00  0.00    -0.071 C  
ENDBRANCH   8  18
ENDBRANCH   2   5
BRANCH   4  25
HETATM   25  C   UNL     1      -9.713   8.850  68.129  1.00  0.00    -0.180 C  
HETATM   26  C   UNL     1      -9.904   7.945  66.883  1.00  0.00    -0.309 C  
HETATM   27  C   UNL     1     -10.444  10.162  67.826  1.00  0.00    -0.277 C  
BRANCH  25  28
HETATM   28  C   UNL     1     -10.431   8.273  69.382  1.00  0.00    -0.224 A  
HETATM   29  C   UNL     1     -12.101   8.527  71.167  1.00  0.00    -0.283 A  
HETATM   30  C   UNL     1     -11.430   9.018  70.036  1.00  0.00    -0.005 A  
HETATM   31  F   UNL     1     -11.160   4.711  72.608  1.00  0.00    -0.264 F  
HETATM   32  C   UNL     1     -13.129   9.372  71.882  1.00  0.00    -0.424 C  
HETATM   33  F   UNL     1      -9.170   4.917  71.758  1.00  0.00    -0.143 F  
HETATM   34  C   UNL     1     -11.790   7.243  71.637  1.00  0.00    -0.330 A  
HETATM   35  F   UNL     1     -14.353   8.779  71.923  1.00  0.00    -0.422 F  
HETATM   36  F   UNL     1     -13.326  10.593  71.307  1.00  0.00    -0.413 F  
HETATM   37  F   UNL     1     -10.788   4.108  70.553  1.00  0.00     0.340 F  
HETATM   38  C   UNL     1     -10.493   5.066  71.475  1.00  0.00    -0.155 C  
HETATM   39  C   UNL     1     -10.828   6.457  70.989  1.00  0.00    -0.314 A  
HETATM   40  F   UNL     1     -12.789   9.621  73.176  1.00  0.00     0.028 F  
HETATM   41  C   UNL     1     -10.163   6.979  69.864  1.00  0.00    -0.213 A  
ENDBRANCH  25  28
ENDBRANCH   4  25
TORSDOF 5
ENDMDL
MODEL      126
REMARK 921   NORMALIZED FREE ENERGY PREDICTED BY IDOCK:   -4.52 KCAL/MOL
REMARK 922        TOTAL FREE ENERGY PREDICTED BY IDOCK:   -7.48 KCAL/MOL
REMARK 923 INTER-LIGAND FREE ENERGY PREDICTED BY IDOCK:   -6.23 KCAL/MOL
REMARK 924 INTRA-LIGAND FREE ENERGY PREDICTED BY IDOCK:   -1.25 KCAL/MOL
REMARK 927      BINDING AFFINITY PREDICTED BY RF-SCORE:    0.00 PKD
ROOT
HETATM    1  C   UNL     1     -10.963   8.707  70.363  1.00  0.00    -0.235 C  
HETATM    2  N   UNL     1     -10.755   9.292  69.029  1.00  0.00    -0.201 N  
HETATM    3  O   UNL     1     -11.631  11.226  69.808  1.00  0.00    -0.278 OA 
HETATM    4  C   UNL     1     -10.988  10.661  68.906  1.00  0.00    -0.249 C  
ENDROOT
BRANCH   2   5
HETATM    5  C   UNL     1      -9.934   8.519  68.184  1.00  0.00    -0.181 A  
HETATM    6  C   UNL     1      -7.960   7.494  67.355  1.00  0.00    -0.116 A  
HETATM    7  C   UNL     1     -10.574   7.903  67.096  1.00  0.00    -0.313 A  
HETATM    8  C   UNL     1      -8.547   8.340  68.341  1.00  0.00    -0.133 A  
HETATM    9  C   UNL     1      -8.687   6.807  66.371  1.00  0.00    -0.138 A  
HETATM   10  N   UNL     1      -9.995   7.058  66.225  1.00  0.00     0.012 NA 
BRANCH   9  11
HETATM   11  N   UNL     1      -8.111   5.847  65.563  1.00  0.00    -0.124 NA 
HETATM   12  C   UNL     1      -8.084   6.032  64.101  1.00  0.00    -0.095 C  
HETATM   13  C   UNL     1      -8.358   3.387  65.234  1.00  0.00    -0.098 C  
HETATM   14  C   UNL     1      -8.664   4.815  63.336  1.00  0.00    -0.127 C  
HETATM   15  N   UNL     1      -8.182   3.484  63.771  1.00  0.00    -0.089 NA 
HETATM   16  C   UNL     1      -6.794   3.254  63.379  1.00  0.00    -0.039 C  
HETATM   17  C   UNL     1      -7.710   4.526  66.058  1.00  0.00    -0.094 C  
ENDBRANCH   9  11
BRANCH   8  18
HETATM   18  C   UNL     1      -7.657   8.822  69.480  1.00  0.00    -0.080 A  
HETATM   19  C   UNL     1      -6.241  10.709  70.299  1.00  0.00    -0.139 A  
HETATM   20  C   UNL     1      -5.928  10.020  71.452  1.00  0.00     0.088 A  
HETATM   21  C   UNL     1      -7.062  10.110  69.335  1.00  0.00    -0.085 A  
HETATM   22  C   UNL     1      -6.461   8.754  71.637  1.00  0.00    -0.075 A  
HETATM   23  C   UNL     1      -7.343   8.159  70.694  1.00  0.00    -0.053 A  
HETATM   24  C   UNL     1      -7.857   6.814  71.114  1.00  0.00    -0.101 C  
ENDBRANCH   8  18
ENDBRANCH   2   5
BRANCH   4  25
HETATM   25  C   UNL     1     -10.432  11.571  67.737  1.00  0.00    -0.216 C  
HETATM   26  C   UNL     1     -11.658  11.718  66.797  1.00  0.00    -0.287 C  
HETATM   27  C   UNL     1      -9.266  11.110  66.857  1.00  0.00    -0.179 C  
BRANCH  25  28
HETATM   28  C   UNL     1      -9.977  12.939  68.318  1.00  0.00    -0.234 A  
HETATM   29  C   UNL     1     -10.514  15.003  69.539  1.00  0.00    -0.245 A  
HETATM   30  C   UNL     1     -10.892  13.763  68.999  1.00  0.00    -0.247 A  
HETATM   31  F   UNL     1      -6.538  16.265  69.182  1.00  0.00    -0.140 F  
HETATM   32  C   UNL     1     -11.531  15.892  70.215  1.00  0.00    -0.366 C  
HETATM   33  F   UNL     1      -6.352  15.057  67.385  1.00  0.00    -0.176 F  
HETATM   34  C   UNL     1      -9.178  15.414  69.428  1.00  0.00    -0.268 A  
HETATM   35  F   UNL     1     -11.207  16.164  71.509  1.00  0.00    -0.378 F  
HETATM   36  F   UNL     1     -12.785  15.357  70.251  1.00  0.00    -0.389 F  
HETATM   37  F   UNL     1      -5.941  14.180  69.330  1.00  0.00    -0.086 F  
HETATM   38  C   UNL     1      -6.784  15.025  68.675  1.00  0.00    -0.093 C  
HETATM   39  C   UNL     1      -8.230  14.602  68.790  1.00  0.00    -0.156 A  
HETATM   40  F   UNL     1     -11.659  17.099  69.599  1.00  0.00     0.343 F  
HETATM   41  C   UNL     1      -8.640  13.370  68.247  1.00  0.00    -0.169 A  
ENDBRANCH  25  28
ENDBRANCH   4  25
TORSDOF 5
ENDMDL
MODEL      127
REMARK 921   NORMALIZED FREE ENERGY PREDICTED BY IDOCK:   -4.45 KCAL/MOL
REMARK 922        TOTAL FREE ENERGY PREDICTED BY IDOCK:   -7.40 KCAL/MOL
REMARK 923 INTER-LIGAND FREE ENERGY PREDICTED BY IDOCK:  -10.25 KCAL/MOL
REMARK 924 INTRA-LIGAND FREE ENERGY PREDICTED BY IDOCK:    2.85 KCAL/MOL
REMARK 927      BINDING AFFINITY PREDICTED BY RF-SCORE:    0.00 PKD
ROOT
HETATM    1  C   UNL     1     -10.250  14.964  65.220  1.00  0.00    -0.373 C  
HETATM    2  N   UNL     1      -9.545  14.964  66.513  1.00  0.00    -0.260 N  
HETATM    3  O   UNL     1     -10.369  17.036  66.890  1.00  0.00    -0.308 OA 
HETATM    4  C   UNL     1      -9.817  16.030  67.369  1.00  0.00    -0.236 C  
ENDROOT
BRANCH   2   5
HETATM    5  C   UNL     1      -9.058  13.701  66.901  1.00  0.00    -0.240 A  
HETATM    6  C   UNL     1      -8.841  11.338  66.955  1.00  0.00    -0.165 A  
HETATM    7  C   UNL     1      -8.046  13.702  67.875  1.00  0.00    -0.164 A  
HETATM    8  C   UNL     1      -9.517  12.466  66.406  1.00  0.00    -0.240 A  
HETATM    9  C   UNL     1      -7.747  11.422  67.830  1.00  0.00    -0.115 A  
HETATM   10  N   UNL     1      -7.387  12.616  68.319  1.00  0.00    -0.107 NA 
BRANCH   9  11
HETATM   11  N   UNL     1      -6.996  10.319  68.182  1.00  0.00    -0.073 NA 
HETATM   12  C   UNL     1      -6.622   9.323  67.162  1.00  0.00    -0.068 C  
HETATM   13  C   UNL     1      -7.160   8.498  69.879  1.00  0.00    -0.051 C  
HETATM   14  C   UNL     1      -7.005   7.878  67.571  1.00  0.00    -0.075 C  
HETATM   15  N   UNL     1      -6.642   7.475  68.949  1.00  0.00    -0.047 NA 
HETATM   16  C   UNL     1      -5.200   7.292  69.099  1.00  0.00    -0.015 C  
HETATM   17  C   UNL     1      -6.726   9.952  69.577  1.00  0.00    -0.057 C  
ENDBRANCH   9  11
BRANCH   8  18
HETATM   18  C   UNL     1     -10.526  12.213  65.292  1.00  0.00    -0.311 A  
HETATM   19  C   UNL     1     -12.895  12.549  64.576  1.00  0.00    -0.352 A  
HETATM   20  C   UNL     1     -12.665  11.894  63.385  1.00  0.00    -0.496 A  
HETATM   21  C   UNL     1     -11.857  12.679  65.508  1.00  0.00    -0.479 A  
HETATM   22  C   UNL     1     -11.395  11.401  63.130  1.00  0.00     0.033 A  
HETATM   23  C   UNL     1     -10.317  11.577  64.042  1.00  0.00    -0.406 A  
HETATM   24  C   UNL     1      -9.013  11.026  63.548  1.00  0.00    -0.112 C  
ENDBRANCH   8  18
ENDBRANCH   2   5
BRANCH   4  25
HETATM   25  C   UNL     1      -9.541  16.030  68.927  1.00  0.00    -0.236 C  
HETATM   26  C   UNL     1      -9.744  17.518  69.317  1.00  0.00    -0.005 C  
HETATM   27  C   UNL     1      -8.178  15.617  69.493  1.00  0.00    -0.175 C  
BRANCH  25  28
HETATM   28  C   UNL     1     -10.565  15.098  69.634  1.00  0.00    -0.274 A  
HETATM   29  C   UNL     1     -12.281  14.766  71.361  1.00  0.00    -0.400 A  
HETATM   30  C   UNL     1     -11.344  15.578  70.703  1.00  0.00    -0.367 A  
HETATM   31  F   UNL     1     -12.832  10.820  70.073  1.00  0.00    -0.358 F  
HETATM   32  C   UNL     1     -13.062  15.290  72.543  1.00  0.00    -0.406 C  
HETATM   33  F   UNL     1     -10.790  10.814  69.329  1.00  0.00    -0.197 F  
HETATM   34  C   UNL     1     -12.470  13.449  70.917  1.00  0.00    -0.439 A  
HETATM   35  F   UNL     1     -14.407  15.248  72.338  1.00  0.00    -0.540 F  
HETATM   36  F   UNL     1     -12.774  16.586  72.854  1.00  0.00    -0.443 F  
HETATM   37  F   UNL     1     -12.409  11.500  68.052  1.00  0.00    -0.222 F  
HETATM   38  C   UNL     1     -11.943  11.537  69.331  1.00  0.00    -0.325 C  
HETATM   39  C   UNL     1     -11.739  12.949  69.830  1.00  0.00    -0.351 A  
HETATM   40  F   UNL     1     -12.833  14.575  73.677  1.00  0.00    -0.586 F  
HETATM   41  C   UNL     1     -10.799  13.782  69.196  1.00  0.00    -0.205 A  
ENDBRANCH  25  28
ENDBRANCH   4  25
TORSDOF 5
ENDMDL
MODEL      128
REMARK 921   NORMALIZED FREE ENERGY PREDICTED BY IDOCK:   -4.45 KCAL/MOL
REMARK 922        TOTAL FREE ENERGY PREDICTED BY IDOCK:   -7.39 KCAL/MOL
REMARK 923 INTER-LIGAND FREE ENERGY PREDICTED BY IDOCK:   -5.26 KCAL/MOL
REMARK 924 INTRA-LIGAND FREE ENERGY PREDICTED BY IDOCK:   -2.13 KCAL/MOL
REMARK 927      BINDING AFFINITY PREDICTED BY RF-SCORE:    0.00 PKD
ROOT
HETATM    1  C   UNL     1     -10.842  10.493  68.708  1.00  0.00    -0.231 C  
HETATM    2  N   UNL     1     -10.502   9.238  69.398  1.00  0.00    -0.214 N  
HETATM    3  O   UNL     1     -11.625  10.000  71.206  1.00  0.00    -0.367 OA 
HETATM    4  C   UNL     1     -11.106   9.025  70.636  1.00  0.00    -0.265 C  
ENDROOT
BRANCH   2   5
HETATM    5  C   UNL     1      -9.991   8.236  68.548  1.00  0.00    -0.190 A  
HETATM    6  C   UNL     1      -8.381   6.924  67.399  1.00  0.00    -0.122 A  
HETATM    7  C   UNL     1     -10.942   7.420  67.914  1.00  0.00     0.005 A  
HETATM    8  C   UNL     1      -8.627   8.015  68.283  1.00  0.00    -0.130 A  
HETATM    9  C   UNL     1      -9.378   6.069  66.905  1.00  0.00    -0.131 A  
HETATM   10  N   UNL     1     -10.665   6.358  67.137  1.00  0.00    -0.316 NA 
BRANCH   9  11
HETATM   11  N   UNL     1      -9.082   4.911  66.215  1.00  0.00    -0.123 NA 
HETATM   12  C   UNL     1      -9.327   3.597  66.836  1.00  0.00    -0.194 C  
HETATM   13  C   UNL     1      -7.089   3.971  65.046  1.00  0.00    -0.062 C  
HETATM   14  C   UNL     1      -8.077   2.681  66.805  1.00  0.00    -0.081 C  
HETATM   15  N   UNL     1      -7.365   2.597  65.510  1.00  0.00    -0.066 NA 
HETATM   16  C   UNL     1      -8.126   1.838  64.520  1.00  0.00    -0.070 C  
HETATM   17  C   UNL     1      -8.321   4.904  64.961  1.00  0.00    -0.136 C  
ENDBRANCH   9  11
BRANCH   8  18
HETATM   18  C   UNL     1      -7.420   8.698  68.915  1.00  0.00    -0.090 A  
HETATM   19  C   UNL     1      -6.560  10.842  69.864  1.00  0.00    -0.148 A  
HETATM   20  C   UNL     1      -5.330  10.275  70.124  1.00  0.00    -0.042 A  
HETATM   21  C   UNL     1      -7.562  10.077  69.255  1.00  0.00    -0.109 A  
HETATM   22  C   UNL     1      -5.128   8.944  69.795  1.00  0.00    -0.030 A  
HETATM   23  C   UNL     1      -6.155   8.139  69.231  1.00  0.00    -0.038 A  
HETATM   24  C   UNL     1      -5.751   6.711  69.011  1.00  0.00    -0.017 C  
ENDBRANCH   8  18
ENDBRANCH   2   5
BRANCH   4  25
HETATM   25  C   UNL     1     -11.245   7.616  71.343  1.00  0.00    -0.273 C  
HETATM   26  C   UNL     1     -12.021   6.776  70.295  1.00  0.00    -0.294 C  
HETATM   27  C   UNL     1     -12.002   7.463  72.666  1.00  0.00    -0.098 C  
BRANCH  25  28
HETATM   28  C   UNL     1      -9.830   7.036  71.622  1.00  0.00    -0.169 A  
HETATM   29  C   UNL     1      -8.196   5.222  71.346  1.00  0.00    -0.116 A  
HETATM   30  C   UNL     1      -9.466   5.775  71.116  1.00  0.00    -0.185 A  
HETATM   31  F   UNL     1      -5.381   7.405  73.545  1.00  0.00    -0.044 F  
HETATM   32  C   UNL     1      -7.852   3.842  70.838  1.00  0.00    -0.051 C  
HETATM   33  F   UNL     1      -7.012   8.420  74.562  1.00  0.00    -0.160 F  
HETATM   34  C   UNL     1      -7.254   5.964  72.072  1.00  0.00    -0.092 A  
HETATM   35  F   UNL     1      -6.783   3.849  69.995  1.00  0.00    -0.031 F  
HETATM   36  F   UNL     1      -8.866   3.246  70.147  1.00  0.00    -0.100 F  
HETATM   37  F   UNL     1      -6.233   9.216  72.696  1.00  0.00    -0.076 F  
HETATM   38  C   UNL     1      -6.558   8.056  73.331  1.00  0.00    -0.097 C  
HETATM   39  C   UNL     1      -7.568   7.240  72.560  1.00  0.00    -0.088 A  
HETATM   40  F   UNL     1      -7.531   2.982  71.843  1.00  0.00    -0.042 F  
HETATM   41  C   UNL     1      -8.853   7.764  72.324  1.00  0.00    -0.180 A  
ENDBRANCH  25  28
ENDBRANCH   4  25
TORSDOF 5
ENDMDL
MODEL      129
REMARK 921   NORMALIZED FREE ENERGY PREDICTED BY IDOCK:   -4.44 KCAL/MOL
REMARK 922        TOTAL FREE ENERGY PREDICTED BY IDOCK:   -7.38 KCAL/MOL
REMARK 923 INTER-LIGAND FREE ENERGY PREDICTED BY IDOCK:   -8.29 KCAL/MOL
REMARK 924 INTRA-LIGAND FREE ENERGY PREDICTED BY IDOCK:    0.91 KCAL/MOL
REMARK 927      BINDING AFFINITY PREDICTED BY RF-SCORE:    0.00 PKD
ROOT
HETATM    1  C   UNL     1     -12.229  13.099  68.270  1.00  0.00    -0.026 C  
HETATM    2  N   UNL     1     -10.778  12.860  68.346  1.00  0.00    -0.248 N  
HETATM    3  O   UNL     1     -11.224  10.721  68.926  1.00  0.00    -0.229 OA 
HETATM    4  C   UNL     1     -10.374  11.539  68.535  1.00  0.00    -0.210 C  
ENDROOT
BRANCH   2   5
HETATM    5  C   UNL     1      -9.997  13.887  67.779  1.00  0.00    -0.241 A  
HETATM    6  C   UNL     1      -9.018  15.245  66.097  1.00  0.00    -0.251 A  
HETATM    7  C   UNL     1      -9.300  14.703  68.684  1.00  0.00    -0.206 A  
HETATM    8  C   UNL     1      -9.855  14.132  66.401  1.00  0.00    -0.308 A  
HETATM    9  C   UNL     1      -8.458  16.097  67.060  1.00  0.00    -0.208 A  
HETATM   10  N   UNL     1      -8.571  15.786  68.358  1.00  0.00    -0.166 NA 
BRANCH   9  11
HETATM   11  N   UNL     1      -7.819  17.273  66.723  1.00  0.00    -0.220 NA 
HETATM   12  C   UNL     1      -6.347  17.333  66.694  1.00  0.00    -0.213 C  
HETATM   13  C   UNL     1      -7.886  19.644  67.498  1.00  0.00    -0.274 C  
HETATM   14  C   UNL     1      -5.781  18.502  67.540  1.00  0.00    -0.149 C  
HETATM   15  N   UNL     1      -6.428  19.819  67.343  1.00  0.00    -0.194 NA 
HETATM   16  C   UNL     1      -6.091  20.401  66.046  1.00  0.00    -0.197 C  
HETATM   17  C   UNL     1      -8.523  18.555  66.601  1.00  0.00    -0.278 C  
ENDBRANCH   9  11
BRANCH   8  18
HETATM   18  C   UNL     1     -10.576  13.452  65.243  1.00  0.00    -0.333 A  
HETATM   19  C   UNL     1     -10.707  11.371  63.867  1.00  0.00    -0.462 A  
HETATM   20  C   UNL     1     -11.729  11.896  63.105  1.00  0.00    -0.249 A  
HETATM   21  C   UNL     1     -10.135  12.142  64.888  1.00  0.00    -0.280 A  
HETATM   22  C   UNL     1     -12.183  13.174  63.391  1.00  0.00    -0.521 A  
HETATM   23  C   UNL     1     -11.652  13.945  64.462  1.00  0.00    -0.409 A  
HETATM   24  C   UNL     1     -12.326  15.272  64.642  1.00  0.00    -0.080 C  
ENDBRANCH   8  18
ENDBRANCH   2   5
BRANCH   4  25
HETATM   25  C   UNL     1      -8.927  10.984  68.219  1.00  0.00    -0.155 C  
HETATM   26  C   UNL     1      -8.000  11.993  68.946  1.00  0.00     0.069 C  
HETATM   27  C   UNL     1      -8.411  10.882  66.780  1.00  0.00    -0.139 C  
BRANCH  25  28
HETATM   28  C   UNL     1      -8.788   9.547  68.795  1.00  0.00    -0.132 A  
HETATM   29  C   UNL     1      -9.794   7.623  69.947  1.00  0.00    -0.184 A  
HETATM   30  C   UNL     1      -9.883   8.921  69.419  1.00  0.00    -0.183 A  
HETATM   31  F   UNL     1      -6.193   5.516  69.603  1.00  0.00    -0.023 F  
HETATM   32  C   UNL     1     -10.969   6.998  70.662  1.00  0.00    -0.260 C  
HETATM   33  F   UNL     1      -5.129   7.411  69.539  1.00  0.00    -0.014 F  
HETATM   34  C   UNL     1      -8.589   6.918  69.817  1.00  0.00    -0.141 A  
HETATM   35  F   UNL     1     -11.378   5.839  70.077  1.00  0.00    -0.418 F  
HETATM   36  F   UNL     1     -12.070   7.801  70.705  1.00  0.00    -0.297 F  
HETATM   37  F   UNL     1      -5.873   6.521  67.702  1.00  0.00    -0.016 F  
HETATM   38  C   UNL     1      -6.189   6.741  69.008  1.00  0.00    -0.027 C  
HETATM   39  C   UNL     1      -7.488   7.495  69.168  1.00  0.00    -0.098 A  
HETATM   40  F   UNL     1     -10.685   6.685  71.956  1.00  0.00    -0.223 F  
HETATM   41  C   UNL     1      -7.603   8.802  68.659  1.00  0.00    -0.097 A  
ENDBRANCH  25  28
ENDBRANCH   4  25
TORSDOF 5
ENDMDL
MODEL      130
REMARK 921   NORMALIZED FREE ENERGY PREDICTED BY IDOCK:   -4.42 KCAL/MOL
REMARK 922        TOTAL FREE ENERGY PREDICTED BY IDOCK:   -7.36 KCAL/MOL
REMARK 923 INTER-LIGAND FREE ENERGY PREDICTED BY IDOCK:   -6.99 KCAL/MOL
REMARK 924 INTRA-LIGAND FREE ENERGY PREDICTED BY IDOCK:   -0.37 KCAL/MOL
REMARK 927      BINDING AFFINITY PREDICTED BY RF-SCORE:    0.00 PKD
ROOT
HETATM    1  C   UNL     1     -10.692  11.014  64.158  1.00  0.00    -0.274 C  
HETATM    2  N   UNL     1      -9.605  10.151  64.649  1.00  0.00    -0.299 N  
HETATM    3  O   UNL     1      -8.528  10.502  62.691  1.00  0.00    -0.164 OA 
HETATM    4  C   UNL     1      -8.454  10.092  63.863  1.00  0.00    -0.181 C  
ENDROOT
BRANCH   2   5
HETATM    5  C   UNL     1      -9.675   9.865  66.026  1.00  0.00    -0.247 A  
HETATM    6  C   UNL     1      -9.615  10.249  68.368  1.00  0.00    -0.155 A  
HETATM    7  C   UNL     1      -9.958   8.532  66.367  1.00  0.00    -0.244 A  
HETATM    8  C   UNL     1      -9.468  10.796  67.061  1.00  0.00    -0.186 A  
HETATM    9  C   UNL     1     -10.028   8.934  68.630  1.00  0.00    -0.177 A  
HETATM   10  N   UNL     1     -10.154   8.069  67.615  1.00  0.00    -0.193 NA 
BRANCH   9  11
HETATM   11  N   UNL     1     -10.349   8.500  69.901  1.00  0.00    -0.205 NA 
HETATM   12  C   UNL     1     -10.724   7.093  70.129  1.00  0.00    -0.240 C  
HETATM   13  C   UNL     1     -11.935   9.199  71.695  1.00  0.00    -0.367 C  
HETATM   14  C   UNL     1     -12.070   6.950  70.883  1.00  0.00    -0.373 C  
HETATM   15  N   UNL     1     -12.239   7.806  72.079  1.00  0.00    -0.303 NA 
HETATM   16  C   UNL     1     -11.402   7.359  73.190  1.00  0.00    -0.162 C  
HETATM   17  C   UNL     1     -10.556   9.418  71.027  1.00  0.00    -0.330 C  
ENDBRANCH   9  11
BRANCH   8  18
HETATM   18  C   UNL     1      -9.244  12.300  66.945  1.00  0.00    -0.209 A  
HETATM   19  C   UNL     1     -10.142  14.424  65.988  1.00  0.00    -0.338 A  
HETATM   20  C   UNL     1      -9.105  15.150  66.534  1.00  0.00    -0.328 A  
HETATM   21  C   UNL     1     -10.189  13.037  66.171  1.00  0.00    -0.288 A  
HETATM   22  C   UNL     1      -8.144  14.483  67.278  1.00  0.00    -0.219 A  
HETATM   23  C   UNL     1      -8.212  13.084  67.521  1.00  0.00    -0.181 A  
HETATM   24  C   UNL     1      -7.112  12.571  68.402  1.00  0.00    -0.107 C  
ENDBRANCH   8  18
ENDBRANCH   2   5
BRANCH   4  25
HETATM   25  C   UNL     1      -7.037   9.609  64.372  1.00  0.00    -0.118 C  
HETATM   26  C   UNL     1      -6.660  10.683  65.426  1.00  0.00    -0.026 C  
HETATM   27  C   UNL     1      -5.843   9.503  63.416  1.00  0.00    -0.092 C  
BRANCH  25  28
HETATM   28  C   UNL     1      -7.169   8.194  65.003  1.00  0.00    -0.076 A  
HETATM   29  C   UNL     1      -6.962   6.725  66.962  1.00  0.00    -0.070 A  
HETATM   30  C   UNL     1      -6.851   7.988  66.358  1.00  0.00    -0.062 A  
HETATM   31  F   UNL     1      -8.340   3.486  64.695  1.00  0.00    -0.091 F  
HETATM   32  C   UNL     1      -6.561   6.521  68.404  1.00  0.00    -0.059 C  
HETATM   33  F   UNL     1      -7.589   4.463  62.905  1.00  0.00    -0.052 F  
HETATM   34  C   UNL     1      -7.437   5.647  66.201  1.00  0.00    -0.082 A  
HETATM   35  F   UNL     1      -7.587   6.060  69.170  1.00  0.00    -0.081 F  
HETATM   36  F   UNL     1      -6.124   7.659  69.014  1.00  0.00    -0.030 F  
HETATM   37  F   UNL     1      -9.603   4.882  63.607  1.00  0.00    -0.021 F  
HETATM   38  C   UNL     1      -8.325   4.675  64.030  1.00  0.00    -0.120 C  
HETATM   39  C   UNL     1      -7.799   5.824  64.858  1.00  0.00    -0.113 A  
HETATM   40  F   UNL     1      -5.554   5.615  68.541  1.00  0.00    -0.006 F  
HETATM   41  C   UNL     1      -7.666   7.098  64.276  1.00  0.00    -0.117 A  
ENDBRANCH  25  28
ENDBRANCH   4  25
TORSDOF 5
ENDMDL
MODEL      131
REMARK 921   NORMALIZED FREE ENERGY PREDICTED BY IDOCK:   -4.42 KCAL/MOL
REMARK 922        TOTAL FREE ENERGY PREDICTED BY IDOCK:   -7.36 KCAL/MOL
REMARK 923 INTER-LIGAND FREE ENERGY PREDICTED BY IDOCK:   -7.77 KCAL/MOL
REMARK 924 INTRA-LIGAND FREE ENERGY PREDICTED BY IDOCK:    0.41 KCAL/MOL
REMARK 927      BINDING AFFINITY PREDICTED BY RF-SCORE:    0.00 PKD
ROOT
HETATM    1  C   UNL     1     -10.674  14.509  65.292  1.00  0.00    -0.376 C  
HETATM    2  N   UNL     1      -9.922  14.759  66.532  1.00  0.00    -0.261 N  
HETATM    3  O   UNL     1     -11.401  16.396  67.025  1.00  0.00     0.092 OA 
HETATM    4  C   UNL     1     -10.492  15.654  67.436  1.00  0.00    -0.291 C  
ENDROOT
BRANCH   2   5
HETATM    5  C   UNL     1      -8.987  13.753  66.849  1.00  0.00    -0.221 A  
HETATM    6  C   UNL     1      -6.906  12.781  67.445  1.00  0.00    -0.137 A  
HETATM    7  C   UNL     1      -9.473  12.436  66.850  1.00  0.00    -0.219 A  
HETATM    8  C   UNL     1      -7.628  13.971  67.140  1.00  0.00     0.037 A  
HETATM    9  C   UNL     1      -7.489  11.510  67.553  1.00  0.00    -0.116 A  
HETATM   10  N   UNL     1      -8.773  11.345  67.207  1.00  0.00    -0.144 NA 
BRANCH   9  11
HETATM   11  N   UNL     1      -6.798  10.419  68.041  1.00  0.00    -0.069 NA 
HETATM   12  C   UNL     1      -6.320   9.374  67.117  1.00  0.00    -0.066 C  
HETATM   13  C   UNL     1      -7.180   8.680  69.788  1.00  0.00    -0.051 C  
HETATM   14  C   UNL     1      -6.765   7.952  67.545  1.00  0.00    -0.069 C  
HETATM   15  N   UNL     1      -6.570   7.612  68.972  1.00  0.00    -0.047 NA 
HETATM   16  C   UNL     1      -5.157   7.426  69.298  1.00  0.00    -0.015 C  
HETATM   17  C   UNL     1      -6.696  10.116  69.472  1.00  0.00    -0.066 C  
ENDBRANCH   9  11
BRANCH   8  18
HETATM   18  C   UNL     1      -6.897  15.300  67.293  1.00  0.00    -0.108 A  
HETATM   19  C   UNL     1      -6.802  17.672  66.516  1.00  0.00    -0.277 A  
HETATM   20  C   UNL     1      -5.732  17.937  67.344  1.00  0.00    -0.161 A  
HETATM   21  C   UNL     1      -7.347  16.382  66.479  1.00  0.00    -0.176 A  
HETATM   22  C   UNL     1      -5.237  16.917  68.141  1.00  0.00    -0.116 A  
HETATM   23  C   UNL     1      -5.819  15.619  68.157  1.00  0.00    -0.136 A  
HETATM   24  C   UNL     1      -5.176  14.682  69.136  1.00  0.00    -0.085 C  
ENDBRANCH   8  18
ENDBRANCH   2   5
BRANCH   4  25
HETATM   25  C   UNL     1     -10.120  15.750  68.970  1.00  0.00    -0.225 C  
HETATM   26  C   UNL     1     -10.350  17.250  69.293  1.00  0.00    -0.237 C  
HETATM   27  C   UNL     1      -8.710  15.413  69.468  1.00  0.00    -0.210 C  
BRANCH  25  28
HETATM   28  C   UNL     1     -11.063  14.826  69.790  1.00  0.00    -0.288 A  
HETATM   29  C   UNL     1     -11.947  12.581  70.253  1.00  0.00    -0.364 A  
HETATM   30  C   UNL     1     -11.110  13.444  69.530  1.00  0.00    -0.100 A  
HETATM   31  F   UNL     1     -14.333  14.137  73.321  1.00  0.00     0.368 F  
HETATM   32  C   UNL     1     -12.018  11.110  69.914  1.00  0.00    -0.363 C  
HETATM   33  F   UNL     1     -14.329  16.058  72.304  1.00  0.00    -0.490 F  
HETATM   34  C   UNL     1     -12.734  13.106  71.288  1.00  0.00    -0.396 A  
HETATM   35  F   UNL     1     -11.675  10.316  70.965  1.00  0.00    -0.367 F  
HETATM   36  F   UNL     1     -11.195  10.747  68.889  1.00  0.00    -0.225 F  
HETATM   37  F   UNL     1     -12.752  15.575  73.719  1.00  0.00    -0.496 F  
HETATM   38  C   UNL     1     -13.517  15.049  72.723  1.00  0.00    -0.473 C  
HETATM   39  C   UNL     1     -12.686  14.472  71.601  1.00  0.00    -0.414 A  
HETATM   40  F   UNL     1     -13.268  10.721  69.542  1.00  0.00    -0.028 F  
HETATM   41  C   UNL     1     -11.846  15.316  70.852  1.00  0.00    -0.387 A  
ENDBRANCH  25  28
ENDBRANCH   4  25
TORSDOF 5
ENDMDL
MODEL      132
REMARK 921   NORMALIZED FREE ENERGY PREDICTED BY IDOCK:   -4.42 KCAL/MOL
REMARK 922        TOTAL FREE ENERGY PREDICTED BY IDOCK:   -7.35 KCAL/MOL
REMARK 923 INTER-LIGAND FREE ENERGY PREDICTED BY IDOCK:   -9.05 KCAL/MOL
REMARK 924 INTRA-LIGAND FREE ENERGY PREDICTED BY IDOCK:    1.70 KCAL/MOL
REMARK 927      BINDING AFFINITY PREDICTED BY RF-SCORE:    0.00 PKD
ROOT
HETATM    1  C   UNL     1     -12.152   9.495  70.555  1.00  0.00    -0.085 C  
HETATM    2  N   UNL     1     -11.621  10.199  69.377  1.00  0.00    -0.144 N  
HETATM    3  O   UNL     1     -12.496  12.113  70.206  1.00  0.00    -0.198 OA 
HETATM    4  C   UNL     1     -11.720  11.590  69.388  1.00  0.00    -0.346 C  
ENDROOT
BRANCH   2   5
HETATM    5  C   UNL     1     -10.699   9.446  68.624  1.00  0.00    -0.160 A  
HETATM    6  C   UNL     1      -8.861   8.013  68.176  1.00  0.00    -0.132 A  
HETATM    7  C   UNL     1     -10.868   9.477  67.231  1.00  0.00    -0.118 A  
HETATM    8  C   UNL     1      -9.634   8.697  69.159  1.00  0.00    -0.163 A  
HETATM    9  C   UNL     1      -9.169   7.986  66.807  1.00  0.00    -0.165 A  
HETATM   10  N   UNL     1     -10.155   8.764  66.341  1.00  0.00    -0.283 NA 
BRANCH   9  11
HETATM   11  N   UNL     1      -8.515   7.156  65.919  1.00  0.00    -0.143 NA 
HETATM   12  C   UNL     1      -8.043   5.831  66.357  1.00  0.00    -0.106 C  
HETATM   13  C   UNL     1      -6.545   7.340  64.400  1.00  0.00    -0.040 C  
HETATM   14  C   UNL     1      -6.543   5.599  66.044  1.00  0.00    -0.048 C  
HETATM   15  N   UNL     1      -6.101   5.960  64.678  1.00  0.00    -0.025 NA 
HETATM   16  C   UNL     1      -6.606   5.021  63.678  1.00  0.00    -0.033 C  
HETATM   17  C   UNL     1      -8.057   7.605  64.599  1.00  0.00    -0.112 C  
ENDBRANCH   9  11
BRANCH   8  18
HETATM   18  C   UNL     1      -9.307   8.435  70.624  1.00  0.00    -0.182 A  
HETATM   19  C   UNL     1     -10.079   7.302  72.712  1.00  0.00    -0.253 A  
HETATM   20  C   UNL     1      -8.981   7.761  73.409  1.00  0.00    -0.314 A  
HETATM   21  C   UNL     1     -10.243   7.654  71.366  1.00  0.00    -0.208 A  
HETATM   22  C   UNL     1      -8.049   8.543  72.744  1.00  0.00    -0.103 A  
HETATM   23  C   UNL     1      -8.173   8.858  71.363  1.00  0.00    -0.175 A  
HETATM   24  C   UNL     1      -7.026   9.660  70.823  1.00  0.00    -0.087 C  
ENDBRANCH   8  18
ENDBRANCH   2   5
BRANCH   4  25
HETATM   25  C   UNL     1     -10.861  12.563  68.483  1.00  0.00    -0.271 C  
HETATM   26  C   UNL     1     -11.573  12.478  67.107  1.00  0.00    -0.437 C  
HETATM   27  C   UNL     1      -9.375  12.298  68.218  1.00  0.00    -0.199 C  
BRANCH  25  28
HETATM   28  C   UNL     1     -10.910  13.999  69.076  1.00  0.00    -0.268 A  
HETATM   29  C   UNL     1     -10.529  16.412  68.810  1.00  0.00    -0.300 A  
HETATM   30  C   UNL     1     -10.495  15.101  68.307  1.00  0.00    -0.241 A  
HETATM   31  F   UNL     1     -11.970  17.081  72.683  1.00  0.00    -0.429 F  
HETATM   32  C   UNL     1     -10.024  17.570  67.982  1.00  0.00    -0.310 C  
HETATM   33  F   UNL     1     -11.370  15.061  73.219  1.00  0.00    -0.433 F  
HETATM   34  C   UNL     1     -11.025  16.631  70.103  1.00  0.00    -0.110 A  
HETATM   35  F   UNL     1     -10.982  18.512  67.765  1.00  0.00    -0.425 F  
HETATM   36  F   UNL     1      -9.577  17.203  66.747  1.00  0.00    -0.237 F  
HETATM   37  F   UNL     1     -13.342  15.423  72.379  1.00  0.00    -0.379 F  
HETATM   38  C   UNL     1     -12.033  15.783  72.274  1.00  0.00    -0.493 C  
HETATM   39  C   UNL     1     -11.483  15.561  70.885  1.00  0.00    -0.410 A  
HETATM   40  F   UNL     1      -8.985  18.220  68.575  1.00  0.00    -0.294 F  
HETATM   41  C   UNL     1     -11.426  14.257  70.359  1.00  0.00    -0.188 A  
ENDBRANCH  25  28
ENDBRANCH   4  25
TORSDOF 5
ENDMDL
MODEL      133
REMARK 921   NORMALIZED FREE ENERGY PREDICTED BY IDOCK:   -4.36 KCAL/MOL
REMARK 922        TOTAL FREE ENERGY PREDICTED BY IDOCK:   -7.28 KCAL/MOL
REMARK 923 INTER-LIGAND FREE ENERGY PREDICTED BY IDOCK:   -8.80 KCAL/MOL
REMARK 924 INTRA-LIGAND FREE ENERGY PREDICTED BY IDOCK:    1.52 KCAL/MOL
REMARK 927      BINDING AFFINITY PREDICTED BY RF-SCORE:    0.00 PKD
ROOT
HETATM    1  C   UNL     1      -8.290   9.049  70.853  1.00  0.00    -0.197 C  
HETATM    2  N   UNL     1      -8.463   8.988  69.393  1.00  0.00    -0.114 N  
HETATM    3  O   UNL     1      -8.058   6.766  69.502  1.00  0.00    -0.122 OA 
HETATM    4  C   UNL     1      -8.483   7.716  68.822  1.00  0.00    -0.129 C  
ENDROOT
BRANCH   2   5
HETATM    5  C   UNL     1      -9.027  10.150  68.832  1.00  0.00    -0.155 A  
HETATM    6  C   UNL     1     -10.628  11.855  68.427  1.00  0.00    -0.239 A  
HETATM    7  C   UNL     1      -8.231  10.835  67.899  1.00  0.00    -0.113 A  
HETATM    8  C   UNL     1     -10.310  10.651  69.120  1.00  0.00    -0.242 A  
HETATM    9  C   UNL     1      -9.730  12.554  67.606  1.00  0.00    -0.196 A  
HETATM   10  N   UNL     1      -8.543  12.005  67.315  1.00  0.00    -0.169 NA 
BRANCH   9  11
HETATM   11  N   UNL     1     -10.008  13.813  67.112  1.00  0.00    -0.239 NA 
HETATM   12  C   UNL     1      -8.946  14.602  66.464  1.00  0.00    -0.204 C  
HETATM   13  C   UNL     1     -11.009  15.916  68.004  1.00  0.00    -0.336 C  
HETATM   14  C   UNL     1      -8.807  16.023  67.067  1.00  0.00    -0.211 C  
HETATM   15  N   UNL     1     -10.069  16.775  67.256  1.00  0.00    -0.274 NA 
HETATM   16  C   UNL     1     -10.636  17.212  65.982  1.00  0.00    -0.204 C  
HETATM   17  C   UNL     1     -11.264  14.518  67.390  1.00  0.00    -0.327 C  
ENDBRANCH   9  11
BRANCH   8  18
HETATM   18  C   UNL     1     -11.310  10.145  70.153  1.00  0.00    -0.372 A  
HETATM   19  C   UNL     1     -12.141   8.123  71.362  1.00  0.00    -0.326 A  
HETATM   20  C   UNL     1     -13.070   8.873  72.050  1.00  0.00    -0.454 A  
HETATM   21  C   UNL     1     -11.306   8.743  70.424  1.00  0.00    -0.213 A  
HETATM   22  C   UNL     1     -13.134  10.237  71.812  1.00  0.00    -0.570 A  
HETATM   23  C   UNL     1     -12.253  10.889  70.906  1.00  0.00    -0.485 A  
HETATM   24  C   UNL     1     -12.445  12.375  70.842  1.00  0.00    -0.367 C  
ENDBRANCH   8  18
ENDBRANCH   2   5
BRANCH   4  25
HETATM   25  C   UNL     1      -9.075   7.376  67.395  1.00  0.00    -0.129 C  
HETATM   26  C   UNL     1      -8.077   8.069  66.430  1.00  0.00    -0.107 C  
HETATM   27  C   UNL     1     -10.473   7.847  66.981  1.00  0.00    -0.419 C  
BRANCH  25  28
HETATM   28  C   UNL     1      -9.098   5.834  67.199  1.00  0.00    -0.112 A  
HETATM   29  C   UNL     1      -8.859   3.578  68.143  1.00  0.00    -0.153 A  
HETATM   30  C   UNL     1      -8.842   4.975  68.283  1.00  0.00    -0.110 A  
HETATM   31  F   UNL     1      -9.762   1.906  64.412  1.00  0.00    -0.133 F  
HETATM   32  C   UNL     1      -8.525   2.681  69.311  1.00  0.00    -0.062 C  
HETATM   33  F   UNL     1      -9.010   3.710  63.459  1.00  0.00    -0.093 F  
HETATM   34  C   UNL     1      -9.175   3.024  66.894  1.00  0.00    -0.177 A  
HETATM   35  F   UNL     1      -9.542   1.832  69.624  1.00  0.00    -0.174 F  
HETATM   36  F   UNL     1      -8.243   3.362  70.458  1.00  0.00    -0.051 F  
HETATM   37  F   UNL     1     -11.094   3.589  64.064  1.00  0.00    -0.269 F  
HETATM   38  C   UNL     1      -9.829   3.266  64.452  1.00  0.00    -0.162 C  
HETATM   39  C   UNL     1      -9.473   3.849  65.800  1.00  0.00    -0.178 A  
HETATM   40  F   UNL     1      -7.440   1.894  69.070  1.00  0.00    -0.042 F  
HETATM   41  C   UNL     1      -9.437   5.246  65.967  1.00  0.00    -0.169 A  
ENDBRANCH  25  28
ENDBRANCH   4  25
TORSDOF 5
ENDMDL
MODEL      134
REMARK 921   NORMALIZED FREE ENERGY PREDICTED BY IDOCK:   -4.35 KCAL/MOL
REMARK 922        TOTAL FREE ENERGY PREDICTED BY IDOCK:   -7.26 KCAL/MOL
REMARK 923 INTER-LIGAND FREE ENERGY PREDICTED BY IDOCK:   -8.99 KCAL/MOL
REMARK 924 INTRA-LIGAND FREE ENERGY PREDICTED BY IDOCK:    1.73 KCAL/MOL
REMARK 927      BINDING AFFINITY PREDICTED BY RF-SCORE:    0.00 PKD
ROOT
HETATM    1  C   UNL     1      -8.684   8.993  70.896  1.00  0.00    -0.229 C  
HETATM    2  N   UNL     1      -9.018   8.977  69.462  1.00  0.00    -0.143 N  
HETATM    3  O   UNL     1      -8.902   6.719  69.525  1.00  0.00    -0.138 OA 
HETATM    4  C   UNL     1      -9.267   7.728  68.895  1.00  0.00    -0.140 C  
ENDROOT
BRANCH   2   5
HETATM    5  C   UNL     1      -9.480  10.212  68.967  1.00  0.00    -0.190 A  
HETATM    6  C   UNL     1     -10.907  12.089  68.695  1.00  0.00    -0.273 A  
HETATM    7  C   UNL     1      -8.659  10.843  68.018  1.00  0.00    -0.131 A  
HETATM    8  C   UNL     1     -10.688  10.834  69.334  1.00  0.00    -0.272 A  
HETATM    9  C   UNL     1      -9.977  12.719  67.854  1.00  0.00    -0.229 A  
HETATM   10  N   UNL     1      -8.871  12.060  67.487  1.00  0.00    -0.165 NA 
BRANCH   9  11
HETATM   11  N   UNL     1     -10.141  14.017  67.414  1.00  0.00    -0.242 NA 
HETATM   12  C   UNL     1     -11.220  14.345  66.465  1.00  0.00    -0.340 C  
HETATM   13  C   UNL     1      -8.699  15.754  66.352  1.00  0.00    -0.337 C  
HETATM   14  C   UNL     1     -10.705  15.106  65.217  1.00  0.00    -0.404 C  
HETATM   15  N   UNL     1      -9.787  16.237  65.478  1.00  0.00    -0.508 NA 
HETATM   16  C   UNL     1     -10.484  17.378  66.066  1.00  0.00    -0.276 C  
HETATM   17  C   UNL     1      -9.156  15.074  67.666  1.00  0.00    -0.182 C  
ENDBRANCH   9  11
BRANCH   8  18
HETATM   18  C   UNL     1     -11.687  10.398  70.398  1.00  0.00    -0.419 A  
HETATM   19  C   UNL     1     -12.718   8.430  71.539  1.00  0.00    -0.330 A  
HETATM   20  C   UNL     1     -13.495   9.250  72.329  1.00  0.00    -0.548 A  
HETATM   21  C   UNL     1     -11.860   8.994  70.586  1.00  0.00    -0.193 A  
HETATM   22  C   UNL     1     -13.385  10.623  72.175  1.00  0.00    -0.335 A  
HETATM   23  C   UNL     1     -12.474  11.210  71.254  1.00  0.00    -0.466 A  
HETATM   24  C   UNL     1     -12.464  12.710  71.289  1.00  0.00    -0.276 C  
ENDBRANCH   8  18
ENDBRANCH   2   5
BRANCH   4  25
HETATM   25  C   UNL     1     -10.047   7.490  67.540  1.00  0.00    -0.261 C  
HETATM   26  C   UNL     1     -10.768   8.845  67.311  1.00  0.00    -0.219 C  
HETATM   27  C   UNL     1     -11.120   6.403  67.420  1.00  0.00    -0.412 C  
BRANCH  25  28
HETATM   28  C   UNL     1      -9.030   7.174  66.407  1.00  0.00    -0.178 A  
HETATM   29  C   UNL     1      -7.429   7.966  64.720  1.00  0.00    -0.095 A  
HETATM   30  C   UNL     1      -8.355   8.216  65.745  1.00  0.00    -0.140 A  
HETATM   31  F   UNL     1      -6.589   4.010  63.640  1.00  0.00    -0.033 F  
HETATM   32  C   UNL     1      -6.761   9.107  63.988  1.00  0.00    -0.089 C  
HETATM   33  F   UNL     1      -8.569   3.436  64.328  1.00  0.00    -0.092 F  
HETATM   34  C   UNL     1      -7.142   6.639  64.372  1.00  0.00    -0.057 A  
HETATM   35  F   UNL     1      -5.404   9.070  64.093  1.00  0.00    -0.055 F  
HETATM   36  F   UNL     1      -7.136  10.337  64.440  1.00  0.00    -0.135 F  
HETATM   37  F   UNL     1      -6.899   3.455  65.718  1.00  0.00    -0.047 F  
HETATM   38  C   UNL     1      -7.457   4.138  64.681  1.00  0.00    -0.072 C  
HETATM   39  C   UNL     1      -7.767   5.573  65.036  1.00  0.00    -0.093 A  
HETATM   40  F   UNL     1      -7.035   9.100  62.655  1.00  0.00    -0.096 F  
HETATM   41  C   UNL     1      -8.700   5.854  66.051  1.00  0.00    -0.148 A  
ENDBRANCH  25  28
ENDBRANCH   4  25
TORSDOF 5
ENDMDL
MODEL      135
REMARK 921   NORMALIZED FREE ENERGY PREDICTED BY IDOCK:   -4.34 KCAL/MOL
REMARK 922        TOTAL FREE ENERGY PREDICTED BY IDOCK:   -7.24 KCAL/MOL
REMARK 923 INTER-LIGAND FREE ENERGY PREDICTED BY IDOCK:   -8.08 KCAL/MOL
REMARK 924 INTRA-LIGAND FREE ENERGY PREDICTED BY IDOCK:    0.83 KCAL/MOL
REMARK 927      BINDING AFFINITY PREDICTED BY RF-SCORE:    0.00 PKD
ROOT
HETATM    1  C   UNL     1      -6.670  10.423  70.720  1.00  0.00     0.200 C  
HETATM    2  N   UNL     1      -7.535  10.186  69.553  1.00  0.00    -0.117 N  
HETATM    3  O   UNL     1      -7.339  12.380  69.042  1.00  0.00    -0.072 OA 
HETATM    4  C   UNL     1      -7.678  11.247  68.659  1.00  0.00    -0.136 C  
ENDROOT
BRANCH   2   5
HETATM    5  C   UNL     1      -7.733   8.824  69.252  1.00  0.00    -0.095 A  
HETATM    6  C   UNL     1      -8.776   6.692  69.244  1.00  0.00    -0.131 A  
HETATM    7  C   UNL     1      -6.757   8.223  68.440  1.00  0.00    -0.064 A  
HETATM    8  C   UNL     1      -8.805   8.038  69.712  1.00  0.00    -0.144 A  
HETATM    9  C   UNL     1      -7.837   6.196  68.328  1.00  0.00    -0.104 A  
HETATM   10  N   UNL     1      -6.801   6.965  67.967  1.00  0.00    -0.075 NA 
BRANCH   9  11
HETATM   11  N   UNL     1      -7.958   4.949  67.749  1.00  0.00    -0.094 NA 
HETATM   12  C   UNL     1      -7.381   3.767  68.414  1.00  0.00    -0.054 C  
HETATM   13  C   UNL     1      -7.438   3.935  65.530  1.00  0.00    -0.081 C  
HETATM   14  C   UNL     1      -6.457   2.948  67.478  1.00  0.00    -0.036 C  
HETATM   15  N   UNL     1      -6.990   2.662  66.127  1.00  0.00    -0.051 NA 
HETATM   16  C   UNL     1      -8.068   1.676  66.165  1.00  0.00    -0.080 C  
HETATM   17  C   UNL     1      -8.444   4.750  66.379  1.00  0.00    -0.110 C  
ENDBRANCH   9  11
BRANCH   8  18
HETATM   18  C   UNL     1     -10.022   8.481  70.516  1.00  0.00    -0.214 A  
HETATM   19  C   UNL     1     -11.912  10.111  70.617  1.00  0.00    -0.423 A  
HETATM   20  C   UNL     1     -12.369   9.562  71.796  1.00  0.00    -0.474 A  
HETATM   21  C   UNL     1     -10.758   9.596  70.013  1.00  0.00    -0.298 A  
HETATM   22  C   UNL     1     -11.681   8.490  72.343  1.00  0.00    -0.429 A  
HETATM   23  C   UNL     1     -10.542   7.920  71.710  1.00  0.00    -0.276 A  
HETATM   24  C   UNL     1      -9.985   6.729  72.431  1.00  0.00    -0.184 C  
ENDBRANCH   8  18
ENDBRANCH   2   5
BRANCH   4  25
HETATM   25  C   UNL     1      -8.173  11.107  67.164  1.00  0.00    -0.137 C  
HETATM   26  C   UNL     1      -9.210   9.956  67.246  1.00  0.00    -0.156 C  
HETATM   27  C   UNL     1      -7.203  10.736  66.037  1.00  0.00    -0.105 C  
BRANCH  25  28
HETATM   28  C   UNL     1      -8.823  12.444  66.707  1.00  0.00    -0.189 A  
HETATM   29  C   UNL     1      -8.747  14.896  66.579  1.00  0.00    -0.204 A  
HETATM   30  C   UNL     1      -8.191  13.671  66.979  1.00  0.00    -0.056 A  
HETATM   31  F   UNL     1     -12.354  14.910  64.454  1.00  0.00    -0.470 F  
HETATM   32  C   UNL     1      -8.076  16.202  66.934  1.00  0.00    -0.240 C  
HETATM   33  F   UNL     1     -12.879  13.023  65.398  1.00  0.00    -0.533 F  
HETATM   34  C   UNL     1      -9.949  14.893  65.856  1.00  0.00    -0.357 A  
HETATM   35  F   UNL     1      -7.750  16.937  65.835  1.00  0.00    -0.335 F  
HETATM   36  F   UNL     1      -6.916  16.045  67.634  1.00  0.00    -0.120 F  
HETATM   37  F   UNL     1     -11.740  13.032  63.547  1.00  0.00    -0.469 F  
HETATM   38  C   UNL     1     -11.875  13.668  64.743  1.00  0.00    -0.387 C  
HETATM   39  C   UNL     1     -10.587  13.687  65.534  1.00  0.00    -0.300 A  
HETATM   40  F   UNL     1      -8.867  17.003  67.700  1.00  0.00    -0.210 F  
HETATM   41  C   UNL     1     -10.013  12.475  65.958  1.00  0.00    -0.269 A  
ENDBRANCH  25  28
ENDBRANCH   4  25
TORSDOF 5
ENDMDL
MODEL      136
REMARK 921   NORMALIZED FREE ENERGY PREDICTED BY IDOCK:   -4.33 KCAL/MOL
REMARK 922        TOTAL FREE ENERGY PREDICTED BY IDOCK:   -7.24 KCAL/MOL
REMARK 923 INTER-LIGAND FREE ENERGY PREDICTED BY IDOCK:   -6.78 KCAL/MOL
REMARK 924 INTRA-LIGAND FREE ENERGY PREDICTED BY IDOCK:   -0.46 KCAL/MOL
REMARK 927      BINDING AFFINITY PREDICTED BY RF-SCORE:    0.00 PKD
ROOT
HETATM    1  C   UNL     1      -8.440  14.049  68.172  1.00  0.00    -0.172 C  
HETATM    2  N   UNL     1      -9.501  13.120  67.751  1.00  0.00    -0.201 N  
HETATM    3  O   UNL     1      -9.468  14.103  65.715  1.00  0.00    -0.181 OA 
HETATM    4  C   UNL     1      -9.839  13.133  66.398  1.00  0.00    -0.279 C  
ENDROOT
BRANCH   2   5
HETATM    5  C   UNL     1      -9.712  12.048  68.641  1.00  0.00    -0.096 A  
HETATM    6  C   UNL     1     -10.666  10.822  70.435  1.00  0.00     0.198 A  
HETATM    7  C   UNL     1      -8.901  10.918  68.450  1.00  0.00    -0.147 A  
HETATM    8  C   UNL     1     -10.643  12.040  69.696  1.00  0.00     0.406 A  
HETATM    9  C   UNL     1      -9.915   9.683  70.104  1.00  0.00    -0.261 A  
HETATM   10  N   UNL     1      -8.999   9.762  69.130  1.00  0.00    -0.151 NA 
BRANCH   9  11
HETATM   11  N   UNL     1     -10.110   8.465  70.722  1.00  0.00    -0.190 NA 
HETATM   12  C   UNL     1     -10.440   7.274  69.920  1.00  0.00    -0.225 C  
HETATM   13  C   UNL     1     -11.533   7.594  72.576  1.00  0.00    -0.352 C  
HETATM   14  C   UNL     1     -11.709   6.544  70.431  1.00  0.00    -0.375 C  
HETATM   15  N   UNL     1     -11.779   6.310  71.891  1.00  0.00    -0.321 NA 
HETATM   16  C   UNL     1     -10.836   5.280  72.322  1.00  0.00    -0.207 C  
HETATM   17  C   UNL     1     -10.226   8.320  72.178  1.00  0.00    -0.285 C  
ENDBRANCH   9  11
BRANCH   8  18
HETATM   18  C   UNL     1     -11.687  13.096  70.040  1.00  0.00    -0.291 A  
HETATM   19  C   UNL     1     -12.490  15.406  69.534  1.00  0.00    -0.110 A  
HETATM   20  C   UNL     1     -13.505  15.295  70.461  1.00  0.00    -0.128 A  
HETATM   21  C   UNL     1     -11.596  14.343  69.352  1.00  0.00    -0.349 A  
HETATM   22  C   UNL     1     -13.628  14.113  71.175  1.00  0.00    -0.254 A  
HETATM   23  C   UNL     1     -12.764  13.004  70.959  1.00  0.00    -0.347 A  
HETATM   24  C   UNL     1     -13.107  11.802  71.787  1.00  0.00    -0.480 C  
ENDBRANCH   8  18
ENDBRANCH   2   5
BRANCH   4  25
HETATM   25  C   UNL     1     -10.601  11.968  65.646  1.00  0.00    -0.303 C  
HETATM   26  C   UNL     1     -10.986  12.621  64.292  1.00  0.00    -0.404 C  
HETATM   27  C   UNL     1     -11.889  11.363  66.216  1.00  0.00     0.546 C  
BRANCH  25  28
HETATM   28  C   UNL     1      -9.642  10.760  65.458  1.00  0.00    -0.269 A  
HETATM   29  C   UNL     1      -9.181   8.362  65.734  1.00  0.00    -0.175 A  
HETATM   30  C   UNL     1     -10.021   9.476  65.891  1.00  0.00    -0.342 A  
HETATM   31  F   UNL     1      -5.467   8.846  63.864  1.00  0.00    -0.058 F  
HETATM   32  C   UNL     1      -9.591   7.006  66.258  1.00  0.00    -0.031 C  
HETATM   33  F   UNL     1      -5.448  10.921  64.513  1.00  0.00    -0.148 F  
HETATM   34  C   UNL     1      -7.944   8.528  65.095  1.00  0.00    -0.130 A  
HETATM   35  F   UNL     1      -9.646   6.062  65.278  1.00  0.00     0.094 F  
HETATM   36  F   UNL     1     -10.820   6.999  66.850  1.00  0.00    -0.364 F  
HETATM   37  F   UNL     1      -6.376  10.382  62.623  1.00  0.00    -0.120 F  
HETATM   38  C   UNL     1      -6.225   9.977  63.914  1.00  0.00    -0.132 C  
HETATM   39  C   UNL     1      -7.549   9.785  64.616  1.00  0.00    -0.134 A  
HETATM   40  F   UNL     1      -8.725   6.526  67.193  1.00  0.00    -0.111 F  
HETATM   41  C   UNL     1      -8.406  10.886  64.799  1.00  0.00     0.094 A  
ENDBRANCH  25  28
ENDBRANCH   4  25
TORSDOF 5
ENDMDL
MODEL      137
REMARK 921   NORMALIZED FREE ENERGY PREDICTED BY IDOCK:   -4.33 KCAL/MOL
REMARK 922        TOTAL FREE ENERGY PREDICTED BY IDOCK:   -7.23 KCAL/MOL
REMARK 923 INTER-LIGAND FREE ENERGY PREDICTED BY IDOCK:   -5.84 KCAL/MOL
REMARK 924 INTRA-LIGAND FREE ENERGY PREDICTED BY IDOCK:   -1.39 KCAL/MOL
REMARK 927      BINDING AFFINITY PREDICTED BY RF-SCORE:    0.00 PKD
ROOT
HETATM    1  C   UNL     1     -11.356  11.560  69.155  1.00  0.00    -0.286 C  
HETATM    2  N   UNL     1     -10.236  11.073  68.333  1.00  0.00    -0.177 N  
HETATM    3  O   UNL     1      -9.138  12.993  68.804  1.00  0.00    -0.005 OA 
HETATM    4  C   UNL     1      -9.068  11.834  68.360  1.00  0.00    -0.176 C  
ENDROOT
BRANCH   2   5
HETATM    5  C   UNL     1     -10.321   9.707  67.997  1.00  0.00    -0.218 A  
HETATM    6  C   UNL     1     -10.347   7.765  66.634  1.00  0.00    -0.262 A  
HETATM    7  C   UNL     1     -10.512   8.819  69.069  1.00  0.00    -0.203 A  
HETATM    8  C   UNL     1     -10.250   9.185  66.693  1.00  0.00    -0.328 A  
HETATM    9  C   UNL     1     -10.405   6.931  67.761  1.00  0.00    -0.203 A  
HETATM   10  N   UNL     1     -10.533   7.477  68.977  1.00  0.00    -0.212 NA 
BRANCH   9  11
HETATM   11  N   UNL     1     -10.299   5.558  67.669  1.00  0.00    -0.203 NA 
HETATM   12  C   UNL     1      -9.932   4.764  68.856  1.00  0.00    -0.126 C  
HETATM   13  C   UNL     1      -9.069   3.939  66.224  1.00  0.00    -0.148 C  
HETATM   14  C   UNL     1      -8.735   3.817  68.592  1.00  0.00    -0.101 C  
HETATM   15  N   UNL     1      -8.799   3.019  67.346  1.00  0.00    -0.126 NA 
HETATM   16  C   UNL     1      -9.805   1.962  67.430  1.00  0.00     0.615 C  
HETATM   17  C   UNL     1     -10.316   4.841  66.389  1.00  0.00    -0.273 C  
ENDBRANCH   9  11
BRANCH   8  18
HETATM   18  C   UNL     1      -9.956   9.929  65.395  1.00  0.00    -0.349 A  
HETATM   19  C   UNL     1      -8.621   9.891  63.284  1.00  0.00    -0.204 A  
HETATM   20  C   UNL     1      -9.179  11.082  62.869  1.00  0.00    -0.362 A  
HETATM   21  C   UNL     1      -8.986   9.350  64.523  1.00  0.00    -0.227 A  
HETATM   22  C   UNL     1     -10.112  11.701  63.685  1.00  0.00    -0.435 A  
HETATM   23  C   UNL     1     -10.535  11.132  64.918  1.00  0.00    -0.372 A  
HETATM   24  C   UNL     1     -11.598  11.928  65.616  1.00  0.00    -0.275 C  
ENDBRANCH   8  18
ENDBRANCH   2   5
BRANCH   4  25
HETATM   25  C   UNL     1      -7.639  11.308  67.932  1.00  0.00    -0.100 C  
HETATM   26  C   UNL     1      -6.679  12.335  68.591  1.00  0.00    -0.083 C  
HETATM   27  C   UNL     1      -7.232  11.222  66.457  1.00  0.00    -0.096 C  
BRANCH  25  28
HETATM   28  C   UNL     1      -7.427   9.873  68.490  1.00  0.00    -0.082 A  
HETATM   29  C   UNL     1      -7.563   8.291  70.365  1.00  0.00    -0.075 A  
HETATM   30  C   UNL     1      -7.738   9.576  69.829  1.00  0.00    -0.123 A  
HETATM   31  F   UNL     1      -6.139   5.223  67.897  1.00  0.00    -0.019 F  
HETATM   32  C   UNL     1      -7.852   8.015  71.822  1.00  0.00    -0.110 C  
HETATM   33  F   UNL     1      -5.136   6.716  66.677  1.00  0.00    -0.010 F  
HETATM   34  C   UNL     1      -7.098   7.265  69.530  1.00  0.00    -0.074 A  
HETATM   35  F   UNL     1      -8.802   7.055  71.992  1.00  0.00    -0.127 F  
HETATM   36  F   UNL     1      -8.300   9.107  72.504  1.00  0.00     0.015 F  
HETATM   37  F   UNL     1      -7.193   6.164  66.245  1.00  0.00    -0.065 F  
HETATM   38  C   UNL     1      -6.326   6.414  67.265  1.00  0.00    -0.037 C  
HETATM   39  C   UNL     1      -6.814   7.513  68.180  1.00  0.00    -0.063 A  
HETATM   40  F   UNL     1      -6.753   7.579  72.497  1.00  0.00    -0.057 F  
HETATM   41  C   UNL     1      -6.988   8.815  67.673  1.00  0.00    -0.075 A  
ENDBRANCH  25  28
ENDBRANCH   4  25
TORSDOF 5
ENDMDL
MODEL      138
REMARK 921   NORMALIZED FREE ENERGY PREDICTED BY IDOCK:   -4.29 KCAL/MOL
REMARK 922        TOTAL FREE ENERGY PREDICTED BY IDOCK:   -7.18 KCAL/MOL
REMARK 923 INTER-LIGAND FREE ENERGY PREDICTED BY IDOCK:   -6.56 KCAL/MOL
REMARK 924 INTRA-LIGAND FREE ENERGY PREDICTED BY IDOCK:   -0.62 KCAL/MOL
REMARK 927      BINDING AFFINITY PREDICTED BY RF-SCORE:    0.00 PKD
ROOT
HETATM    1  C   UNL     1      -6.841  10.951  66.711  1.00  0.00    -0.121 C  
HETATM    2  N   UNL     1      -7.821  10.244  67.553  1.00  0.00    -0.102 N  
HETATM    3  O   UNL     1      -8.192  12.189  68.644  1.00  0.00    -0.124 OA 
HETATM    4  C   UNL     1      -8.583  11.032  68.415  1.00  0.00    -0.149 C  
ENDROOT
BRANCH   2   5
HETATM    5  C   UNL     1      -8.179   8.970  67.070  1.00  0.00    -0.109 A  
HETATM    6  C   UNL     1      -9.061   7.334  65.594  1.00  0.00     0.084 A  
HETATM    7  C   UNL     1      -7.866   7.884  67.904  1.00  0.00    -0.127 A  
HETATM    8  C   UNL     1      -8.830   8.717  65.849  1.00  0.00    -0.221 A  
HETATM    9  C   UNL     1      -8.602   6.293  66.416  1.00  0.00    -0.133 A  
HETATM   10  N   UNL     1      -8.043   6.587  67.597  1.00  0.00    -0.117 NA 
BRANCH   9  11
HETATM   11  N   UNL     1      -8.673   4.968  66.037  1.00  0.00    -0.123 NA 
HETATM   12  C   UNL     1      -7.470   4.276  65.541  1.00  0.00    -0.081 C  
HETATM   13  C   UNL     1     -10.076   3.611  64.484  1.00  0.00    -0.186 C  
HETATM   14  C   UNL     1      -7.702   3.583  64.174  1.00  0.00    -0.077 C  
HETATM   15  N   UNL     1      -8.937   2.776  64.056  1.00  0.00    -0.101 NA 
HETATM   16  C   UNL     1      -8.854   1.540  64.833  1.00  0.00    -0.114 C  
HETATM   17  C   UNL     1      -9.943   4.248  65.888  1.00  0.00    -0.219 C  
ENDBRANCH   9  11
BRANCH   8  18
HETATM   18  C   UNL     1      -9.183   9.708  64.745  1.00  0.00    -0.298 A  
HETATM   19  C   UNL     1     -10.837  11.426  64.005  1.00  0.00    -0.450 A  
HETATM   20  C   UNL     1     -10.128  11.660  62.845  1.00  0.00    -0.175 A  
HETATM   21  C   UNL     1     -10.384  10.459  64.912  1.00  0.00    -0.238 A  
HETATM   22  C   UNL     1      -8.963  10.943  62.620  1.00  0.00    -0.348 A  
HETATM   23  C   UNL     1      -8.461  10.001  63.560  1.00  0.00    -0.187 A  
HETATM   24  C   UNL     1      -7.156   9.382  63.155  1.00  0.00    -0.097 C  
ENDBRANCH   8  18
ENDBRANCH   2   5
BRANCH   4  25
HETATM   25  C   UNL     1      -9.951  10.588  69.072  1.00  0.00    -0.223 C  
HETATM   26  C   UNL     1     -10.820  10.207  67.844  1.00  0.00    -0.336 C  
HETATM   27  C   UNL     1     -10.786  11.565  69.906  1.00  0.00     0.177 C  
BRANCH  25  28
HETATM   28  C   UNL     1      -9.705   9.372  70.010  1.00  0.00    -0.255 A  
HETATM   29  C   UNL     1     -10.403   7.169  70.845  1.00  0.00    -0.214 A  
HETATM   30  C   UNL     1     -10.596   8.284  70.014  1.00  0.00    -0.235 A  
HETATM   31  F   UNL     1      -7.043   7.035  73.339  1.00  0.00    -0.073 F  
HETATM   32  C   UNL     1     -11.406   6.041  70.869  1.00  0.00    -0.229 C  
HETATM   33  F   UNL     1      -7.016   9.209  73.363  1.00  0.00     0.080 F  
HETATM   34  C   UNL     1      -9.268   7.125  71.668  1.00  0.00    -0.149 A  
HETATM   35  F   UNL     1     -10.853   4.844  70.530  1.00  0.00    -0.229 F  
HETATM   36  F   UNL     1     -12.452   6.223  70.013  1.00  0.00    -0.159 F  
HETATM   37  F   UNL     1      -5.954   8.126  71.806  1.00  0.00    -0.035 F  
HETATM   38  C   UNL     1      -7.104   8.133  72.535  1.00  0.00    -0.099 C  
HETATM   39  C   UNL     1      -8.338   8.174  71.663  1.00  0.00    -0.165 A  
HETATM   40  F   UNL     1     -11.959   5.863  72.100  1.00  0.00    -0.354 F  
HETATM   41  C   UNL     1      -8.564   9.284  70.829  1.00  0.00    -0.254 A  
ENDBRANCH  25  28
ENDBRANCH   4  25
TORSDOF 5
ENDMDL
MODEL      139
REMARK 921   NORMALIZED FREE ENERGY PREDICTED BY IDOCK:   -4.26 KCAL/MOL
REMARK 922        TOTAL FREE ENERGY PREDICTED BY IDOCK:   -7.15 KCAL/MOL
REMARK 923 INTER-LIGAND FREE ENERGY PREDICTED BY IDOCK:   -7.70 KCAL/MOL
REMARK 924 INTRA-LIGAND FREE ENERGY PREDICTED BY IDOCK:    0.55 KCAL/MOL
REMARK 927      BINDING AFFINITY PREDICTED BY RF-SCORE:    0.00 PKD
ROOT
HETATM    1  C   UNL     1     -10.223  11.772  64.932  1.00  0.00    -0.273 C  
HETATM    2  N   UNL     1     -10.301  11.933  66.393  1.00  0.00    -0.214 N  
HETATM    3  O   UNL     1     -11.155   9.842  66.515  1.00  0.00     0.116 OA 
HETATM    4  C   UNL     1     -10.647  10.798  67.126  1.00  0.00    -0.256 C  
ENDROOT
BRANCH   2   5
HETATM    5  C   UNL     1      -9.595  13.047  66.887  1.00  0.00    -0.243 A  
HETATM    6  C   UNL     1      -7.750  14.338  67.635  1.00  0.00    -0.190 A  
HETATM    7  C   UNL     1     -10.357  14.200  67.137  1.00  0.00    -0.265 A  
HETATM    8  C   UNL     1      -8.215  13.079  67.159  1.00  0.00    -0.132 A  
HETATM    9  C   UNL     1      -8.548  15.488  67.737  1.00  0.00    -0.152 A  
HETATM   10  N   UNL     1      -9.868  15.391  67.525  1.00  0.00    -0.217 NA 
BRANCH   9  11
HETATM   11  N   UNL     1      -8.020  16.732  68.013  1.00  0.00    -0.174 NA 
HETATM   12  C   UNL     1      -8.862  17.772  68.630  1.00  0.00    -0.261 C  
HETATM   13  C   UNL     1      -6.803  18.496  66.735  1.00  0.00    -0.191 C  
HETATM   14  C   UNL     1      -8.839  19.105  67.838  1.00  0.00    -0.304 C  
HETATM   15  N   UNL     1      -7.504  19.594  67.429  1.00  0.00    -0.246 NA 
HETATM   16  C   UNL     1      -6.734  20.089  68.568  1.00  0.00    -0.307 C  
HETATM   17  C   UNL     1      -6.707  17.167  67.523  1.00  0.00    -0.138 C  
ENDBRANCH   9  11
BRANCH   8  18
HETATM   18  C   UNL     1      -7.175  11.999  66.884  1.00  0.00    -0.040 A  
HETATM   19  C   UNL     1      -6.423  10.265  65.251  1.00  0.00    -0.122 A  
HETATM   20  C   UNL     1      -5.375   9.898  66.069  1.00  0.00    -0.044 A  
HETATM   21  C   UNL     1      -7.307  11.269  65.665  1.00  0.00     0.383 A  
HETATM   22  C   UNL     1      -5.210  10.558  67.277  1.00  0.00    -0.040 A  
HETATM   23  C   UNL     1      -6.065  11.620  67.682  1.00  0.00    -0.068 A  
HETATM   24  C   UNL     1      -5.676  12.242  68.990  1.00  0.00    -0.066 C  
ENDBRANCH   8  18
ENDBRANCH   2   5
BRANCH   4  25
HETATM   25  C   UNL     1     -10.377  10.605  68.673  1.00  0.00    -0.202 C  
HETATM   26  C   UNL     1     -11.424  11.543  69.330  1.00  0.00    -0.370 C  
HETATM   27  C   UNL     1      -9.023  10.966  69.294  1.00  0.00     0.012 C  
BRANCH  25  28
HETATM   28  C   UNL     1     -10.608   9.116  69.056  1.00  0.00    -0.219 A  
HETATM   29  C   UNL     1     -11.401   7.449  70.677  1.00  0.00    -0.304 A  
HETATM   30  C   UNL     1     -11.175   8.781  70.299  1.00  0.00    -0.212 A  
HETATM   31  F   UNL     1     -10.426   4.373  68.009  1.00  0.00    -0.038 F  
HETATM   32  C   UNL     1     -11.959   7.116  72.041  1.00  0.00    -0.295 C  
HETATM   33  F   UNL     1      -8.920   5.665  67.122  1.00  0.00    -0.116 F  
HETATM   34  C   UNL     1     -11.084   6.424  69.774  1.00  0.00    -0.459 A  
HETATM   35  F   UNL     1     -13.130   6.425  71.971  1.00  0.00    -0.361 F  
HETATM   36  F   UNL     1     -12.221   8.215  72.805  1.00  0.00    -0.394 F  
HETATM   37  F   UNL     1     -10.964   5.713  66.384  1.00  0.00    -0.330 F  
HETATM   38  C   UNL     1     -10.221   5.628  67.522  1.00  0.00    -0.202 C  
HETATM   39  C   UNL     1     -10.553   6.721  68.511  1.00  0.00    -0.265 A  
HETATM   40  F   UNL     1     -11.112   6.345  72.776  1.00  0.00    -0.245 F  
HETATM   41  C   UNL     1     -10.326   8.066  68.164  1.00  0.00    -0.250 A  
ENDBRANCH  25  28
ENDBRANCH   4  25
TORSDOF 5
ENDMDL
MODEL      140
REMARK 921   NORMALIZED FREE ENERGY PREDICTED BY IDOCK:   -4.23 KCAL/MOL
REMARK 922        TOTAL FREE ENERGY PREDICTED BY IDOCK:   -7.10 KCAL/MOL
REMARK 923 INTER-LIGAND FREE ENERGY PREDICTED BY IDOCK:   -5.36 KCAL/MOL
REMARK 924 INTRA-LIGAND FREE ENERGY PREDICTED BY IDOCK:   -1.74 KCAL/MOL
REMARK 927      BINDING AFFINITY PREDICTED BY RF-SCORE:    0.00 PKD
ROOT
HETATM    1  C   UNL     1     -11.180   6.325  68.097  1.00  0.00    -0.133 C  
HETATM    2  N   UNL     1     -10.222   7.155  68.845  1.00  0.00    -0.181 N  
HETATM    3  O   UNL     1      -8.551   6.129  67.719  1.00  0.00    -0.115 OA 
HETATM    4  C   UNL     1      -8.889   7.082  68.443  1.00  0.00    -0.123 C  
ENDROOT
BRANCH   2   5
HETATM    5  C   UNL     1     -10.813   8.227  69.543  1.00  0.00    -0.116 A  
HETATM    6  C   UNL     1     -11.755   9.427  71.361  1.00  0.00    -0.448 A  
HETATM    7  C   UNL     1     -11.045   9.395  68.799  1.00  0.00     0.051 A  
HETATM    8  C   UNL     1     -11.194   8.202  70.897  1.00  0.00    -0.286 A  
HETATM    9  C   UNL     1     -11.837  10.598  70.592  1.00  0.00    -0.363 A  
HETATM   10  N   UNL     1     -11.518  10.554  69.292  1.00  0.00    -0.261 NA 
BRANCH   9  11
HETATM   11  N   UNL     1     -12.202  11.814  71.134  1.00  0.00    -0.213 NA 
HETATM   12  C   UNL     1     -13.012  11.860  72.364  1.00  0.00     0.424 C  
HETATM   13  C   UNL     1     -13.343  13.878  70.321  1.00  0.00     0.584 C  
HETATM   14  C   UNL     1     -14.277  12.743  72.212  1.00  0.00     0.146 C  
HETATM   15  N   UNL     1     -14.072  14.071  71.590  1.00  0.00    -0.334 NA 
HETATM   16  C   UNL     1     -13.364  14.985  72.484  1.00  0.00    -0.424 C  
HETATM   17  C   UNL     1     -12.016  13.088  70.431  1.00  0.00    -0.258 C  
ENDBRANCH   9  11
BRANCH   8  18
HETATM   18  C   UNL     1     -10.962   7.098  71.922  1.00  0.00    -0.262 A  
HETATM   19  C   UNL     1     -11.694   4.832  72.676  1.00  0.00     0.095 A  
HETATM   20  C   UNL     1     -10.775   4.839  73.704  1.00  0.00    -0.350 A  
HETATM   21  C   UNL     1     -11.796   5.944  71.830  1.00  0.00    -0.084 A  
HETATM   22  C   UNL     1      -9.953   5.944  73.856  1.00  0.00    -0.212 A  
HETATM   23  C   UNL     1     -10.005   7.054  72.968  1.00  0.00    -0.227 A  
HETATM   24  C   UNL     1      -8.988   8.115  73.269  1.00  0.00    -0.332 C  
ENDBRANCH   8  18
ENDBRANCH   2   5
BRANCH   4  25
HETATM   25  C   UNL     1      -7.783   8.162  68.779  1.00  0.00    -0.107 C  
HETATM   26  C   UNL     1      -6.462   7.435  68.414  1.00  0.00    -0.045 C  
HETATM   27  C   UNL     1      -7.602   8.698  70.203  1.00  0.00    -0.069 C  
BRANCH  25  28
HETATM   28  C   UNL     1      -8.013   9.426  67.903  1.00  0.00    -0.092 A  
HETATM   29  C   UNL     1      -8.450  10.422  65.700  1.00  0.00    -0.169 A  
HETATM   30  C   UNL     1      -8.236   9.303  66.520  1.00  0.00    -0.107 A  
HETATM   31  F   UNL     1      -8.494  14.239  67.419  1.00  0.00    -0.156 F  
HETATM   32  C   UNL     1      -8.632  10.264  64.209  1.00  0.00    -0.192 C  
HETATM   33  F   UNL     1      -7.198  13.505  69.002  1.00  0.00    -0.104 F  
HETATM   34  C   UNL     1      -8.477  11.697  66.284  1.00  0.00    -0.066 A  
HETATM   35  F   UNL     1      -9.826  10.753  63.774  1.00  0.00    -0.267 F  
HETATM   36  F   UNL     1      -8.586   8.967  63.789  1.00  0.00    -0.183 F  
HETATM   37  F   UNL     1      -9.356  13.345  69.203  1.00  0.00     0.066 F  
HETATM   38  C   UNL     1      -8.335  13.222  68.310  1.00  0.00    -0.154 C  
HETATM   39  C   UNL     1      -8.295  11.856  67.665  1.00  0.00    -0.152 A  
HETATM   40  F   UNL     1      -7.676  10.920  63.496  1.00  0.00    -0.017 F  
HETATM   41  C   UNL     1      -8.071  10.717  68.461  1.00  0.00    -0.125 A  
ENDBRANCH  25  28
ENDBRANCH   4  25
TORSDOF 5
ENDMDL
MODEL      141
REMARK 921   NORMALIZED FREE ENERGY PREDICTED BY IDOCK:   -4.22 KCAL/MOL
REMARK 922        TOTAL FREE ENERGY PREDICTED BY IDOCK:   -7.10 KCAL/MOL
REMARK 923 INTER-LIGAND FREE ENERGY PREDICTED BY IDOCK:   -6.70 KCAL/MOL
REMARK 924 INTRA-LIGAND FREE ENERGY PREDICTED BY IDOCK:   -0.40 KCAL/MOL
REMARK 927      BINDING AFFINITY PREDICTED BY RF-SCORE:    0.00 PKD
ROOT
HETATM    1  C   UNL     1      -6.775  10.214  67.354  1.00  0.00    -0.073 C  
HETATM    2  N   UNL     1      -8.171   9.750  67.361  1.00  0.00    -0.114 N  
HETATM    3  O   UNL     1      -7.409   7.650  67.011  1.00  0.00    -0.086 OA 
HETATM    4  C   UNL     1      -8.368   8.370  67.339  1.00  0.00    -0.124 C  
ENDROOT
BRANCH   2   5
HETATM    5  C   UNL     1      -9.092  10.705  67.837  1.00  0.00    -0.145 A  
HETATM    6  C   UNL     1     -10.756  12.395  67.767  1.00  0.00    -0.247 A  
HETATM    7  C   UNL     1      -9.176  10.839  69.233  1.00  0.00    -0.049 A  
HETATM    8  C   UNL     1      -9.899  11.527  67.030  1.00  0.00    -0.212 A  
HETATM    9  C   UNL     1     -10.880  12.382  69.165  1.00  0.00    -0.097 A  
HETATM   10  N   UNL     1     -10.046  11.625  69.891  1.00  0.00     0.987 NA 
BRANCH   9  11
HETATM   11  N   UNL     1     -11.859  13.095  69.827  1.00  0.00    -0.321 NA 
HETATM   12  C   UNL     1     -12.039  14.532  69.551  1.00  0.00    -0.306 C  
HETATM   13  C   UNL     1     -12.507  13.484  72.204  1.00  0.00     0.114 C  
HETATM   14  C   UNL     1     -12.024  15.392  70.840  1.00  0.00    -0.359 C  
HETATM   15  N   UNL     1     -12.855  14.898  71.961  1.00  0.00    -0.309 NA 
HETATM   16  C   UNL     1     -14.282  15.063  71.693  1.00  0.00    -0.555 C  
HETATM   17  C   UNL     1     -12.603  12.555  70.969  1.00  0.00    -0.256 C  
ENDBRANCH   9  11
BRANCH   8  18
HETATM   18  C   UNL     1     -10.053  11.502  65.514  1.00  0.00    -0.286 A  
HETATM   19  C   UNL     1      -9.480  10.249  63.430  1.00  0.00    -0.340 A  
HETATM   20  C   UNL     1     -10.155  11.166  62.652  1.00  0.00    -0.013 A  
HETATM   21  C   UNL     1      -9.415  10.432  64.818  1.00  0.00    -0.329 A  
HETATM   22  C   UNL     1     -10.776  12.238  63.273  1.00  0.00    -0.335 A  
HETATM   23  C   UNL     1     -10.768  12.404  64.685  1.00  0.00    -0.339 A  
HETATM   24  C   UNL     1     -11.552  13.591  65.158  1.00  0.00    -0.333 C  
ENDBRANCH   8  18
ENDBRANCH   2   5
BRANCH   4  25
HETATM   25  C   UNL     1      -9.704   7.641  67.771  1.00  0.00    -0.180 C  
HETATM   26  C   UNL     1      -9.936   6.627  66.619  1.00  0.00    -0.203 C  
HETATM   27  C   UNL     1     -11.016   8.417  67.935  1.00  0.00     0.108 C  
BRANCH  25  28
HETATM   28  C   UNL     1      -9.488   6.931  69.137  1.00  0.00    -0.142 A  
HETATM   29  C   UNL     1      -9.254   4.852  70.426  1.00  0.00    -0.189 A  
HETATM   30  C   UNL     1      -9.450   5.526  69.210  1.00  0.00    -0.171 A  
HETATM   31  F   UNL     1      -8.692   7.072  73.930  1.00  0.00    -0.141 F  
HETATM   32  C   UNL     1      -9.275   3.342  70.483  1.00  0.00    -0.141 C  
HETATM   33  F   UNL     1      -9.832   8.697  73.044  1.00  0.00    -0.291 F  
HETATM   34  C   UNL     1      -9.053   5.601  71.594  1.00  0.00    -0.150 A  
HETATM   35  F   UNL     1      -8.110   2.823  70.960  1.00  0.00    -0.051 F  
HETATM   36  F   UNL     1      -9.475   2.753  69.270  1.00  0.00    -0.196 F  
HETATM   37  F   UNL     1      -7.685   8.577  72.727  1.00  0.00    -0.167 F  
HETATM   38  C   UNL     1      -8.817   7.823  72.801  1.00  0.00    -0.173 C  
HETATM   39  C   UNL     1      -9.046   7.003  71.553  1.00  0.00    -0.139 A  
HETATM   40  F   UNL     1     -10.258   2.866  71.295  1.00  0.00    -0.188 F  
HETATM   41  C   UNL     1      -9.257   7.652  70.322  1.00  0.00    -0.157 A  
ENDBRANCH  25  28
ENDBRANCH   4  25
TORSDOF 5
ENDMDL
MODEL      142
REMARK 921   NORMALIZED FREE ENERGY PREDICTED BY IDOCK:   -4.15 KCAL/MOL
REMARK 922        TOTAL FREE ENERGY PREDICTED BY IDOCK:   -7.01 KCAL/MOL
REMARK 923 INTER-LIGAND FREE ENERGY PREDICTED BY IDOCK:   -6.44 KCAL/MOL
REMARK 924 INTRA-LIGAND FREE ENERGY PREDICTED BY IDOCK:   -0.57 KCAL/MOL
REMARK 927      BINDING AFFINITY PREDICTED BY RF-SCORE:    0.00 PKD
ROOT
HETATM    1  C   UNL     1     -11.123  10.830  65.226  1.00  0.00     0.259 C  
HETATM    2  N   UNL     1      -9.956  10.777  66.122  1.00  0.00    -0.223 N  
HETATM    3  O   UNL     1      -9.551  12.944  65.619  1.00  0.00    -0.162 OA 
HETATM    4  C   UNL     1      -9.311  11.987  66.375  1.00  0.00    -0.228 C  
ENDROOT
BRANCH   2   5
HETATM    5  C   UNL     1      -9.916   9.636  66.947  1.00  0.00    -0.212 A  
HETATM    6  C   UNL     1      -9.158   7.557  67.807  1.00  0.00    -0.130 A  
HETATM    7  C   UNL     1     -10.906   9.555  67.939  1.00  0.00    -0.180 A  
HETATM    8  C   UNL     1      -8.986   8.586  66.835  1.00  0.00    -0.166 A  
HETATM    9  C   UNL     1     -10.092   7.609  68.853  1.00  0.00    -0.197 A  
HETATM   10  N   UNL     1     -10.994   8.598  68.879  1.00  0.00     0.024 NA 
BRANCH   9  11
HETATM   11  N   UNL     1     -10.095   6.692  69.885  1.00  0.00    -0.174 NA 
HETATM   12  C   UNL     1     -11.327   6.457  70.659  1.00  0.00    -0.357 C  
HETATM   13  C   UNL     1      -8.742   6.291  71.941  1.00  0.00    -0.136 C  
HETATM   14  C   UNL     1     -11.105   6.592  72.187  1.00  0.00    -0.260 C  
HETATM   15  N   UNL     1      -9.921   5.893  72.736  1.00  0.00    -0.177 NA 
HETATM   16  C   UNL     1     -10.101   4.443  72.743  1.00  0.00    -0.168 C  
HETATM   17  C   UNL     1      -8.870   6.082  70.413  1.00  0.00    -0.148 C  
ENDBRANCH   9  11
BRANCH   8  18
HETATM   18  C   UNL     1      -7.776   8.491  65.912  1.00  0.00    -0.097 A  
HETATM   19  C   UNL     1      -5.409   7.716  65.731  1.00  0.00    -0.029 A  
HETATM   20  C   UNL     1      -5.325   8.164  64.429  1.00  0.00    -0.037 A  
HETATM   21  C   UNL     1      -6.595   7.901  66.453  1.00  0.00    -0.050 A  
HETATM   22  C   UNL     1      -6.436   8.765  63.859  1.00  0.00    -0.076 A  
HETATM   23  C   UNL     1      -7.665   8.906  64.561  1.00  0.00    -0.119 A  
HETATM   24  C   UNL     1      -8.759   9.524  63.742  1.00  0.00    -0.237 C  
ENDBRANCH   8  18
ENDBRANCH   2   5
BRANCH   4  25
HETATM   25  C   UNL     1      -8.347  12.258  67.600  1.00  0.00    -0.166 C  
HETATM   26  C   UNL     1      -6.941  11.978  67.006  1.00  0.00    -0.095 C  
HETATM   27  C   UNL     1      -8.445  11.431  68.887  1.00  0.00    -0.028 C  
BRANCH  25  28
HETATM   28  C   UNL     1      -8.500  13.734  68.062  1.00  0.00    -0.176 A  
HETATM   29  C   UNL     1      -9.912  15.534  68.959  1.00  0.00    -0.233 A  
HETATM   30  C   UNL     1      -9.739  14.209  68.531  1.00  0.00    -0.219 A  
HETATM   31  F   UNL     1      -6.640  18.145  68.909  1.00  0.00    -0.205 F  
HETATM   32  C   UNL     1     -11.267  16.031  69.405  1.00  0.00    -0.349 C  
HETATM   33  F   UNL     1      -5.769  16.969  67.301  1.00  0.00    -0.120 F  
HETATM   34  C   UNL     1      -8.809  16.400  68.952  1.00  0.00    -0.256 A  
HETATM   35  F   UNL     1     -11.258  16.493  70.685  1.00  0.00    -0.379 F  
HETATM   36  F   UNL     1     -12.239  15.075  69.361  1.00  0.00    -0.318 F  
HETATM   37  F   UNL     1      -5.369  16.442  69.371  1.00  0.00    -0.120 F  
HETATM   38  C   UNL     1      -6.350  16.870  68.528  1.00  0.00    -0.152 C  
HETATM   39  C   UNL     1      -7.550  15.952  68.528  1.00  0.00    -0.145 A  
HETATM   40  F   UNL     1     -11.722  17.060  68.638  1.00  0.00    -0.070 F  
HETATM   41  C   UNL     1      -7.409  14.621  68.093  1.00  0.00    -0.127 A  
ENDBRANCH  25  28
ENDBRANCH   4  25
TORSDOF 5
ENDMDL
MODEL      143
REMARK 921   NORMALIZED FREE ENERGY PREDICTED BY IDOCK:   -4.09 KCAL/MOL
REMARK 922        TOTAL FREE ENERGY PREDICTED BY IDOCK:   -6.92 KCAL/MOL
REMARK 923 INTER-LIGAND FREE ENERGY PREDICTED BY IDOCK:   -7.36 KCAL/MOL
REMARK 924 INTRA-LIGAND FREE ENERGY PREDICTED BY IDOCK:    0.44 KCAL/MOL
REMARK 927      BINDING AFFINITY PREDICTED BY RF-SCORE:    0.00 PKD
ROOT
HETATM    1  C   UNL     1      -8.556  13.095  67.301  1.00  0.00    -0.210 C  
HETATM    2  N   UNL     1      -9.114  11.883  67.922  1.00  0.00    -0.176 N  
HETATM    3  O   UNL     1     -10.123  13.207  69.452  1.00  0.00     0.346 OA 
HETATM    4  C   UNL     1     -10.050  12.078  68.937  1.00  0.00    -0.015 C  
ENDROOT
BRANCH   2   5
HETATM    5  C   UNL     1      -8.986  10.723  67.134  1.00  0.00    -0.141 A  
HETATM    6  C   UNL     1      -9.340   9.235  65.318  1.00  0.00    -0.269 A  
HETATM    7  C   UNL     1      -8.120   9.733  67.627  1.00  0.00    -0.113 A  
HETATM    8  C   UNL     1      -9.664  10.484  65.924  1.00  0.00    -0.270 A  
HETATM    9  C   UNL     1      -8.364   8.352  65.805  1.00  0.00    -0.146 A  
HETATM   10  N   UNL     1      -7.791   8.595  66.991  1.00  0.00    -0.095 NA 
BRANCH   9  11
HETATM   11  N   UNL     1      -7.940   7.252  65.087  1.00  0.00    -0.123 NA 
HETATM   12  C   UNL     1      -7.644   7.377  63.649  1.00  0.00    -0.121 C  
HETATM   13  C   UNL     1      -8.762   4.928  64.701  1.00  0.00    -0.152 C  
HETATM   14  C   UNL     1      -8.396   6.327  62.792  1.00  0.00     0.025 C  
HETATM   15  N   UNL     1      -8.348   4.932  63.285  1.00  0.00    -0.109 NA 
HETATM   16  C   UNL     1      -7.023   4.340  63.110  1.00  0.00    -0.043 C  
HETATM   17  C   UNL     1      -7.975   5.888  65.626  1.00  0.00    -0.118 C  
ENDBRANCH   9  11
BRANCH   8  18
HETATM   18  C   UNL     1     -10.571  11.432  65.148  1.00  0.00    -0.352 A  
HETATM   19  C   UNL     1     -12.482  13.029  65.334  1.00  0.00    -0.531 A  
HETATM   20  C   UNL     1     -12.442  13.289  63.980  1.00  0.00    -0.329 A  
HETATM   21  C   UNL     1     -11.585  12.108  65.890  1.00  0.00    -0.425 A  
HETATM   22  C   UNL     1     -11.491  12.644  63.206  1.00  0.00    -0.368 A  
HETATM   23  C   UNL     1     -10.536  11.751  63.767  1.00  0.00    -0.470 A  
HETATM   24  C   UNL     1      -9.556  11.212  62.768  1.00  0.00    -0.334 C  
ENDBRANCH   8  18
ENDBRANCH   2   5
BRANCH   4  25
HETATM   25  C   UNL     1     -11.082  10.988  69.436  1.00  0.00    -0.320 C  
HETATM   26  C   UNL     1     -12.004  10.790  68.204  1.00  0.00     0.166 C  
HETATM   27  C   UNL     1     -12.006  11.255  70.629  1.00  0.00    -0.435 C  
BRANCH  25  28
HETATM   28  C   UNL     1     -10.319   9.685  69.807  1.00  0.00    -0.266 A  
HETATM   29  C   UNL     1      -9.993   7.268  69.512  1.00  0.00    -0.170 A  
HETATM   30  C   UNL     1     -10.663   8.462  69.203  1.00  0.00    -0.123 A  
HETATM   31  F   UNL     1      -6.832   7.345  72.256  1.00  0.00    -0.057 F  
HETATM   32  C   UNL     1     -10.422   5.959  68.890  1.00  0.00    -0.259 C  
HETATM   33  F   UNL     1      -7.730   9.090  73.190  1.00  0.00     0.041 F  
HETATM   34  C   UNL     1      -8.927   7.303  70.422  1.00  0.00    -0.151 A  
HETATM   35  F   UNL     1      -9.422   5.367  68.181  1.00  0.00    -0.110 F  
HETATM   36  F   UNL     1     -11.467   6.084  68.024  1.00  0.00    -0.338 F  
HETATM   37  F   UNL     1      -6.349   9.336  71.530  1.00  0.00    -0.076 F  
HETATM   38  C   UNL     1      -7.374   8.564  71.986  1.00  0.00    -0.079 C  
HETATM   39  C   UNL     1      -8.531   8.510  71.015  1.00  0.00    -0.185 A  
HETATM   40  F   UNL     1     -10.815   5.046  69.819  1.00  0.00    -0.313 F  
HETATM   41  C   UNL     1      -9.228   9.689  70.695  1.00  0.00    -0.148 A  
ENDBRANCH  25  28
ENDBRANCH   4  25
TORSDOF 5
ENDMDL
MODEL      144
REMARK 921   NORMALIZED FREE ENERGY PREDICTED BY IDOCK:   -4.01 KCAL/MOL
REMARK 922        TOTAL FREE ENERGY PREDICTED BY IDOCK:   -6.82 KCAL/MOL
REMARK 923 INTER-LIGAND FREE ENERGY PREDICTED BY IDOCK:   -6.39 KCAL/MOL
REMARK 924 INTRA-LIGAND FREE ENERGY PREDICTED BY IDOCK:   -0.42 KCAL/MOL
REMARK 927      BINDING AFFINITY PREDICTED BY RF-SCORE:    0.00 PKD
ROOT
HETATM    1  C   UNL     1     -11.798  11.711  69.978  1.00  0.00    -0.355 C  
HETATM    2  N   UNL     1     -10.977  11.970  68.784  1.00  0.00    -0.228 N  
HETATM    3  O   UNL     1     -10.526  14.023  69.618  1.00  0.00     0.057 OA 
HETATM    4  C   UNL     1     -10.229  13.146  68.787  1.00  0.00    -0.097 C  
ENDROOT
BRANCH   2   5
HETATM    5  C   UNL     1     -10.699  10.821  68.018  1.00  0.00    -0.228 A  
HETATM    6  C   UNL     1     -10.523   9.435  66.099  1.00  0.00    -0.027 A  
HETATM    7  C   UNL     1     -10.198   9.714  68.723  1.00  0.00    -0.196 A  
HETATM    8  C   UNL     1     -10.903  10.701  66.631  1.00  0.00    -0.197 A  
HETATM    9  C   UNL     1      -9.906   8.419  66.845  1.00  0.00    -0.245 A  
HETATM   10  N   UNL     1      -9.790   8.557  68.172  1.00  0.00    -0.160 NA 
BRANCH   9  11
HETATM   11  N   UNL     1      -9.376   7.289  66.256  1.00  0.00    -0.147 NA 
HETATM   12  C   UNL     1     -10.008   5.975  66.477  1.00  0.00    -0.141 C  
HETATM   13  C   UNL     1      -7.141   6.183  66.169  1.00  0.00    -0.067 C  
HETATM   14  C   UNL     1      -9.001   4.906  66.971  1.00  0.00    -0.109 C  
HETATM   15  N   UNL     1      -7.721   4.827  66.232  1.00  0.00    -0.091 NA 
HETATM   16  C   UNL     1      -7.898   4.255  64.899  1.00  0.00    -0.088 C  
HETATM   17  C   UNL     1      -8.070   7.277  65.587  1.00  0.00    -0.133 C  
ENDBRANCH   9  11
BRANCH   8  18
HETATM   18  C   UNL     1     -11.342  11.779  65.646  1.00  0.00    -0.293 A  
HETATM   19  C   UNL     1     -12.768  13.808  65.350  1.00  0.00    -0.513 A  
HETATM   20  C   UNL     1     -12.368  13.940  64.037  1.00  0.00    -0.355 A  
HETATM   21  C   UNL     1     -12.284  12.741  66.118  1.00  0.00    -0.340 A  
HETATM   22  C   UNL     1     -11.471  13.020  63.517  1.00  0.00    -0.403 A  
HETATM   23  C   UNL     1     -10.926  11.968  64.303  1.00  0.00    -0.401 A  
HETATM   24  C   UNL     1      -9.925  11.124  63.571  1.00  0.00    -0.425 C  
ENDBRANCH   8  18
ENDBRANCH   2   5
BRANCH   4  25
HETATM   25  C   UNL     1      -8.979  13.424  67.859  1.00  0.00    -0.201 C  
HETATM   26  C   UNL     1      -8.286  14.625  68.556  1.00  0.00    -0.162 C  
HETATM   27  C   UNL     1      -9.154  13.821  66.389  1.00  0.00    -0.083 C  
BRANCH  25  28
HETATM   28  C   UNL     1      -8.068  12.165  67.827  1.00  0.00    -0.152 A  
HETATM   29  C   UNL     1      -7.033  10.273  69.004  1.00  0.00    -0.064 A  
HETATM   30  C   UNL     1      -7.847  11.417  68.997  1.00  0.00    -0.043 A  
HETATM   31  F   UNL     1      -5.262   9.000  65.430  1.00  0.00    -0.036 F  
HETATM   32  C   UNL     1      -6.768   9.522  70.287  1.00  0.00    -0.084 C  
HETATM   33  F   UNL     1      -5.320  11.050  64.711  1.00  0.00    -0.150 F  
HETATM   34  C   UNL     1      -6.454   9.844  67.801  1.00  0.00    -0.063 A  
HETATM   35  F   UNL     1      -7.170   8.222  70.223  1.00  0.00    -0.048 F  
HETATM   36  F   UNL     1      -7.402  10.053  71.371  1.00  0.00     0.251 F  
HETATM   37  F   UNL     1      -7.020   9.736  64.384  1.00  0.00    -0.102 F  
HETATM   38  C   UNL     1      -6.076  10.085  65.302  1.00  0.00    -0.104 C  
HETATM   39  C   UNL     1      -6.682  10.543  66.607  1.00  0.00    -0.099 A  
HETATM   40  F   UNL     1      -5.446   9.490  70.608  1.00  0.00    -0.034 F  
HETATM   41  C   UNL     1      -7.493  11.693  66.633  1.00  0.00    -0.037 A  
ENDBRANCH  25  28
ENDBRANCH   4  25
TORSDOF 5
ENDMDL
MODEL      145
REMARK 921   NORMALIZED FREE ENERGY PREDICTED BY IDOCK:   -3.97 KCAL/MOL
REMARK 922        TOTAL FREE ENERGY PREDICTED BY IDOCK:   -6.77 KCAL/MOL
REMARK 923 INTER-LIGAND FREE ENERGY PREDICTED BY IDOCK:   -8.18 KCAL/MOL
REMARK 924 INTRA-LIGAND FREE ENERGY PREDICTED BY IDOCK:    1.41 KCAL/MOL
REMARK 927      BINDING AFFINITY PREDICTED BY RF-SCORE:    0.00 PKD
ROOT
HETATM    1  C   UNL     1     -11.130  11.543  64.973  1.00  0.00    -0.201 C  
HETATM    2  N   UNL     1     -10.770  11.586  66.400  1.00  0.00    -0.264 N  
HETATM    3  O   UNL     1     -12.520  12.978  66.735  1.00  0.00    -0.324 OA 
HETATM    4  C   UNL     1     -11.667  12.234  67.248  1.00  0.00    -0.324 C  
ENDROOT
BRANCH   2   5
HETATM    5  C   UNL     1      -9.834  10.606  66.785  1.00  0.00    -0.198 A  
HETATM    6  C   UNL     1      -7.807   9.694  67.618  1.00  0.00    -0.095 A  
HETATM    7  C   UNL     1     -10.236   9.270  66.626  1.00  0.00    -0.253 A  
HETATM    8  C   UNL     1      -8.546  10.868  67.289  1.00  0.00    -0.128 A  
HETATM    9  C   UNL     1      -8.325   8.392  67.555  1.00  0.00    -0.129 A  
HETATM   10  N   UNL     1      -9.532   8.191  67.011  1.00  0.00    -0.165 NA 
BRANCH   9  11
HETATM   11  N   UNL     1      -7.649   7.303  68.067  1.00  0.00    -0.112 NA 
HETATM   12  C   UNL     1      -8.393   6.101  68.483  1.00  0.00    -0.114 C  
HETATM   13  C   UNL     1      -6.004   6.903  69.899  1.00  0.00    -0.023 C  
HETATM   14  C   UNL     1      -8.051   5.660  69.929  1.00  0.00    -0.095 C  
HETATM   15  N   UNL     1      -6.611   5.609  70.269  1.00  0.00    -0.044 NA 
HETATM   16  C   UNL     1      -5.937   4.491  69.613  1.00  0.00    -0.018 C  
HETATM   17  C   UNL     1      -6.229   7.347  68.433  1.00  0.00    -0.036 C  
ENDBRANCH   9  11
BRANCH   8  18
HETATM   18  C   UNL     1      -7.925  12.215  67.636  1.00  0.00    -0.157 A  
HETATM   19  C   UNL     1      -7.922  14.655  67.099  1.00  0.00    -0.184 A  
HETATM   20  C   UNL     1      -6.951  14.898  68.048  1.00  0.00    -0.150 A  
HETATM   21  C   UNL     1      -8.372  13.345  66.888  1.00  0.00    -0.013 A  
HETATM   22  C   UNL     1      -6.463  13.834  68.790  1.00  0.00    -0.096 A  
HETATM   23  C   UNL     1      -6.954  12.509  68.627  1.00  0.00    -0.091 A  
HETATM   24  C   UNL     1      -6.340  11.519  69.571  1.00  0.00    -0.116 C  
ENDBRANCH   8  18
ENDBRANCH   2   5
BRANCH   4  25
HETATM   25  C   UNL     1     -11.728  12.039  68.817  1.00  0.00    -0.377 C  
HETATM   26  C   UNL     1     -10.441  11.226  69.117  1.00  0.00    -0.191 C  
HETATM   27  C   UNL     1     -12.883  11.279  69.479  1.00  0.00     0.458 C  
BRANCH  25  28
HETATM   28  C   UNL     1     -11.714  13.429  69.512  1.00  0.00    -0.385 A  
HETATM   29  C   UNL     1     -11.089  15.805  69.476  1.00  0.00    -0.306 A  
HETATM   30  C   UNL     1     -11.117  14.535  68.880  1.00  0.00    -0.273 A  
HETATM   31  F   UNL     1     -12.890  16.349  73.216  1.00  0.00    -0.505 F  
HETATM   32  C   UNL     1     -10.391  16.961  68.799  1.00  0.00    -0.324 C  
HETATM   33  F   UNL     1     -12.540  14.248  73.653  1.00  0.00    -0.516 F  
HETATM   34  C   UNL     1     -11.705  15.983  70.723  1.00  0.00    -0.410 A  
HETATM   35  F   UNL     1     -11.230  18.006  68.557  1.00  0.00    -0.014 F  
HETATM   36  F   UNL     1      -9.844  16.636  67.593  1.00  0.00    -0.240 F  
HETATM   37  F   UNL     1     -14.363  14.857  72.640  1.00  0.00    -0.496 F  
HETATM   38  C   UNL     1     -13.024  15.094  72.703  1.00  0.00    -0.400 C  
HETATM   39  C   UNL     1     -12.343  14.913  71.366  1.00  0.00    -0.397 A  
HETATM   40  F   UNL     1      -9.372  17.465  69.547  1.00  0.00    -0.026 F  
HETATM   41  C   UNL     1     -12.345  13.649  70.750  1.00  0.00    -0.446 A  
ENDBRANCH  25  28
ENDBRANCH   4  25
TORSDOF 5
ENDMDL
MODEL      146
REMARK 921   NORMALIZED FREE ENERGY PREDICTED BY IDOCK:   -3.96 KCAL/MOL
REMARK 922        TOTAL FREE ENERGY PREDICTED BY IDOCK:   -6.76 KCAL/MOL
REMARK 923 INTER-LIGAND FREE ENERGY PREDICTED BY IDOCK:   -7.25 KCAL/MOL
REMARK 924 INTRA-LIGAND FREE ENERGY PREDICTED BY IDOCK:    0.49 KCAL/MOL
REMARK 927      BINDING AFFINITY PREDICTED BY RF-SCORE:    0.00 PKD
ROOT
HETATM    1  C   UNL     1      -8.666   9.193  71.310  1.00  0.00    -0.086 C  
HETATM    2  N   UNL     1      -8.518   8.958  69.865  1.00  0.00    -0.127 N  
HETATM    3  O   UNL     1      -7.428   7.038  70.352  1.00  0.00    -0.082 OA 
HETATM    4  C   UNL     1      -8.002   7.720  69.485  1.00  0.00    -0.117 C  
ENDROOT
BRANCH   2   5
HETATM    5  C   UNL     1      -9.315   9.799  69.062  1.00  0.00    -0.161 A  
HETATM    6  C   UNL     1     -11.265  10.893  68.266  1.00  0.00    -0.347 A  
HETATM    7  C   UNL     1      -8.647  10.493  68.041  1.00  0.00    -0.121 A  
HETATM    8  C   UNL     1     -10.705   9.971  69.198  1.00  0.00    -0.244 A  
HETATM    9  C   UNL     1     -10.512  11.651  67.356  1.00  0.00    -0.210 A  
HETATM   10  N   UNL     1      -9.202  11.405  67.224  1.00  0.00    -0.163 NA 
BRANCH   9  11
HETATM   11  N   UNL     1     -11.064  12.672  66.611  1.00  0.00    -0.263 NA 
HETATM   12  C   UNL     1     -12.089  12.374  65.595  1.00  0.00    -0.329 C  
HETATM   13  C   UNL     1     -10.204  14.525  65.179  1.00  0.00    -0.389 C  
HETATM   14  C   UNL     1     -11.743  12.970  64.206  1.00  0.00    -0.389 C  
HETATM   15  N   UNL     1     -11.297  14.381  64.197  1.00  0.00    -0.129 NA 
HETATM   16  C   UNL     1     -12.398  15.300  64.479  1.00  0.00    -0.133 C  
HETATM   17  C   UNL     1     -10.530  14.039  66.612  1.00  0.00    -0.272 C  
ENDBRANCH   9  11
BRANCH   8  18
HETATM   18  C   UNL     1     -11.625   9.407  70.274  1.00  0.00    -0.181 A  
HETATM   19  C   UNL     1     -13.271   9.995  72.058  1.00  0.00    -0.545 A  
HETATM   20  C   UNL     1     -13.449   8.666  72.381  1.00  0.00    -0.384 A  
HETATM   21  C   UNL     1     -12.365  10.348  71.050  1.00  0.00    -0.490 A  
HETATM   22  C   UNL     1     -12.739   7.708  71.675  1.00  0.00    -0.368 A  
HETATM   23  C   UNL     1     -11.861   8.049  70.609  1.00  0.00    -0.102 A  
HETATM   24  C   UNL     1     -11.241   6.862  69.934  1.00  0.00    -0.334 C  
ENDBRANCH   8  18
ENDBRANCH   2   5
BRANCH   4  25
HETATM   25  C   UNL     1      -8.155   7.081  68.046  1.00  0.00    -0.119 C  
HETATM   26  C   UNL     1      -6.997   7.737  67.249  1.00  0.00    -0.078 C  
HETATM   27  C   UNL     1      -9.425   7.289  67.215  1.00  0.00    -0.169 C  
BRANCH  25  28
HETATM   28  C   UNL     1      -7.991   5.538  68.146  1.00  0.00    -0.096 A  
HETATM   29  C   UNL     1      -7.962   3.339  67.050  1.00  0.00    -0.079 A  
HETATM   30  C   UNL     1      -8.107   4.734  66.997  1.00  0.00    -0.106 A  
HETATM   31  F   UNL     1      -7.094   1.509  70.713  1.00  0.00    -0.030 F  
HETATM   32  C   UNL     1      -8.148   2.496  65.810  1.00  0.00    -0.084 C  
HETATM   33  F   UNL     1      -8.065   3.165  71.733  1.00  0.00    -0.055 F  
HETATM   34  C   UNL     1      -7.659   2.734  68.277  1.00  0.00    -0.055 A  
HETATM   35  F   UNL     1      -7.038   1.769  65.503  1.00  0.00    -0.045 F  
HETATM   36  F   UNL     1      -8.434   3.225  64.694  1.00  0.00    -0.092 F  
HETATM   37  F   UNL     1      -5.951   3.281  71.243  1.00  0.00    -0.012 F  
HETATM   38  C   UNL     1      -7.157   2.868  70.763  1.00  0.00    -0.033 C  
HETATM   39  C   UNL     1      -7.498   3.506  69.437  1.00  0.00    -0.048 A  
HETATM   40  F   UNL     1      -9.161   1.597  65.938  1.00  0.00    -0.126 F  
HETATM   41  C   UNL     1      -7.661   4.901  69.356  1.00  0.00    -0.060 A  
ENDBRANCH  25  28
ENDBRANCH   4  25
TORSDOF 5
ENDMDL
MODEL      147
REMARK 921   NORMALIZED FREE ENERGY PREDICTED BY IDOCK:   -3.84 KCAL/MOL
REMARK 922        TOTAL FREE ENERGY PREDICTED BY IDOCK:   -6.61 KCAL/MOL
REMARK 923 INTER-LIGAND FREE ENERGY PREDICTED BY IDOCK:   -7.42 KCAL/MOL
REMARK 924 INTRA-LIGAND FREE ENERGY PREDICTED BY IDOCK:    0.82 KCAL/MOL
REMARK 927      BINDING AFFINITY PREDICTED BY RF-SCORE:    0.00 PKD
ROOT
HETATM    1  C   UNL     1      -8.688   7.962  67.173  1.00  0.00    -0.131 C  
HETATM    2  N   UNL     1      -9.347   9.134  67.772  1.00  0.00    -0.136 N  
HETATM    3  O   UNL     1     -11.016   7.769  68.452  1.00  0.00     0.000 OA 
HETATM    4  C   UNL     1     -10.472   8.882  68.555  1.00  0.00    -0.182 C  
ENDROOT
BRANCH   2   5
HETATM    5  C   UNL     1      -8.524  10.275  67.856  1.00  0.00    -0.118 A  
HETATM    6  C   UNL     1      -7.129  12.052  67.127  1.00  0.00    -0.130 A  
HETATM    7  C   UNL     1      -8.318  10.793  69.145  1.00  0.00    -0.105 A  
HETATM    8  C   UNL     1      -7.894  10.904  66.767  1.00  0.00    -0.141 A  
HETATM    9  C   UNL     1      -7.075  12.588  68.423  1.00  0.00    -0.107 A  
HETATM   10  N   UNL     1      -7.641  11.919  69.435  1.00  0.00     0.213 NA 
BRANCH   9  11
HETATM   11  N   UNL     1      -6.487  13.808  68.693  1.00  0.00    -0.086 NA 
HETATM   12  C   UNL     1      -6.748  14.486  69.975  1.00  0.00    -0.110 C  
HETATM   13  C   UNL     1      -6.346  16.028  67.564  1.00  0.00    -0.170 C  
HETATM   14  C   UNL     1      -7.226  15.948  69.789  1.00  0.00     0.003 C  
HETATM   15  N   UNL     1      -6.448  16.770  68.836  1.00  0.00    -0.167 NA 
HETATM   16  C   UNL     1      -5.130  17.114  69.365  1.00  0.00    -0.147 C  
HETATM   17  C   UNL     1      -5.778  14.592  67.676  1.00  0.00     0.018 C  
ENDBRANCH   9  11
BRANCH   8  18
HETATM   18  C   UNL     1      -8.039  10.589  65.283  1.00  0.00    -0.131 A  
HETATM   19  C   UNL     1      -9.603  10.629  63.336  1.00  0.00    -0.373 A  
HETATM   20  C   UNL     1      -8.638  10.102  62.504  1.00  0.00    -0.208 A  
HETATM   21  C   UNL     1      -9.312  10.840  64.690  1.00  0.00    -0.271 A  
HETATM   22  C   UNL     1      -7.388   9.818  63.031  1.00  0.00    -0.118 A  
HETATM   23  C   UNL     1      -7.061  10.082  64.390  1.00  0.00    -0.135 A  
HETATM   24  C   UNL     1      -5.638   9.762  64.740  1.00  0.00    -0.074 C  
ENDBRANCH   8  18
ENDBRANCH   2   5
BRANCH   4  25
HETATM   25  C   UNL     1     -11.071   9.883  69.624  1.00  0.00    -0.279 C  
HETATM   26  C   UNL     1      -9.955   9.953  70.700  1.00  0.00    -0.094 C  
HETATM   27  C   UNL     1     -12.371   9.565  70.370  1.00  0.00     0.058 C  
BRANCH  25  28
HETATM   28  C   UNL     1     -11.323  11.264  68.955  1.00  0.00    -0.344 A  
HETATM   29  C   UNL     1     -11.890  12.573  66.955  1.00  0.00    -0.404 A  
HETATM   30  C   UNL     1     -11.652  11.344  67.590  1.00  0.00    -0.315 A  
HETATM   31  F   UNL     1     -11.681  16.106  69.191  1.00  0.00    -0.334 F  
HETATM   32  C   UNL     1     -12.186  12.633  65.474  1.00  0.00    -0.440 C  
HETATM   33  F   UNL     1     -10.296  15.125  70.549  1.00  0.00    -0.252 F  
HETATM   34  C   UNL     1     -11.831  13.751  67.712  1.00  0.00    -0.404 A  
HETATM   35  F   UNL     1     -13.392  13.205  65.207  1.00  0.00    -0.365 F  
HETATM   36  F   UNL     1     -12.214  11.408  64.875  1.00  0.00    -0.001 F  
HETATM   37  F   UNL     1     -12.438  14.986  70.893  1.00  0.00    -0.304 F  
HETATM   38  C   UNL     1     -11.490  14.968  69.915  1.00  0.00    -0.289 C  
HETATM   39  C   UNL     1     -11.543  13.708  69.083  1.00  0.00    -0.356 A  
HETATM   40  F   UNL     1     -11.265  13.362  64.788  1.00  0.00    -0.307 F  
HETATM   41  C   UNL     1     -11.298  12.463  69.691  1.00  0.00    -0.193 A  
ENDBRANCH  25  28
ENDBRANCH   4  25
TORSDOF 5
ENDMDL
MODEL      148
REMARK 921   NORMALIZED FREE ENERGY PREDICTED BY IDOCK:   -3.83 KCAL/MOL
REMARK 922        TOTAL FREE ENERGY PREDICTED BY IDOCK:   -6.59 KCAL/MOL
REMARK 923 INTER-LIGAND FREE ENERGY PREDICTED BY IDOCK:   -6.07 KCAL/MOL
REMARK 924 INTRA-LIGAND FREE ENERGY PREDICTED BY IDOCK:   -0.52 KCAL/MOL
REMARK 927      BINDING AFFINITY PREDICTED BY RF-SCORE:    0.00 PKD
ROOT
HETATM    1  C   UNL     1      -9.947   6.614  66.439  1.00  0.00    -0.010 C  
HETATM    2  N   UNL     1     -10.347   7.260  67.700  1.00  0.00    -0.207 N  
HETATM    3  O   UNL     1     -10.441   5.209  68.647  1.00  0.00    -0.131 OA 
HETATM    4  C   UNL     1     -10.415   6.439  68.825  1.00  0.00    -0.221 C  
ENDROOT
BRANCH   2   5
HETATM    5  C   UNL     1     -10.170   8.657  67.710  1.00  0.00    -0.225 A  
HETATM    6  C   UNL     1      -9.084  10.749  67.427  1.00  0.00    -0.148 A  
HETATM    7  C   UNL     1     -11.268   9.416  68.148  1.00  0.00     0.202 A  
HETATM    8  C   UNL     1      -8.990   9.329  67.340  1.00  0.00    -0.135 A  
HETATM    9  C   UNL     1     -10.260  11.444  67.749  1.00  0.00    -0.181 A  
HETATM   10  N   UNL     1     -11.338  10.759  68.153  1.00  0.00    -0.336 NA 
BRANCH   9  11
HETATM   11  N   UNL     1     -10.363  12.815  67.630  1.00  0.00    -0.218 NA 
HETATM   12  C   UNL     1     -11.515  13.412  66.932  1.00  0.00    -0.342 C  
HETATM   13  C   UNL     1      -8.914  14.663  66.789  1.00  0.00    -0.257 C  
HETATM   14  C   UNL     1     -11.090  14.407  65.823  1.00  0.00    -0.316 C  
HETATM   15  N   UNL     1     -10.053  15.394  66.198  1.00  0.00    -0.285 NA 
HETATM   16  C   UNL     1     -10.573  16.409  67.111  1.00  0.00    -0.276 C  
HETATM   17  C   UNL     1      -9.266  13.728  67.972  1.00  0.00    -0.195 C  
ENDBRANCH   9  11
BRANCH   8  18
HETATM   18  C   UNL     1      -7.714   8.739  66.751  1.00  0.00    -0.094 A  
HETATM   19  C   UNL     1      -5.746   7.274  67.214  1.00  0.00    -0.029 A  
HETATM   20  C   UNL     1      -5.253   7.474  65.941  1.00  0.00    -0.025 A  
HETATM   21  C   UNL     1      -6.929   7.912  67.607  1.00  0.00    -0.074 A  
HETATM   22  C   UNL     1      -5.964   8.286  65.072  1.00  0.00    -0.045 A  
HETATM   23  C   UNL     1      -7.197   8.892  65.439  1.00  0.00    -0.084 A  
HETATM   24  C   UNL     1      -7.836   9.678  64.333  1.00  0.00    -0.129 C  
ENDBRANCH   8  18
ENDBRANCH   2   5
BRANCH   4  25
HETATM   25  C   UNL     1     -10.390   6.953  70.320  1.00  0.00    -0.218 C  
HETATM   26  C   UNL     1     -11.886   6.908  70.730  1.00  0.00    -0.427 C  
HETATM   27  C   UNL     1      -9.889   8.359  70.669  1.00  0.00    -0.208 C  
BRANCH  25  28
HETATM   28  C   UNL     1      -9.521   5.995  71.182  1.00  0.00    -0.182 A  
HETATM   29  C   UNL     1      -9.335   3.956  72.542  1.00  0.00    -0.159 A  
HETATM   30  C   UNL     1     -10.090   4.845  71.761  1.00  0.00    -0.267 A  
HETATM   31  F   UNL     1      -5.255   4.697  73.117  1.00  0.00    -0.006 F  
HETATM   32  C   UNL     1      -9.985   2.761  73.198  1.00  0.00    -0.115 C  
HETATM   33  F   UNL     1      -5.633   6.818  72.827  1.00  0.00    -0.036 F  
HETATM   34  C   UNL     1      -7.966   4.203  72.720  1.00  0.00    -0.085 A  
HETATM   35  F   UNL     1      -9.429   1.583  72.802  1.00  0.00    -0.079 F  
HETATM   36  F   UNL     1     -11.318   2.650  72.930  1.00  0.00    -0.171 F  
HETATM   37  F   UNL     1      -5.203   5.547  71.117  1.00  0.00    -0.007 F  
HETATM   38  C   UNL     1      -5.880   5.588  72.298  1.00  0.00    -0.026 C  
HETATM   39  C   UNL     1      -7.356   5.317  72.127  1.00  0.00    -0.092 A  
HETATM   40  F   UNL     1      -9.879   2.789  74.554  1.00  0.00    -0.115 F  
HETATM   41  C   UNL     1      -8.141   6.198  71.359  1.00  0.00    -0.118 A  
ENDBRANCH  25  28
ENDBRANCH   4  25
TORSDOF 5
ENDMDL
MODEL      149
REMARK 921   NORMALIZED FREE ENERGY PREDICTED BY IDOCK:   -3.83 KCAL/MOL
REMARK 922        TOTAL FREE ENERGY PREDICTED BY IDOCK:   -6.59 KCAL/MOL
REMARK 923 INTER-LIGAND FREE ENERGY PREDICTED BY IDOCK:   -6.25 KCAL/MOL
REMARK 924 INTRA-LIGAND FREE ENERGY PREDICTED BY IDOCK:   -0.34 KCAL/MOL
REMARK 927      BINDING AFFINITY PREDICTED BY RF-SCORE:    0.00 PKD
ROOT
HETATM    1  C   UNL     1      -6.422   5.818  68.993  1.00  0.00    -0.049 C  
HETATM    2  N   UNL     1      -7.424   6.690  68.358  1.00  0.00    -0.093 N  
HETATM    3  O   UNL     1      -8.621   4.840  67.852  1.00  0.00    -0.103 OA 
HETATM    4  C   UNL     1      -8.607   6.079  67.945  1.00  0.00    -0.113 C  
ENDROOT
BRANCH   2   5
HETATM    5  C   UNL     1      -7.263   8.058  68.653  1.00  0.00    -0.081 A  
HETATM    6  C   UNL     1      -7.302  10.064  69.920  1.00  0.00    -0.163 A  
HETATM    7  C   UNL     1      -6.768   8.860  67.611  1.00  0.00    -0.066 A  
HETATM    8  C   UNL     1      -7.576   8.666  69.883  1.00  0.00    -0.071 A  
HETATM    9  C   UNL     1      -6.683  10.776  68.881  1.00  0.00    -0.064 A  
HETATM   10  N   UNL     1      -6.462  10.166  67.709  1.00  0.00    -0.062 NA 
BRANCH   9  11
HETATM   11  N   UNL     1      -6.257  12.080  69.030  1.00  0.00    -0.072 NA 
HETATM   12  C   UNL     1      -5.529  12.485  70.245  1.00  0.00    -0.138 C  
HETATM   13  C   UNL     1      -7.306  14.340  68.921  1.00  0.00    -0.126 C  
HETATM   14  C   UNL     1      -6.157  13.725  70.930  1.00  0.00    -0.061 C  
HETATM   15  N   UNL     1      -6.494  14.859  70.040  1.00  0.00    -0.165 NA 
HETATM   16  C   UNL     1      -5.297  15.547  69.562  1.00  0.00    -0.100 C  
HETATM   17  C   UNL     1      -6.680  13.163  68.135  1.00  0.00    -0.111 C  
ENDBRANCH   9  11
BRANCH   8  18
HETATM   18  C   UNL     1      -8.031   8.000  71.176  1.00  0.00    -0.095 A  
HETATM   19  C   UNL     1      -9.997   7.534  72.643  1.00  0.00    -0.259 A  
HETATM   20  C   UNL     1      -9.207   6.852  73.545  1.00  0.00    -0.179 A  
HETATM   21  C   UNL     1      -9.414   8.110  71.507  1.00  0.00    -0.222 A  
HETATM   22  C   UNL     1      -7.851   6.732  73.285  1.00  0.00    -0.099 A  
HETATM   23  C   UNL     1      -7.257   7.260  72.106  1.00  0.00    -0.068 A  
HETATM   24  C   UNL     1      -5.791   6.966  71.985  1.00  0.00    -0.038 C  
ENDBRANCH   8  18
ENDBRANCH   2   5
BRANCH   4  25
HETATM   25  C   UNL     1      -9.962   6.841  67.652  1.00  0.00    -0.171 C  
HETATM   26  C   UNL     1     -10.455   7.235  69.070  1.00  0.00    -0.219 C  
HETATM   27  C   UNL     1     -11.138   6.137  66.966  1.00  0.00    -0.332 C  
BRANCH  25  28
HETATM   28  C   UNL     1      -9.674   8.088  66.769  1.00  0.00    -0.305 A  
HETATM   29  C   UNL     1      -8.642   9.067  64.765  1.00  0.00    -0.201 A  
HETATM   30  C   UNL     1      -8.919   7.964  65.588  1.00  0.00    -0.077 A  
HETATM   31  F   UNL     1     -10.159  12.828  65.807  1.00  0.00    -0.267 F  
HETATM   32  C   UNL     1      -7.782   8.915  63.533  1.00  0.00    -0.128 C  
HETATM   33  F   UNL     1     -10.166  12.211  67.891  1.00  0.00    -0.183 F  
HETATM   34  C   UNL     1      -9.164  10.322  65.113  1.00  0.00    -0.252 A  
HETATM   35  F   UNL     1      -8.433   9.279  62.394  1.00  0.00    -0.147 F  
HETATM   36  F   UNL     1      -7.352   7.638  63.323  1.00  0.00    -0.070 F  
HETATM   37  F   UNL     1     -11.895  11.816  66.636  1.00  0.00    -0.379 F  
HETATM   38  C   UNL     1     -10.533  11.818  66.641  1.00  0.00    -0.224 C  
HETATM   39  C   UNL     1      -9.953  10.476  66.262  1.00  0.00    -0.276 A  
HETATM   40  F   UNL     1      -6.659   9.683  63.585  1.00  0.00    -0.095 F  
HETATM   41  C   UNL     1     -10.204   9.355  67.074  1.00  0.00    -0.322 A  
ENDBRANCH  25  28
ENDBRANCH   4  25
TORSDOF 5
ENDMDL
MODEL      150
REMARK 921   NORMALIZED FREE ENERGY PREDICTED BY IDOCK:   -3.82 KCAL/MOL
REMARK 922        TOTAL FREE ENERGY PREDICTED BY IDOCK:   -6.57 KCAL/MOL
REMARK 923 INTER-LIGAND FREE ENERGY PREDICTED BY IDOCK:   -5.76 KCAL/MOL
REMARK 924 INTRA-LIGAND FREE ENERGY PREDICTED BY IDOCK:   -0.81 KCAL/MOL
REMARK 927      BINDING AFFINITY PREDICTED BY RF-SCORE:    0.00 PKD
ROOT
HETATM    1  C   UNL     1     -12.425   8.764  71.569  1.00  0.00    -0.326 C  
HETATM    2  N   UNL     1     -11.378   8.541  70.559  1.00  0.00    -0.249 N  
HETATM    3  O   UNL     1     -11.945   6.352  70.545  1.00  0.00    -0.341 OA 
HETATM    4  C   UNL     1     -11.333   7.274  69.978  1.00  0.00    -0.166 C  
ENDROOT
BRANCH   2   5
HETATM    5  C   UNL     1     -10.867   9.724  69.990  1.00  0.00    -0.278 A  
HETATM    6  C   UNL     1      -9.261  11.332  69.305  1.00  0.00     0.224 A  
HETATM    7  C   UNL     1     -11.814  10.603  69.438  1.00  0.00    -0.253 A  
HETATM    8  C   UNL     1      -9.508  10.088  69.955  1.00  0.00    -0.184 A  
HETATM    9  C   UNL     1     -10.246  12.095  68.660  1.00  0.00    -0.174 A  
HETATM   10  N   UNL     1     -11.532  11.738  68.774  1.00  0.00    -0.263 NA 
BRANCH   9  11
HETATM   11  N   UNL     1      -9.938  13.188  67.876  1.00  0.00    -0.226 NA 
HETATM   12  C   UNL     1      -8.661  13.234  67.142  1.00  0.00    -0.193 C  
HETATM   13  C   UNL     1      -9.827  15.659  68.195  1.00  0.00    -0.212 C  
HETATM   14  C   UNL     1      -7.862  14.533  67.416  1.00  0.00    -0.199 C  
HETATM   15  N   UNL     1      -8.631  15.796  67.341  1.00  0.00    -0.168 NA 
HETATM   16  C   UNL     1      -8.989  16.133  65.964  1.00  0.00    -0.298 C  
HETATM   17  C   UNL     1     -10.719  14.429  67.898  1.00  0.00    -0.244 C  
ENDBRANCH   9  11
BRANCH   8  18
HETATM   18  C   UNL     1      -8.302   9.269  70.399  1.00  0.00    -0.224 A  
HETATM   19  C   UNL     1      -6.025   8.479  69.743  1.00  0.00    -0.028 A  
HETATM   20  C   UNL     1      -5.879   7.800  70.934  1.00  0.00    -0.034 A  
HETATM   21  C   UNL     1      -7.214   9.171  69.480  1.00  0.00    -0.060 A  
HETATM   22  C   UNL     1      -6.912   7.843  71.856  1.00  0.00    -0.070 A  
HETATM   23  C   UNL     1      -8.101   8.589  71.627  1.00  0.00    -0.195 A  
HETATM   24  C   UNL     1      -9.065   8.556  72.776  1.00  0.00    -0.218 C  
ENDBRANCH   8  18
ENDBRANCH   2   5
BRANCH   4  25
HETATM   25  C   UNL     1     -10.620   6.932  68.609  1.00  0.00    -0.254 C  
HETATM   26  C   UNL     1     -10.292   8.333  68.028  1.00  0.00    -0.268 C  
HETATM   27  C   UNL     1     -11.351   6.166  67.501  1.00  0.00     0.093 C  
BRANCH  25  28
HETATM   28  C   UNL     1      -9.335   6.102  68.888  1.00  0.00    -0.126 A  
HETATM   29  C   UNL     1      -7.963   4.789  70.446  1.00  0.00    -0.065 A  
HETATM   30  C   UNL     1      -9.109   5.546  70.160  1.00  0.00    -0.162 A  
HETATM   31  F   UNL     1      -5.158   4.099  67.416  1.00  0.00    -0.006 F  
HETATM   32  C   UNL     1      -7.719   4.252  71.837  1.00  0.00    -0.079 C  
HETATM   33  F   UNL     1      -5.790   5.944  66.456  1.00  0.00    -0.015 F  
HETATM   34  C   UNL     1      -7.034   4.551  69.423  1.00  0.00    -0.050 A  
HETATM   35  F   UNL     1      -7.611   2.895  71.860  1.00  0.00    -0.046 F  
HETATM   36  F   UNL     1      -8.710   4.560  72.721  1.00  0.00    -0.108 F  
HETATM   37  F   UNL     1      -6.805   4.078  65.998  1.00  0.00    -0.051 F  
HETATM   38  C   UNL     1      -6.258   4.796  67.018  1.00  0.00    -0.035 C  
HETATM   39  C   UNL     1      -7.244   5.057  68.133  1.00  0.00    -0.063 A  
HETATM   40  F   UNL     1      -6.569   4.729  72.385  1.00  0.00    -0.038 F  
HETATM   41  C   UNL     1      -8.396   5.822  67.878  1.00  0.00    -0.104 A  
ENDBRANCH  25  28
ENDBRANCH   4  25
TORSDOF 5
ENDMDL
MODEL      151
REMARK 921   NORMALIZED FREE ENERGY PREDICTED BY IDOCK:   -3.77 KCAL/MOL
REMARK 922        TOTAL FREE ENERGY PREDICTED BY IDOCK:   -6.51 KCAL/MOL
REMARK 923 INTER-LIGAND FREE ENERGY PREDICTED BY IDOCK:   -7.66 KCAL/MOL
REMARK 924 INTRA-LIGAND FREE ENERGY PREDICTED BY IDOCK:    1.15 KCAL/MOL
REMARK 927      BINDING AFFINITY PREDICTED BY RF-SCORE:    0.00 PKD
ROOT
HETATM    1  C   UNL     1      -8.435   9.187  70.958  1.00  0.00    -0.165 C  
HETATM    2  N   UNL     1      -8.745   8.674  69.613  1.00  0.00    -0.130 N  
HETATM    3  O   UNL     1      -8.074   6.629  70.307  1.00  0.00    -0.116 OA 
HETATM    4  C   UNL     1      -8.673   7.292  69.443  1.00  0.00    -0.137 C  
ENDROOT
BRANCH   2   5
HETATM    5  C   UNL     1      -9.494   9.563  68.818  1.00  0.00    -0.147 A  
HETATM    6  C   UNL     1     -11.345  10.870  68.110  1.00  0.00    -0.383 A  
HETATM    7  C   UNL     1      -8.841  10.082  67.688  1.00  0.00    -0.121 A  
HETATM    8  C   UNL     1     -10.827   9.943  69.060  1.00  0.00    -0.242 A  
HETATM    9  C   UNL     1     -10.589  11.447  67.078  1.00  0.00    -0.248 A  
HETATM   10  N   UNL     1      -9.344  11.007  66.851  1.00  0.00    -0.171 NA 
BRANCH   9  11
HETATM   11  N   UNL     1     -11.067  12.483  66.303  1.00  0.00    -0.283 NA 
HETATM   12  C   UNL     1     -10.601  12.644  64.914  1.00  0.00    -0.307 C  
HETATM   13  C   UNL     1     -11.235  14.963  66.517  1.00  0.00    -0.335 C  
HETATM   14  C   UNL     1     -10.072  14.071  64.623  1.00  0.00    -0.067 C  
HETATM   15  N   UNL     1     -10.924  15.187  65.092  1.00  0.00    -0.392 NA 
HETATM   16  C   UNL     1     -12.138  15.317  64.290  1.00  0.00    -0.208 C  
HETATM   17  C   UNL     1     -11.861  13.588  66.852  1.00  0.00    -0.407 C  
ENDBRANCH   9  11
BRANCH   8  18
HETATM   18  C   UNL     1     -11.705   9.592  70.256  1.00  0.00    -0.213 A  
HETATM   19  C   UNL     1     -12.595   7.720  71.650  1.00  0.00    -0.357 A  
HETATM   20  C   UNL     1     -13.290   8.601  72.452  1.00  0.00    -0.383 A  
HETATM   21  C   UNL     1     -11.847   8.208  70.570  1.00  0.00    -0.010 A  
HETATM   22  C   UNL     1     -13.206   9.957  72.180  1.00  0.00    -0.511 A  
HETATM   23  C   UNL     1     -12.403  10.470  71.124  1.00  0.00    -0.510 A  
HETATM   24  C   UNL     1     -12.401  11.968  71.042  1.00  0.00    -0.340 C  
ENDBRANCH   8  18
ENDBRANCH   2   5
BRANCH   4  25
HETATM   25  C   UNL     1      -9.360   6.490  68.265  1.00  0.00    -0.118 C  
HETATM   26  C   UNL     1     -10.545   7.408  67.863  1.00  0.00    -0.255 C  
HETATM   27  C   UNL     1      -9.951   5.095  68.492  1.00  0.00    -0.221 C  
BRANCH  25  28
HETATM   28  C   UNL     1      -8.344   6.308  67.102  1.00  0.00    -0.109 A  
HETATM   29  C   UNL     1      -7.018   4.820  65.666  1.00  0.00    -0.063 A  
HETATM   30  C   UNL     1      -7.931   5.021  66.713  1.00  0.00    -0.104 A  
HETATM   31  F   UNL     1      -5.528   8.133  63.585  1.00  0.00    -0.049 F  
HETATM   32  C   UNL     1      -6.549   3.429  65.307  1.00  0.00    -0.036 C  
HETATM   33  F   UNL     1      -5.852   9.349  65.357  1.00  0.00    -0.054 F  
HETATM   34  C   UNL     1      -6.533   5.932  64.964  1.00  0.00    -0.042 A  
HETATM   35  F   UNL     1      -6.833   3.100  64.017  1.00  0.00    -0.035 F  
HETATM   36  F   UNL     1      -7.111   2.450  66.072  1.00  0.00    -0.056 F  
HETATM   37  F   UNL     1      -7.447   9.102  63.902  1.00  0.00    -0.102 F  
HETATM   38  C   UNL     1      -6.448   8.435  64.542  1.00  0.00    -0.066 C  
HETATM   39  C   UNL     1      -6.951   7.228  65.299  1.00  0.00    -0.056 A  
HETATM   40  F   UNL     1      -5.203   3.283  65.444  1.00  0.00    -0.007 F  
HETATM   41  C   UNL     1      -7.858   7.401  66.361  1.00  0.00    -0.102 A  
ENDBRANCH  25  28
ENDBRANCH   4  25
TORSDOF 5
ENDMDL
MODEL      152
REMARK 921   NORMALIZED FREE ENERGY PREDICTED BY IDOCK:   -3.74 KCAL/MOL
REMARK 922        TOTAL FREE ENERGY PREDICTED BY IDOCK:   -6.47 KCAL/MOL
REMARK 923 INTER-LIGAND FREE ENERGY PREDICTED BY IDOCK:   -4.81 KCAL/MOL
REMARK 924 INTRA-LIGAND FREE ENERGY PREDICTED BY IDOCK:   -1.66 KCAL/MOL
REMARK 927      BINDING AFFINITY PREDICTED BY RF-SCORE:    0.00 PKD
ROOT
HETATM    1  C   UNL     1      -6.664   8.613  71.249  1.00  0.00    -0.072 C  
HETATM    2  N   UNL     1      -6.632   8.627  69.777  1.00  0.00    -0.041 N  
HETATM    3  O   UNL     1      -5.670   6.582  69.840  1.00  0.00    -0.014 OA 
HETATM    4  C   UNL     1      -6.244   7.443  69.152  1.00  0.00    -0.031 C  
ENDROOT
BRANCH   2   5
HETATM    5  C   UNL     1      -7.411   9.648  69.196  1.00  0.00    -0.077 A  
HETATM    6  C   UNL     1      -9.341  10.756  68.372  1.00  0.00    -0.167 A  
HETATM    7  C   UNL     1      -6.721  10.811  68.817  1.00  0.00    -0.060 A  
HETATM    8  C   UNL     1      -8.795   9.576  68.957  1.00  0.00    -0.143 A  
HETATM    9  C   UNL     1      -8.611  11.932  68.140  1.00  0.00    -0.165 A  
HETATM   10  N   UNL     1      -7.285  11.929  68.327  1.00  0.00    -0.082 NA 
BRANCH   9  11
HETATM   11  N   UNL     1      -9.215  13.113  67.759  1.00  0.00    -0.194 NA 
HETATM   12  C   UNL     1      -9.596  14.110  68.774  1.00  0.00    -0.122 C  
HETATM   13  C   UNL     1     -11.203  13.760  66.397  1.00  0.00    -0.316 C  
HETATM   14  C   UNL     1     -11.080  14.543  68.657  1.00  0.00    -0.257 C  
HETATM   15  N   UNL     1     -11.553  14.878  67.295  1.00  0.00    -0.352 NA 
HETATM   16  C   UNL     1     -10.995  16.143  66.823  1.00  0.00    -0.080 C  
HETATM   17  C   UNL     1      -9.710  13.350  66.398  1.00  0.00    -0.277 C  
ENDBRANCH   9  11
BRANCH   8  18
HETATM   18  C   UNL     1      -9.766   8.473  69.360  1.00  0.00    -0.177 A  
HETATM   19  C   UNL     1     -11.179   6.595  68.515  1.00  0.00    -0.227 A  
HETATM   20  C   UNL     1     -11.621   6.307  69.789  1.00  0.00    -0.330 A  
HETATM   21  C   UNL     1     -10.298   7.664  68.312  1.00  0.00    -0.238 A  
HETATM   22  C   UNL     1     -11.155   7.074  70.845  1.00  0.00    -0.300 A  
HETATM   23  C   UNL     1     -10.214   8.125  70.660  1.00  0.00    -0.211 A  
HETATM   24  C   UNL     1      -9.791   8.787  71.938  1.00  0.00    -0.395 C  
ENDBRANCH   8  18
ENDBRANCH   2   5
BRANCH   4  25
HETATM   25  C   UNL     1      -6.543   7.079  67.642  1.00  0.00    -0.055 C  
HETATM   26  C   UNL     1      -5.138   6.733  67.081  1.00  0.00    -0.009 C  
HETATM   27  C   UNL     1      -7.150   8.108  66.681  1.00  0.00    -0.077 C  
BRANCH  25  28
HETATM   28  C   UNL     1      -7.509   5.862  67.584  1.00  0.00    -0.078 A  
HETATM   29  C   UNL     1      -8.393   3.814  68.614  1.00  0.00    -0.088 A  
HETATM   30  C   UNL     1      -7.532   4.922  68.631  1.00  0.00    -0.069 A  
HETATM   31  F   UNL     1     -11.023   3.315  65.395  1.00  0.00     0.710 F  
HETATM   32  C   UNL     1      -8.356   2.790  69.724  1.00  0.00    -0.048 C  
HETATM   33  F   UNL     1      -9.639   4.422  64.136  1.00  0.00    -0.158 F  
HETATM   34  C   UNL     1      -9.280   3.659  67.539  1.00  0.00    -0.224 A  
HETATM   35  F   UNL     1      -9.554   2.666  70.358  1.00  0.00    -0.203 F  
HETATM   36  F   UNL     1      -7.447   3.077  70.699  1.00  0.00    -0.039 F  
HETATM   37  F   UNL     1     -11.162   5.481  65.269  1.00  0.00     0.393 F  
HETATM   38  C   UNL     1     -10.273   4.451  65.340  1.00  0.00    -0.228 C  
HETATM   39  C   UNL     1      -9.313   4.597  66.497  1.00  0.00    -0.151 A  
HETATM   40  F   UNL     1      -8.039   1.545  69.274  1.00  0.00    -0.045 F  
HETATM   41  C   UNL     1      -8.430   5.691  66.535  1.00  0.00    -0.114 A  
ENDBRANCH  25  28
ENDBRANCH   4  25
TORSDOF 5
ENDMDL
MODEL      153
REMARK 921   NORMALIZED FREE ENERGY PREDICTED BY IDOCK:   -3.72 KCAL/MOL
REMARK 922        TOTAL FREE ENERGY PREDICTED BY IDOCK:   -6.45 KCAL/MOL
REMARK 923 INTER-LIGAND FREE ENERGY PREDICTED BY IDOCK:   -5.51 KCAL/MOL
REMARK 924 INTRA-LIGAND FREE ENERGY PREDICTED BY IDOCK:   -0.93 KCAL/MOL
REMARK 927      BINDING AFFINITY PREDICTED BY RF-SCORE:    0.00 PKD
ROOT
HETATM    1  C   UNL     1     -12.020  10.992  67.205  1.00  0.00     0.815 C  
HETATM    2  N   UNL     1     -10.588  11.099  67.530  1.00  0.00    -0.207 N  
HETATM    3  O   UNL     1     -10.517  13.002  66.311  1.00  0.00    -0.268 OA 
HETATM    4  C   UNL     1      -9.949  12.276  67.145  1.00  0.00    -0.205 C  
ENDROOT
BRANCH   2   5
HETATM    5  C   UNL     1     -10.166  10.231  68.556  1.00  0.00    -0.172 A  
HETATM    6  C   UNL     1      -9.988   9.311  70.737  1.00  0.00    -0.357 A  
HETATM    7  C   UNL     1      -9.281   9.209  68.177  1.00  0.00    -0.131 A  
HETATM    8  C   UNL     1     -10.545  10.327  69.908  1.00  0.00    -0.324 A  
HETATM    9  C   UNL     1      -9.213   8.242  70.262  1.00  0.00    -0.155 A  
HETATM   10  N   UNL     1      -8.829   8.229  68.979  1.00  0.00    -0.143 NA 
BRANCH   9  11
HETATM   11  N   UNL     1      -8.858   7.175  71.062  1.00  0.00    -0.145 NA 
HETATM   12  C   UNL     1      -9.877   6.199  71.487  1.00  0.00    -0.167 C  
HETATM   13  C   UNL     1      -7.678   6.870  73.238  1.00  0.00    -0.087 C  
HETATM   14  C   UNL     1      -9.892   5.984  73.022  1.00  0.00    -0.168 C  
HETATM   15  N   UNL     1      -8.573   5.776  73.662  1.00  0.00    -0.120 NA 
HETATM   16  C   UNL     1      -8.012   4.466  73.337  1.00  0.00    -0.094 C  
HETATM   17  C   UNL     1      -7.545   7.066  71.708  1.00  0.00    -0.088 C  
ENDBRANCH   9  11
BRANCH   8  18
HETATM   18  C   UNL     1     -11.555  11.280  70.539  1.00  0.00    -0.233 A  
HETATM   19  C   UNL     1     -12.247  13.671  70.740  1.00  0.00    -0.424 A  
HETATM   20  C   UNL     1     -13.292  13.335  71.574  1.00  0.00    -0.330 A  
HETATM   21  C   UNL     1     -11.393  12.670  70.261  1.00  0.00     0.341 A  
HETATM   22  C   UNL     1     -13.485  12.000  71.896  1.00  0.00    -0.305 A  
HETATM   23  C   UNL     1     -12.661  10.968  71.369  1.00  0.00    -0.534 A  
HETATM   24  C   UNL     1     -13.078   9.590  71.790  1.00  0.00    -0.504 C  
ENDBRANCH   8  18
ENDBRANCH   2   5
BRANCH   4  25
HETATM   25  C   UNL     1      -8.581  12.799  67.745  1.00  0.00    -0.184 C  
HETATM   26  C   UNL     1      -7.525  12.206  66.775  1.00  0.00     0.066 C  
HETATM   27  C   UNL     1      -8.135  12.413  69.159  1.00  0.00     0.450 C  
BRANCH  25  28
HETATM   28  C   UNL     1      -8.573  14.354  67.734  1.00  0.00    -0.171 A  
HETATM   29  C   UNL     1      -9.695  16.478  68.249  1.00  0.00    -0.231 A  
HETATM   30  C   UNL     1      -9.670  15.075  68.240  1.00  0.00    -0.215 A  
HETATM   31  F   UNL     1      -6.387  18.593  66.796  1.00  0.00    -0.180 F  
HETATM   32  C   UNL     1     -10.910  17.226  68.746  1.00  0.00    -0.153 C  
HETATM   33  F   UNL     1      -5.910  16.902  65.516  1.00  0.00     0.452 F  
HETATM   34  C   UNL     1      -8.579  17.181  67.773  1.00  0.00    -0.216 A  
HETATM   35  F   UNL     1     -10.624  18.049  69.791  1.00  0.00    -0.093 F  
HETATM   36  F   UNL     1     -11.912  16.409  69.180  1.00  0.00    -0.251 F  
HETATM   37  F   UNL     1      -5.127  16.987  67.542  1.00  0.00    -0.098 F  
HETATM   38  C   UNL     1      -6.236  17.240  66.794  1.00  0.00    -0.200 C  
HETATM   39  C   UNL     1      -7.452  16.496  67.297  1.00  0.00    -0.195 A  
HETATM   40  F   UNL     1     -11.464  18.016  67.787  1.00  0.00    -0.073 F  
HETATM   41  C   UNL     1      -7.460  15.089  67.288  1.00  0.00    -0.215 A  
ENDBRANCH  25  28
ENDBRANCH   4  25
TORSDOF 5
ENDMDL
MODEL      154
REMARK 921   NORMALIZED FREE ENERGY PREDICTED BY IDOCK:   -3.68 KCAL/MOL
REMARK 922        TOTAL FREE ENERGY PREDICTED BY IDOCK:   -6.39 KCAL/MOL
REMARK 923 INTER-LIGAND FREE ENERGY PREDICTED BY IDOCK:   -5.62 KCAL/MOL
REMARK 924 INTRA-LIGAND FREE ENERGY PREDICTED BY IDOCK:   -0.77 KCAL/MOL
REMARK 927      BINDING AFFINITY PREDICTED BY RF-SCORE:    0.00 PKD
ROOT
HETATM    1  C   UNL     1     -13.010  13.493  65.929  1.00  0.00    -0.015 C  
HETATM    2  N   UNL     1     -11.798  13.448  66.764  1.00  0.00    -0.387 N  
HETATM    3  O   UNL     1     -12.995  14.379  68.441  1.00  0.00     0.924 OA 
HETATM    4  C   UNL     1     -11.956  13.784  68.108  1.00  0.00    -0.358 C  
ENDROOT
BRANCH   2   5
HETATM    5  C   UNL     1     -10.762  12.657  66.230  1.00  0.00    -0.256 A  
HETATM    6  C   UNL     1      -8.593  12.090  65.451  1.00  0.00     0.707 A  
HETATM    7  C   UNL     1     -11.097  11.331  65.914  1.00  0.00    -0.101 A  
HETATM    8  C   UNL     1      -9.449  13.099  65.979  1.00  0.00    -0.103 A  
HETATM    9  C   UNL     1      -8.964  10.748  65.283  1.00  0.00    -0.194 A  
HETATM   10  N   UNL     1     -10.241  10.391  65.477  1.00  0.00    -0.271 NA 
BRANCH   9  11
HETATM   11  N   UNL     1      -8.053   9.764  64.956  1.00  0.00    -0.127 NA 
HETATM   12  C   UNL     1      -6.951   9.442  65.881  1.00  0.00    -0.090 C  
HETATM   13  C   UNL     1      -6.557   9.265  63.023  1.00  0.00    -0.094 C  
HETATM   14  C   UNL     1      -5.564   9.481  65.192  1.00  0.00    -0.051 C  
HETATM   15  N   UNL     1      -5.465   8.781  63.891  1.00  0.00    -0.061 NA 
HETATM   16  C   UNL     1      -5.507   7.330  64.050  1.00  0.00    -0.033 C  
HETATM   17  C   UNL     1      -7.980   9.156  63.623  1.00  0.00    -0.146 C  
ENDBRANCH   9  11
BRANCH   8  18
HETATM   18  C   UNL     1      -8.827  14.448  66.321  1.00  0.00     0.087 A  
HETATM   19  C   UNL     1      -6.922  15.577  67.474  1.00  0.00    -0.223 A  
HETATM   20  C   UNL     1      -7.406  16.822  67.131  1.00  0.00    -0.222 A  
HETATM   21  C   UNL     1      -7.631  14.430  67.098  1.00  0.00    -0.021 A  
HETATM   22  C   UNL     1      -8.577  16.902  66.395  1.00  0.00    -0.328 A  
HETATM   23  C   UNL     1      -9.275  15.743  65.955  1.00  0.00    -0.379 A  
HETATM   24  C   UNL     1     -10.481  16.047  65.117  1.00  0.00    -0.331 C  
ENDBRANCH   8  18
ENDBRANCH   2   5
BRANCH   4  25
HETATM   25  C   UNL     1     -10.941  13.401  69.259  1.00  0.00    -0.159 C  
HETATM   26  C   UNL     1     -11.357  14.345  70.419  1.00  0.00    -0.148 C  
HETATM   27  C   UNL     1      -9.430  13.578  69.079  1.00  0.00     0.292 C  
BRANCH  25  28
HETATM   28  C   UNL     1     -11.125  11.903  69.634  1.00  0.00    -0.106 A  
HETATM   29  C   UNL     1     -12.344  10.168  70.875  1.00  0.00    -0.461 A  
HETATM   30  C   UNL     1     -12.147  11.511  70.518  1.00  0.00    -0.472 A  
HETATM   31  F   UNL     1      -9.871   7.225  69.218  1.00  0.00    -0.161 F  
HETATM   32  C   UNL     1     -13.414   9.783  71.870  1.00  0.00    -0.395 C  
HETATM   33  F   UNL     1      -8.309   8.719  68.982  1.00  0.00    -0.119 F  
HETATM   34  C   UNL     1     -11.521   9.186  70.306  1.00  0.00    -0.174 A  
HETATM   35  F   UNL     1     -14.323   8.915  71.348  1.00  0.00    -0.431 F  
HETATM   36  F   UNL     1     -14.135  10.844  72.332  1.00  0.00    -0.064 F  
HETATM   37  F   UNL     1      -9.779   8.427  67.409  1.00  0.00    -0.167 F  
HETATM   38  C   UNL     1      -9.631   8.486  68.761  1.00  0.00    -0.149 C  
HETATM   39  C   UNL     1     -10.517   9.535  69.393  1.00  0.00    -0.231 A  
HETATM   40  F   UNL     1     -12.902   9.172  72.973  1.00  0.00    -0.370 F  
HETATM   41  C   UNL     1     -10.334  10.891  69.062  1.00  0.00    -0.230 A  
ENDBRANCH  25  28
ENDBRANCH   4  25
TORSDOF 5
ENDMDL
MODEL      155
REMARK 921   NORMALIZED FREE ENERGY PREDICTED BY IDOCK:   -3.62 KCAL/MOL
REMARK 922        TOTAL FREE ENERGY PREDICTED BY IDOCK:   -6.32 KCAL/MOL
REMARK 923 INTER-LIGAND FREE ENERGY PREDICTED BY IDOCK:   -8.72 KCAL/MOL
REMARK 924 INTRA-LIGAND FREE ENERGY PREDICTED BY IDOCK:    2.40 KCAL/MOL
REMARK 927      BINDING AFFINITY PREDICTED BY RF-SCORE:    0.00 PKD
ROOT
HETATM    1  C   UNL     1     -10.615  12.339  65.093  1.00  0.00    -0.285 C  
HETATM    2  N   UNL     1     -10.243  12.772  66.450  1.00  0.00    -0.249 N  
HETATM    3  O   UNL     1     -10.554  14.911  65.785  1.00  0.00    -0.297 OA 
HETATM    4  C   UNL     1     -10.409  14.126  66.738  1.00  0.00    -0.274 C  
ENDROOT
BRANCH   2   5
HETATM    5  C   UNL     1     -10.205  11.728  67.395  1.00  0.00    -0.199 A  
HETATM    6  C   UNL     1      -9.294  10.218  68.983  1.00  0.00    -0.195 A  
HETATM    7  C   UNL     1     -11.428  11.089  67.659  1.00  0.00    -0.224 A  
HETATM    8  C   UNL     1      -9.051  11.279  68.064  1.00  0.00    -0.156 A  
HETATM    9  C   UNL     1     -10.567   9.716  69.291  1.00  0.00    -0.219 A  
HETATM   10  N   UNL     1     -11.626  10.133  68.584  1.00  0.00    -0.059 NA 
BRANCH   9  11
HETATM   11  N   UNL     1     -10.781   8.829  70.326  1.00  0.00    -0.222 NA 
HETATM   12  C   UNL     1     -10.489   7.396  70.143  1.00  0.00    -0.220 C  
HETATM   13  C   UNL     1     -12.685   8.234  71.824  1.00  0.00    -0.336 C  
HETATM   14  C   UNL     1     -11.688   6.490  70.522  1.00  0.00    -0.375 C  
HETATM   15  N   UNL     1     -12.353   6.796  71.808  1.00  0.00    -0.353 NA 
HETATM   16  C   UNL     1     -11.523   6.423  72.951  1.00  0.00    -0.072 C  
HETATM   17  C   UNL     1     -11.501   9.193  71.552  1.00  0.00    -0.367 C  
ENDBRANCH   9  11
BRANCH   8  18
HETATM   18  C   UNL     1      -7.646  11.867  68.017  1.00  0.00    -0.122 A  
HETATM   19  C   UNL     1      -6.275  13.806  67.243  1.00  0.00     0.367 A  
HETATM   20  C   UNL     1      -5.125  13.243  67.756  1.00  0.00    -0.068 A  
HETATM   21  C   UNL     1      -7.491  13.120  67.352  1.00  0.00    -0.131 A  
HETATM   22  C   UNL     1      -5.212  12.016  68.394  1.00  0.00    -0.050 A  
HETATM   23  C   UNL     1      -6.450  11.337  68.564  1.00  0.00    -0.051 A  
HETATM   24  C   UNL     1      -6.334  10.057  69.337  1.00  0.00    -0.046 C  
ENDBRANCH   8  18
ENDBRANCH   2   5
BRANCH   4  25
HETATM   25  C   UNL     1     -10.499  14.734  68.196  1.00  0.00    -0.239 C  
HETATM   26  C   UNL     1      -9.861  13.627  69.076  1.00  0.00     0.130 C  
HETATM   27  C   UNL     1     -11.850  15.070  68.835  1.00  0.00    -0.337 C  
BRANCH  25  28
HETATM   28  C   UNL     1      -9.690  16.061  68.253  1.00  0.00    -0.214 A  
HETATM   29  C   UNL     1      -9.605  18.500  67.968  1.00  0.00    -0.337 A  
HETATM   30  C   UNL     1     -10.304  17.283  67.924  1.00  0.00    -0.360 A  
HETATM   31  F   UNL     1      -5.596  18.515  69.176  1.00  0.00    -0.187 F  
HETATM   32  C   UNL     1     -10.274  19.790  67.556  1.00  0.00    -0.436 C  
HETATM   33  F   UNL     1      -5.413  16.464  68.478  1.00  0.00    -0.100 F  
HETATM   34  C   UNL     1      -8.266  18.500  68.386  1.00  0.00    -0.351 A  
HETATM   35  F   UNL     1     -10.286  20.714  68.556  1.00  0.00    -0.415 F  
HETATM   36  F   UNL     1     -11.575  19.633  67.179  1.00  0.00    -0.338 F  
HETATM   37  F   UNL     1      -6.070  16.865  70.510  1.00  0.00    -0.150 F  
HETATM   38  C   UNL     1      -6.195  17.292  69.223  1.00  0.00    -0.237 C  
HETATM   39  C   UNL     1      -7.632  17.306  68.758  1.00  0.00    -0.256 A  
HETATM   40  F   UNL     1      -9.650  20.386  66.503  1.00  0.00    -0.475 F  
HETATM   41  C   UNL     1      -8.354  16.100  68.692  1.00  0.00    -0.211 A  
ENDBRANCH  25  28
ENDBRANCH   4  25
TORSDOF 5
ENDMDL
MODEL      156
REMARK 921   NORMALIZED FREE ENERGY PREDICTED BY IDOCK:   -3.55 KCAL/MOL
REMARK 922        TOTAL FREE ENERGY PREDICTED BY IDOCK:   -6.23 KCAL/MOL
REMARK 923 INTER-LIGAND FREE ENERGY PREDICTED BY IDOCK:   -5.10 KCAL/MOL
REMARK 924 INTRA-LIGAND FREE ENERGY PREDICTED BY IDOCK:   -1.13 KCAL/MOL
REMARK 927      BINDING AFFINITY PREDICTED BY RF-SCORE:    0.00 PKD
ROOT
HETATM    1  C   UNL     1      -7.900   9.469  64.952  1.00  0.00    -0.119 C  
HETATM    2  N   UNL     1      -8.671  10.048  66.065  1.00  0.00    -0.135 N  
HETATM    3  O   UNL     1      -9.588   8.009  66.407  1.00  0.00    -0.212 OA 
HETATM    4  C   UNL     1      -9.391   9.153  66.854  1.00  0.00    -0.156 C  
ENDROOT
BRANCH   2   5
HETATM    5  C   UNL     1      -8.234  11.327  66.461  1.00  0.00    -0.165 A  
HETATM    6  C   UNL     1      -8.212  13.693  66.651  1.00  0.00     0.358 A  
HETATM    7  C   UNL     1      -7.084  11.366  67.265  1.00  0.00    -0.119 A  
HETATM    8  C   UNL     1      -8.846  12.542  66.100  1.00  0.00     0.154 A  
HETATM    9  C   UNL     1      -7.139  13.646  67.555  1.00  0.00    -0.152 A  
HETATM   10  N   UNL     1      -6.554  12.471  67.819  1.00  0.00    -0.105 NA 
BRANCH   9  11
HETATM   11  N   UNL     1      -6.682  14.768  68.217  1.00  0.00    -0.103 NA 
HETATM   12  C   UNL     1      -7.591  15.534  69.088  1.00  0.00    -0.204 C  
HETATM   13  C   UNL     1      -5.528  16.887  67.584  1.00  0.00    -0.132 C  
HETATM   14  C   UNL     1      -7.618  17.044  68.741  1.00  0.00    -0.243 C  
HETATM   15  N   UNL     1      -6.300  17.690  68.552  1.00  0.00    -0.179 NA 
HETATM   16  C   UNL     1      -5.584  17.845  69.816  1.00  0.00    -0.225 C  
HETATM   17  C   UNL     1      -5.382  15.386  67.933  1.00  0.00    -0.121 C  
ENDBRANCH   9  11
BRANCH   8  18
HETATM   18  C   UNL     1     -10.141  12.752  65.324  1.00  0.00    -0.263 A  
HETATM   19  C   UNL     1     -12.496  13.571  65.477  1.00  0.00    -0.538 A  
HETATM   20  C   UNL     1     -12.724  13.270  64.150  1.00  0.00    -0.112 A  
HETATM   21  C   UNL     1     -11.246  13.294  66.046  1.00  0.00    -0.316 A  
HETATM   22  C   UNL     1     -11.692  12.720  63.405  1.00  0.00    -0.556 A  
HETATM   23  C   UNL     1     -10.401  12.489  63.955  1.00  0.00    -0.429 A  
HETATM   24  C   UNL     1      -9.412  11.950  62.965  1.00  0.00     0.045 C  
ENDBRANCH   8  18
ENDBRANCH   2   5
BRANCH   4  25
HETATM   25  C   UNL     1      -9.919   9.458  68.314  1.00  0.00    -0.197 C  
HETATM   26  C   UNL     1     -11.454   9.284  68.173  1.00  0.00     0.715 C  
HETATM   27  C   UNL     1      -9.697  10.825  68.969  1.00  0.00    -0.201 C  
BRANCH  25  28
HETATM   28  C   UNL     1      -9.306   8.434  69.310  1.00  0.00    -0.154 A  
HETATM   29  C   UNL     1      -9.217   6.148  70.206  1.00  0.00    -0.165 A  
HETATM   30  C   UNL     1      -9.750   7.099  69.323  1.00  0.00    -0.159 A  
HETATM   31  F   UNL     1      -6.166   7.283  72.839  1.00  0.00    -0.054 F  
HETATM   32  C   UNL     1      -9.753   4.736  70.235  1.00  0.00    -0.225 C  
HETATM   33  F   UNL     1      -6.916   9.323  72.775  1.00  0.00     0.149 F  
HETATM   34  C   UNL     1      -8.186   6.531  71.076  1.00  0.00    -0.121 A  
HETATM   35  F   UNL     1      -8.793   3.808  69.968  1.00  0.00    -0.100 F  
HETATM   36  F   UNL     1     -10.748   4.512  69.331  1.00  0.00    -0.004 F  
HETATM   37  F   UNL     1      -5.458   8.655  71.308  1.00  0.00    -0.032 F  
HETATM   38  C   UNL     1      -6.572   8.266  71.988  1.00  0.00    -0.069 C  
HETATM   39  C   UNL     1      -7.691   7.843  71.066  1.00  0.00    -0.084 A  
HETATM   40  F   UNL     1     -10.270   4.401  71.449  1.00  0.00    -0.253 F  
HETATM   41  C   UNL     1      -8.253   8.778  70.178  1.00  0.00    -0.117 A  
ENDBRANCH  25  28
ENDBRANCH   4  25
TORSDOF 5
ENDMDL
MODEL      157
REMARK 921   NORMALIZED FREE ENERGY PREDICTED BY IDOCK:   -3.49 KCAL/MOL
REMARK 922        TOTAL FREE ENERGY PREDICTED BY IDOCK:   -6.15 KCAL/MOL
REMARK 923 INTER-LIGAND FREE ENERGY PREDICTED BY IDOCK:   -5.68 KCAL/MOL
REMARK 924 INTRA-LIGAND FREE ENERGY PREDICTED BY IDOCK:   -0.48 KCAL/MOL
REMARK 927      BINDING AFFINITY PREDICTED BY RF-SCORE:    0.00 PKD
ROOT
HETATM    1  C   UNL     1     -10.449   9.908  70.561  1.00  0.00    -0.264 C  
HETATM    2  N   UNL     1     -10.265  10.007  69.104  1.00  0.00    -0.196 N  
HETATM    3  O   UNL     1     -10.952  12.158  69.227  1.00  0.00    -0.200 OA 
HETATM    4  C   UNL     1     -10.400  11.278  68.545  1.00  0.00    -0.203 C  
ENDROOT
BRANCH   2   5
HETATM    5  C   UNL     1      -9.549   8.933  68.541  1.00  0.00    -0.157 A  
HETATM    6  C   UNL     1      -7.714   7.498  68.085  1.00  0.00    -0.120 A  
HETATM    7  C   UNL     1     -10.272   8.094  67.676  1.00  0.00    -0.234 A  
HETATM    8  C   UNL     1      -8.187   8.658  68.764  1.00  0.00    -0.121 A  
HETATM    9  C   UNL     1      -8.529   6.633  67.340  1.00  0.00    -0.120 A  
HETATM   10  N   UNL     1      -9.804   6.970  67.106  1.00  0.00    -0.160 NA 
BRANCH   9  11
HETATM   11  N   UNL     1      -8.076   5.419  66.864  1.00  0.00    -0.105 NA 
HETATM   12  C   UNL     1      -8.401   4.996  65.490  1.00  0.00    -0.126 C  
HETATM   13  C   UNL     1      -8.183   3.040  67.606  1.00  0.00    -0.080 C  
HETATM   14  C   UNL     1      -9.037   3.584  65.435  1.00  0.00    -0.145 C  
HETATM   15  N   UNL     1      -8.358   2.535  66.230  1.00  0.00    -0.089 NA 
HETATM   16  C   UNL     1      -7.082   2.143  65.634  1.00  0.00    -0.052 C  
HETATM   17  C   UNL     1      -7.462   4.404  67.727  1.00  0.00    -0.069 C  
ENDBRANCH   9  11
BRANCH   8  18
HETATM   18  C   UNL     1      -7.229   9.358  69.721  1.00  0.00    -0.076 A  
HETATM   19  C   UNL     1      -5.932  11.452  70.135  1.00  0.00    -0.152 A  
HETATM   20  C   UNL     1      -5.422  10.946  71.312  1.00  0.00     0.006 A  
HETATM   21  C   UNL     1      -6.790  10.665  69.355  1.00  0.00    -0.095 A  
HETATM   22  C   UNL     1      -5.798   9.671  71.707  1.00  0.00     0.040 A  
HETATM   23  C   UNL     1      -6.714   8.885  70.955  1.00  0.00    -0.077 A  
HETATM   24  C   UNL     1      -7.037   7.564  71.589  1.00  0.00    -0.062 C  
ENDBRANCH   8  18
ENDBRANCH   2   5
BRANCH   4  25
HETATM   25  C   UNL     1      -9.837  11.706  67.130  1.00  0.00    -0.205 C  
HETATM   26  C   UNL     1     -10.595  10.767  66.154  1.00  0.00    -0.241 C  
HETATM   27  C   UNL     1      -8.349  11.569  66.792  1.00  0.00    -0.165 C  
BRANCH  25  28
HETATM   28  C   UNL     1     -10.169  13.203  66.873  1.00  0.00    -0.245 A  
HETATM   29  C   UNL     1     -11.317  14.915  65.537  1.00  0.00    -0.339 A  
HETATM   30  C   UNL     1     -10.994  13.574  65.796  1.00  0.00    -0.285 A  
HETATM   31  F   UNL     1      -9.842  17.902  68.073  1.00  0.00    -0.274 F  
HETATM   32  C   UNL     1     -12.159  15.290  64.340  1.00  0.00    -0.252 C  
HETATM   33  F   UNL     1      -8.160  16.613  68.558  1.00  0.00    -0.184 F  
HETATM   34  C   UNL     1     -10.830  15.910  66.398  1.00  0.00    -0.193 A  
HETATM   35  F   UNL     1     -13.299  15.947  64.690  1.00  0.00     0.733 F  
HETATM   36  F   UNL     1     -12.561  14.217  63.600  1.00  0.00    -0.428 F  
HETATM   37  F   UNL     1      -9.997  16.483  69.712  1.00  0.00    -0.217 F  
HETATM   38  C   UNL     1      -9.517  16.634  68.447  1.00  0.00    -0.231 C  
HETATM   39  C   UNL     1     -10.036  15.574  67.503  1.00  0.00    -0.230 A  
HETATM   40  F   UNL     1     -11.502  16.112  63.477  1.00  0.00     0.160 F  
HETATM   41  C   UNL     1      -9.719  14.222  67.732  1.00  0.00    -0.222 A  
ENDBRANCH  25  28
ENDBRANCH   4  25
TORSDOF 5
ENDMDL
MODEL      158
REMARK 921   NORMALIZED FREE ENERGY PREDICTED BY IDOCK:   -3.48 KCAL/MOL
REMARK 922        TOTAL FREE ENERGY PREDICTED BY IDOCK:   -6.13 KCAL/MOL
REMARK 923 INTER-LIGAND FREE ENERGY PREDICTED BY IDOCK:   -6.57 KCAL/MOL
REMARK 924 INTRA-LIGAND FREE ENERGY PREDICTED BY IDOCK:    0.44 KCAL/MOL
REMARK 927      BINDING AFFINITY PREDICTED BY RF-SCORE:    0.00 PKD
ROOT
HETATM    1  C   UNL     1     -11.023  10.903  65.406  1.00  0.00     0.038 C  
HETATM    2  N   UNL     1      -9.708  10.921  66.065  1.00  0.00    -0.214 N  
HETATM    3  O   UNL     1      -9.775  13.180  65.999  1.00  0.00    -0.279 OA 
HETATM    4  C   UNL     1      -9.233  12.166  66.473  1.00  0.00    -0.216 C  
ENDROOT
BRANCH   2   5
HETATM    5  C   UNL     1      -9.315   9.676  66.596  1.00  0.00    -0.156 A  
HETATM    6  C   UNL     1      -9.130   7.902  68.161  1.00  0.00    -0.133 A  
HETATM    7  C   UNL     1      -8.519   8.873  65.764  1.00  0.00    -0.145 A  
HETATM    8  C   UNL     1      -9.641   9.202  67.880  1.00  0.00    -0.168 A  
HETATM    9  C   UNL     1      -8.451   7.102  67.229  1.00  0.00    -0.122 A  
HETATM   10  N   UNL     1      -8.111   7.622  66.042  1.00  0.00    -0.112 NA 
BRANCH   9  11
HETATM   11  N   UNL     1      -8.146   5.779  67.475  1.00  0.00    -0.102 NA 
HETATM   12  C   UNL     1      -9.177   4.739  67.304  1.00  0.00    -0.128 C  
HETATM   13  C   UNL     1      -7.168   4.477  69.364  1.00  0.00    -0.051 C  
HETATM   14  C   UNL     1      -9.330   3.840  68.556  1.00  0.00    -0.166 C  
HETATM   15  N   UNL     1      -8.072   3.330  69.148  1.00  0.00    -0.059 NA 
HETATM   16  C   UNL     1      -7.453   2.307  68.309  1.00  0.00    -0.047 C  
HETATM   17  C   UNL     1      -6.898   5.354  68.118  1.00  0.00    -0.060 C  
ENDBRANCH   9  11
BRANCH   8  18
HETATM   18  C   UNL     1     -10.558   9.841  68.917  1.00  0.00    -0.240 A  
HETATM   19  C   UNL     1     -12.250  11.635  69.307  1.00  0.00    -0.228 A  
HETATM   20  C   UNL     1     -12.388  11.267  70.629  1.00  0.00    -0.477 A  
HETATM   21  C   UNL     1     -11.342  10.954  68.488  1.00  0.00    -0.367 A  
HETATM   22  C   UNL     1     -11.634  10.206  71.107  1.00  0.00    -0.430 A  
HETATM   23  C   UNL     1     -10.752   9.468  70.271  1.00  0.00    -0.315 A  
HETATM   24  C   UNL     1     -10.082   8.320  70.967  1.00  0.00    -0.230 C  
ENDBRANCH   8  18
ENDBRANCH   2   5
BRANCH   4  25
HETATM   25  C   UNL     1      -8.100  12.391  67.554  1.00  0.00    -0.173 C  
HETATM   26  C   UNL     1      -6.799  12.343  66.710  1.00  0.00     0.297 C  
HETATM   27  C   UNL     1      -7.900  11.409  68.712  1.00  0.00    -0.128 C  
BRANCH  25  28
HETATM   28  C   UNL     1      -8.301  13.775  68.234  1.00  0.00    -0.161 A  
HETATM   29  C   UNL     1      -9.655  15.258  69.649  1.00  0.00    -0.188 A  
HETATM   30  C   UNL     1      -9.443  14.023  69.018  1.00  0.00     0.108 A  
HETATM   31  F   UNL     1      -6.784  18.279  69.252  1.00  0.00    -0.248 F  
HETATM   32  C   UNL     1     -10.918  15.515  70.438  1.00  0.00    -0.339 C  
HETATM   33  F   UNL     1      -6.185  17.414  67.351  1.00  0.00    -0.134 F  
HETATM   34  C   UNL     1      -8.684  16.261  69.523  1.00  0.00     0.103 A  
HETATM   35  F   UNL     1     -10.664  15.833  71.738  1.00  0.00    -0.144 F  
HETATM   36  F   UNL     1     -11.764  14.447  70.475  1.00  0.00    -0.309 F  
HETATM   37  F   UNL     1      -5.265  16.725  69.195  1.00  0.00    -0.122 F  
HETATM   38  C   UNL     1      -6.453  17.104  68.649  1.00  0.00    -0.175 C  
HETATM   39  C   UNL     1      -7.515  16.038  68.781  1.00  0.00    -0.176 A  
HETATM   40  F   UNL     1     -11.645  16.550  69.935  1.00  0.00    -0.251 F  
HETATM   41  C   UNL     1      -7.335  14.793  68.150  1.00  0.00    -0.122 A  
ENDBRANCH  25  28
ENDBRANCH   4  25
TORSDOF 5
ENDMDL
MODEL      159
REMARK 921   NORMALIZED FREE ENERGY PREDICTED BY IDOCK:   -3.42 KCAL/MOL
REMARK 922        TOTAL FREE ENERGY PREDICTED BY IDOCK:   -6.05 KCAL/MOL
REMARK 923 INTER-LIGAND FREE ENERGY PREDICTED BY IDOCK:   -7.18 KCAL/MOL
REMARK 924 INTRA-LIGAND FREE ENERGY PREDICTED BY IDOCK:    1.13 KCAL/MOL
REMARK 927      BINDING AFFINITY PREDICTED BY RF-SCORE:    0.00 PKD
ROOT
HETATM    1  C   UNL     1     -10.710  12.217  65.032  1.00  0.00    -0.297 C  
HETATM    2  N   UNL     1     -10.250  12.545  66.391  1.00  0.00    -0.240 N  
HETATM    3  O   UNL     1     -10.001  14.690  65.720  1.00  0.00    -0.306 OA 
HETATM    4  C   UNL     1     -10.067  13.898  66.676  1.00  0.00    -0.273 C  
ENDROOT
BRANCH   2   5
HETATM    5  C   UNL     1     -10.485  11.529  67.338  1.00  0.00    -0.209 A  
HETATM    6  C   UNL     1     -10.328   9.404  68.384  1.00  0.00    -0.238 A  
HETATM    7  C   UNL     1     -11.350  11.858  68.394  1.00  0.00    -0.276 A  
HETATM    8  C   UNL     1      -9.942  10.232  67.290  1.00  0.00    -0.233 A  
HETATM    9  C   UNL     1     -11.093   9.844  69.475  1.00  0.00    -0.217 A  
HETATM   10  N   UNL     1     -11.638  11.068  69.444  1.00  0.00    -0.283 NA 
BRANCH   9  11
HETATM   11  N   UNL     1     -11.280   9.074  70.604  1.00  0.00    -0.263 NA 
HETATM   12  C   UNL     1     -10.203   8.955  71.604  1.00  0.00    -0.345 C  
HETATM   13  C   UNL     1     -11.970   6.726  71.089  1.00  0.00    -0.370 C  
HETATM   14  C   UNL     1      -9.863   7.481  71.940  1.00  0.00    -0.163 C  
HETATM   15  N   UNL     1     -11.016   6.592  72.207  1.00  0.00    -0.236 NA 
HETATM   16  C   UNL     1     -11.646   6.892  73.491  1.00  0.00     0.836 C  
HETATM   17  C   UNL     1     -12.425   8.172  70.773  1.00  0.00     0.121 C  
ENDBRANCH   9  11
BRANCH   8  18
HETATM   18  C   UNL     1      -8.917   9.675  66.309  1.00  0.00    -0.184 A  
HETATM   19  C   UNL     1      -8.398   7.783  64.763  1.00  0.00    -0.051 A  
HETATM   20  C   UNL     1      -7.193   8.354  64.412  1.00  0.00    -0.087 A  
HETATM   21  C   UNL     1      -9.219   8.418  65.703  1.00  0.00    -0.118 A  
HETATM   22  C   UNL     1      -6.837   9.564  64.986  1.00  0.00    -0.097 A  
HETATM   23  C   UNL     1      -7.688  10.249  65.897  1.00  0.00    -0.137 A  
HETATM   24  C   UNL     1      -7.145  11.572  66.350  1.00  0.00     0.064 C  
ENDBRANCH   8  18
ENDBRANCH   2   5
BRANCH   4  25
HETATM   25  C   UNL     1     -10.008  14.514  68.131  1.00  0.00    -0.220 C  
HETATM   26  C   UNL     1      -9.102  13.514  68.897  1.00  0.00     0.213 C  
HETATM   27  C   UNL     1     -11.277  14.681  68.975  1.00  0.00    -0.287 C  
BRANCH  25  28
HETATM   28  C   UNL     1      -9.382  15.935  68.066  1.00  0.00    -0.201 A  
HETATM   29  C   UNL     1      -9.661  18.357  67.757  1.00  0.00    -0.316 A  
HETATM   30  C   UNL     1     -10.192  17.059  67.819  1.00  0.00    -0.312 A  
HETATM   31  F   UNL     1      -5.562  18.923  68.391  1.00  0.00    -0.186 F  
HETATM   32  C   UNL     1     -10.545  19.538  67.434  1.00  0.00    -0.485 C  
HETATM   33  F   UNL     1      -5.207  16.898  67.687  1.00  0.00    -0.101 F  
HETATM   34  C   UNL     1      -8.290  18.541  67.983  1.00  0.00    -0.295 A  
HETATM   35  F   UNL     1     -10.542  20.477  68.420  1.00  0.00    -0.416 F  
HETATM   36  F   UNL     1     -11.853  19.204  67.244  1.00  0.00     0.235 F  
HETATM   37  F   UNL     1      -5.624  17.260  69.789  1.00  0.00    -0.167 F  
HETATM   38  C   UNL     1      -5.981  17.635  68.530  1.00  0.00    -0.176 C  
HETATM   39  C   UNL     1      -7.458  17.450  68.270  1.00  0.00    -0.227 A  
HETATM   40  F   UNL     1     -10.158  20.184  66.301  1.00  0.00    -0.491 F  
HETATM   41  C   UNL     1      -8.016  16.159  68.314  1.00  0.00    -0.152 A  
ENDBRANCH  25  28
ENDBRANCH   4  25
TORSDOF 5
ENDMDL
MODEL      160
REMARK 921   NORMALIZED FREE ENERGY PREDICTED BY IDOCK:   -3.38 KCAL/MOL
REMARK 922        TOTAL FREE ENERGY PREDICTED BY IDOCK:   -6.01 KCAL/MOL
REMARK 923 INTER-LIGAND FREE ENERGY PREDICTED BY IDOCK:   -4.77 KCAL/MOL
REMARK 924 INTRA-LIGAND FREE ENERGY PREDICTED BY IDOCK:   -1.24 KCAL/MOL
REMARK 927      BINDING AFFINITY PREDICTED BY RF-SCORE:    0.00 PKD
ROOT
HETATM    1  C   UNL     1      -7.380  12.420  66.835  1.00  0.00     0.077 C  
HETATM    2  N   UNL     1      -8.670  11.752  67.071  1.00  0.00    -0.174 N  
HETATM    3  O   UNL     1      -7.707   9.807  66.439  1.00  0.00    -0.100 OA 
HETATM    4  C   UNL     1      -8.674  10.360  66.990  1.00  0.00    -0.130 C  
ENDROOT
BRANCH   2   5
HETATM    5  C   UNL     1      -9.603  12.538  67.777  1.00  0.00    -0.203 A  
HETATM    6  C   UNL     1     -11.509  13.901  68.149  1.00  0.00    -0.346 A  
HETATM    7  C   UNL     1      -9.368  12.687  69.154  1.00  0.00     0.673 A  
HETATM    8  C   UNL     1     -10.716  13.183  67.208  1.00  0.00    -0.262 A  
HETATM    9  C   UNL     1     -11.286  13.898  69.535  1.00  0.00    -0.184 A  
HETATM   10  N   UNL     1     -10.179  13.320  70.020  1.00  0.00     1.521 NA 
BRANCH   9  11
HETATM   11  N   UNL     1     -12.186  14.441  70.429  1.00  0.00    -0.316 NA 
HETATM   12  C   UNL     1     -12.059  15.849  70.843  1.00  0.00    -0.374 C  
HETATM   13  C   UNL     1     -13.034  13.864  72.703  1.00  0.00    -0.346 C  
HETATM   14  C   UNL     1     -12.039  16.019  72.383  1.00  0.00    -0.535 C  
HETATM   15  N   UNL     1     -13.078  15.276  73.132  1.00  0.00    -0.485 NA 
HETATM   16  C   UNL     1     -14.406  15.856  72.939  1.00  0.00     0.237 C  
HETATM   17  C   UNL     1     -13.152  13.629  71.177  1.00  0.00    -0.234 C  
ENDBRANCH   9  11
BRANCH   8  18
HETATM   18  C   UNL     1     -11.226  13.095  65.774  1.00  0.00    -0.309 A  
HETATM   19  C   UNL     1     -12.321  11.611  64.091  1.00  0.00    -0.123 A  
HETATM   20  C   UNL     1     -12.280  12.604  63.135  1.00  0.00    -0.341 A  
HETATM   21  C   UNL     1     -11.786  11.849  65.363  1.00  0.00    -0.228 A  
HETATM   22  C   UNL     1     -11.727  13.830  63.473  1.00  0.00     0.022 A  
HETATM   23  C   UNL     1     -11.234  14.104  64.778  1.00  0.00    -0.379 A  
HETATM   24  C   UNL     1     -10.739  15.509  64.952  1.00  0.00    -0.415 C  
ENDBRANCH   8  18
ENDBRANCH   2   5
BRANCH   4  25
HETATM   25  C   UNL     1      -9.785   9.422  67.612  1.00  0.00    -0.191 C  
HETATM   26  C   UNL     1     -10.581   8.951  66.366  1.00  0.00     0.107 C  
HETATM   27  C   UNL     1     -10.819   9.965  68.605  1.00  0.00    -0.244 C  
BRANCH  25  28
HETATM   28  C   UNL     1      -9.106   8.236  68.352  1.00  0.00    -0.136 A  
HETATM   29  C   UNL     1      -8.065   7.329  70.385  1.00  0.00    -0.116 A  
HETATM   30  C   UNL     1      -8.679   8.380  69.685  1.00  0.00    -0.133 A  
HETATM   31  F   UNL     1      -7.547   3.634  68.486  1.00  0.00    -0.053 F  
HETATM   32  C   UNL     1      -7.566   7.529  71.796  1.00  0.00    -0.084 C  
HETATM   33  F   UNL     1      -7.510   4.661  66.571  1.00  0.00    -0.077 F  
HETATM   34  C   UNL     1      -7.906   6.090  69.748  1.00  0.00    -0.101 A  
HETATM   35  F   UNL     1      -8.149   6.675  72.682  1.00  0.00    -0.101 F  
HETATM   36  F   UNL     1      -7.794   8.782  72.283  1.00  0.00    -0.163 F  
HETATM   37  F   UNL     1      -9.402   4.007  67.417  1.00  0.00    -0.146 F  
HETATM   38  C   UNL     1      -8.202   4.565  67.739  1.00  0.00    -0.099 C  
HETATM   39  C   UNL     1      -8.354   5.898  68.433  1.00  0.00    -0.112 A  
HETATM   40  F   UNL     1      -6.224   7.326  71.907  1.00  0.00    -0.040 F  
HETATM   41  C   UNL     1      -8.955   6.973  67.752  1.00  0.00    -0.121 A  
ENDBRANCH  25  28
ENDBRANCH   4  25
TORSDOF 5
ENDMDL
MODEL      161
REMARK 921   NORMALIZED FREE ENERGY PREDICTED BY IDOCK:   -3.37 KCAL/MOL
REMARK 922        TOTAL FREE ENERGY PREDICTED BY IDOCK:   -6.00 KCAL/MOL
REMARK 923 INTER-LIGAND FREE ENERGY PREDICTED BY IDOCK:   -7.64 KCAL/MOL
REMARK 924 INTRA-LIGAND FREE ENERGY PREDICTED BY IDOCK:    1.64 KCAL/MOL
REMARK 927      BINDING AFFINITY PREDICTED BY RF-SCORE:    0.00 PKD
ROOT
HETATM    1  C   UNL     1     -12.656  11.193  68.707  1.00  0.00     0.818 C  
HETATM    2  N   UNL     1     -11.221  11.421  68.947  1.00  0.00    -0.224 N  
HETATM    3  O   UNL     1     -11.031   9.237  69.499  1.00  0.00    -0.227 OA 
HETATM    4  C   UNL     1     -10.445  10.290  69.195  1.00  0.00    -0.224 C  
ENDROOT
BRANCH   2   5
HETATM    5  C   UNL     1     -10.746  12.654  68.458  1.00  0.00    -0.248 A  
HETATM    6  C   UNL     1     -10.382  14.997  68.355  1.00  0.00    -0.231 A  
HETATM    7  C   UNL     1      -9.982  12.599  67.281  1.00  0.00    -0.212 A  
HETATM    8  C   UNL     1     -10.995  13.910  69.043  1.00  0.00    -0.281 A  
HETATM    9  C   UNL     1      -9.521  14.852  67.256  1.00  0.00    -0.213 A  
HETATM   10  N   UNL     1      -9.366  13.643  66.700  1.00  0.00    -0.267 NA 
BRANCH   9  11
HETATM   11  N   UNL     1      -8.794  15.906  66.743  1.00  0.00    -0.236 NA 
HETATM   12  C   UNL     1      -7.375  16.071  67.105  1.00  0.00    -0.222 C  
HETATM   13  C   UNL     1      -9.042  18.387  66.647  1.00  0.00    -0.297 C  
HETATM   14  C   UNL     1      -7.057  17.489  67.642  1.00  0.00    -0.168 C  
HETATM   15  N   UNL     1      -7.599  18.619  66.853  1.00  0.00    -0.216 NA 
HETATM   16  C   UNL     1      -6.894  18.783  65.584  1.00  0.00    -0.254 C  
HETATM   17  C   UNL     1      -9.412  17.022  66.018  1.00  0.00    -0.164 C  
ENDBRANCH   9  11
BRANCH   8  18
HETATM   18  C   UNL     1     -11.707  14.214  70.355  1.00  0.00    -0.312 A  
HETATM   19  C   UNL     1     -13.103  13.247  72.186  1.00  0.00    -0.486 A  
HETATM   20  C   UNL     1     -13.154  14.461  72.838  1.00  0.00    -0.612 A  
HETATM   21  C   UNL     1     -12.419  13.141  70.969  1.00  0.00    -0.406 A  
HETATM   22  C   UNL     1     -12.498  15.545  72.277  1.00  0.00    -0.477 A  
HETATM   23  C   UNL     1     -11.750  15.437  71.072  1.00  0.00    -0.408 A  
HETATM   24  C   UNL     1     -11.064  16.710  70.671  1.00  0.00     0.077 C  
ENDBRANCH   8  18
ENDBRANCH   2   5
BRANCH   4  25
HETATM   25  C   UNL     1      -8.871  10.225  69.049  1.00  0.00    -0.170 C  
HETATM   26  C   UNL     1      -8.429   9.510  70.353  1.00  0.00    -0.238 C  
HETATM   27  C   UNL     1      -8.029  11.502  68.951  1.00  0.00    -0.057 C  
BRANCH  25  28
HETATM   28  C   UNL     1      -8.502   9.405  67.782  1.00  0.00    -0.116 A  
HETATM   29  C   UNL     1      -7.227   9.201  65.691  1.00  0.00    -0.082 A  
HETATM   30  C   UNL     1      -7.586   9.916  66.845  1.00  0.00    -0.095 A  
HETATM   31  F   UNL     1      -8.875   5.408  65.040  1.00  0.00    -0.153 F  
HETATM   32  C   UNL     1      -6.283   9.799  64.674  1.00  0.00    -0.097 C  
HETATM   33  F   UNL     1     -10.606   5.995  66.217  1.00  0.00    -0.237 F  
HETATM   34  C   UNL     1      -7.773   7.926  65.485  1.00  0.00    -0.101 A  
HETATM   35  F   UNL     1      -5.170   9.038  64.487  1.00  0.00    -0.047 F  
HETATM   36  F   UNL     1      -5.833  11.040  65.013  1.00  0.00    -0.106 F  
HETATM   37  F   UNL     1      -8.874   5.119  67.194  1.00  0.00    -0.112 F  
HETATM   38  C   UNL     1      -9.245   5.989  66.215  1.00  0.00    -0.154 C  
HETATM   39  C   UNL     1      -8.661   7.368  66.416  1.00  0.00    -0.138 A  
HETATM   40  F   UNL     1      -6.857   9.933  63.447  1.00  0.00    -0.106 F  
HETATM   41  C   UNL     1      -9.011   8.112  67.558  1.00  0.00    -0.143 A  
ENDBRANCH  25  28
ENDBRANCH   4  25
TORSDOF 5
ENDMDL
MODEL      162
REMARK 921   NORMALIZED FREE ENERGY PREDICTED BY IDOCK:   -3.31 KCAL/MOL
REMARK 922        TOTAL FREE ENERGY PREDICTED BY IDOCK:   -5.91 KCAL/MOL
REMARK 923 INTER-LIGAND FREE ENERGY PREDICTED BY IDOCK:   -7.25 KCAL/MOL
REMARK 924 INTRA-LIGAND FREE ENERGY PREDICTED BY IDOCK:    1.34 KCAL/MOL
REMARK 927      BINDING AFFINITY PREDICTED BY RF-SCORE:    0.00 PKD
ROOT
HETATM    1  C   UNL     1      -8.103  11.747  67.980  1.00  0.00    -0.145 C  
HETATM    2  N   UNL     1      -7.466  10.451  68.265  1.00  0.00    -0.088 N  
HETATM    3  O   UNL     1      -6.660  11.338  70.182  1.00  0.00    -0.147 OA 
HETATM    4  C   UNL     1      -6.880  10.308  69.522  1.00  0.00    -0.084 C  
ENDROOT
BRANCH   2   5
HETATM    5  C   UNL     1      -7.914   9.399  67.441  1.00  0.00    -0.106 A  
HETATM    6  C   UNL     1      -9.288   8.234  65.897  1.00  0.00    -0.165 A  
HETATM    7  C   UNL     1      -7.129   8.234  67.447  1.00  0.00    -0.080 A  
HETATM    8  C   UNL     1      -9.075   9.426  66.648  1.00  0.00    -0.181 A  
HETATM    9  C   UNL     1      -8.389   7.158  65.852  1.00  0.00    -0.141 A  
HETATM   10  N   UNL     1      -7.330   7.153  66.672  1.00  0.00    -0.082 NA 
BRANCH   9  11
HETATM   11  N   UNL     1      -8.533   6.111  64.965  1.00  0.00    -0.112 NA 
HETATM   12  C   UNL     1      -9.203   4.869  65.390  1.00  0.00    -0.154 C  
HETATM   13  C   UNL     1      -7.024   4.776  63.493  1.00  0.00    -0.044 C  
HETATM   14  C   UNL     1      -8.352   3.605  65.106  1.00  0.00    -0.097 C  
HETATM   15  N   UNL     1      -7.749   3.518  63.757  1.00  0.00    -0.077 NA 
HETATM   16  C   UNL     1      -8.753   3.250  62.729  1.00  0.00    -0.085 C  
HETATM   17  C   UNL     1      -7.856   6.071  63.664  1.00  0.00    -0.112 C  
ENDBRANCH   9  11
BRANCH   8  18
HETATM   18  C   UNL     1     -10.024  10.594  66.406  1.00  0.00    -0.273 A  
HETATM   19  C   UNL     1     -10.738  12.330  64.758  1.00  0.00    -0.338 A  
HETATM   20  C   UNL     1     -11.673  12.832  65.638  1.00  0.00    -0.443 A  
HETATM   21  C   UNL     1      -9.924  11.258  65.147  1.00  0.00    -0.312 A  
HETATM   22  C   UNL     1     -11.800  12.239  66.884  1.00  0.00    -0.334 A  
HETATM   23  C   UNL     1     -11.021  11.113  67.270  1.00  0.00    -0.354 A  
HETATM   24  C   UNL     1     -11.359  10.585  68.633  1.00  0.00    -0.315 C  
ENDBRANCH   8  18
ENDBRANCH   2   5
BRANCH   4  25
HETATM   25  C   UNL     1      -6.537   8.924  70.206  1.00  0.00    -0.042 C  
HETATM   26  C   UNL     1      -5.884   9.351  71.548  1.00  0.00    -0.068 C  
HETATM   27  C   UNL     1      -5.570   7.932  69.552  1.00  0.00    -0.026 C  
BRANCH  25  28
HETATM   28  C   UNL     1      -7.847   8.117  70.427  1.00  0.00    -0.090 A  
HETATM   29  C   UNL     1     -10.206   8.062  71.113  1.00  0.00    -0.225 A  
HETATM   30  C   UNL     1      -9.005   8.758  70.905  1.00  0.00    -0.247 A  
HETATM   31  F   UNL     1     -10.381   3.974  70.226  1.00  0.00    -0.177 F  
HETATM   32  C   UNL     1     -11.418   8.764  71.680  1.00  0.00    -0.316 C  
HETATM   33  F   UNL     1      -8.243   3.837  70.591  1.00  0.00    -0.056 F  
HETATM   34  C   UNL     1     -10.262   6.696  70.802  1.00  0.00    -0.221 A  
HETATM   35  F   UNL     1     -12.492   8.704  70.846  1.00  0.00    -0.270 F  
HETATM   36  F   UNL     1     -11.213  10.089  71.928  1.00  0.00    -0.277 F  
HETATM   37  F   UNL     1      -8.976   4.341  68.608  1.00  0.00    -0.107 F  
HETATM   38  C   UNL     1      -9.189   4.564  69.935  1.00  0.00    -0.127 C  
HETATM   39  C   UNL     1      -9.139   6.032  70.288  1.00  0.00    -0.159 A  
HETATM   40  F   UNL     1     -11.828   8.223  72.859  1.00  0.00    -0.462 F  
HETATM   41  C   UNL     1      -7.945   6.753  70.101  1.00  0.00    -0.112 A  
ENDBRANCH  25  28
ENDBRANCH   4  25
TORSDOF 5
ENDMDL
MODEL      163
REMARK 921   NORMALIZED FREE ENERGY PREDICTED BY IDOCK:   -3.23 KCAL/MOL
REMARK 922        TOTAL FREE ENERGY PREDICTED BY IDOCK:   -5.82 KCAL/MOL
REMARK 923 INTER-LIGAND FREE ENERGY PREDICTED BY IDOCK:   -8.07 KCAL/MOL
REMARK 924 INTRA-LIGAND FREE ENERGY PREDICTED BY IDOCK:    2.25 KCAL/MOL
REMARK 927      BINDING AFFINITY PREDICTED BY RF-SCORE:    0.00 PKD
ROOT
HETATM    1  C   UNL     1      -6.274  10.370  67.794  1.00  0.00    -0.056 C  
HETATM    2  N   UNL     1      -7.669  10.595  68.208  1.00  0.00    -0.103 N  
HETATM    3  O   UNL     1      -7.707  12.416  66.867  1.00  0.00    -0.099 OA 
HETATM    4  C   UNL     1      -8.365  11.596  67.531  1.00  0.00    -0.151 C  
ENDROOT
BRANCH   2   5
HETATM    5  C   UNL     1      -8.248   9.507  68.889  1.00  0.00    -0.116 A  
HETATM    6  C   UNL     1      -9.149   7.336  69.224  1.00  0.00    -0.138 A  
HETATM    7  C   UNL     1      -8.511   9.702  70.255  1.00  0.00    -0.188 A  
HETATM    8  C   UNL     1      -8.592   8.273  68.306  1.00  0.00    -0.133 A  
HETATM    9  C   UNL     1      -9.262   7.557  70.605  1.00  0.00    -0.159 A  
HETATM   10  N   UNL     1      -8.978   8.768  71.102  1.00  0.00    -0.202 NA 
BRANCH   9  11
HETATM   11  N   UNL     1      -9.621   6.556  71.485  1.00  0.00    -0.161 NA 
HETATM   12  C   UNL     1     -10.030   6.894  72.860  1.00  0.00    -0.181 C  
HETATM   13  C   UNL     1      -8.597   4.442  72.324  1.00  0.00    -0.113 C  
HETATM   14  C   UNL     1      -9.239   6.099  73.929  1.00  0.00    -0.131 C  
HETATM   15  N   UNL     1      -9.110   4.643  73.693  1.00  0.00    -0.106 NA 
HETATM   16  C   UNL     1     -10.377   3.945  73.902  1.00  0.00    -0.176 C  
HETATM   17  C   UNL     1      -9.410   5.132  71.202  1.00  0.00    -0.148 C  
ENDBRANCH   9  11
BRANCH   8  18
HETATM   18  C   UNL     1      -8.323   7.795  66.884  1.00  0.00    -0.124 A  
HETATM   19  C   UNL     1      -8.077   8.517  64.505  1.00  0.00    -0.158 A  
HETATM   20  C   UNL     1      -7.847   7.220  64.098  1.00  0.00    -0.118 A  
HETATM   21  C   UNL     1      -8.331   8.786  65.856  1.00  0.00    -0.131 A  
HETATM   22  C   UNL     1      -7.849   6.213  65.051  1.00  0.00    -0.110 A  
HETATM   23  C   UNL     1      -8.047   6.479  66.434  1.00  0.00    -0.113 A  
HETATM   24  C   UNL     1      -7.947   5.261  67.302  1.00  0.00    -0.101 C  
ENDBRANCH   8  18
ENDBRANCH   2   5
BRANCH   4  25
HETATM   25  C   UNL     1      -9.940  11.727  67.485  1.00  0.00    -0.204 C  
HETATM   26  C   UNL     1     -10.410  10.642  68.490  1.00  0.00    -0.202 C  
HETATM   27  C   UNL     1     -10.720  11.482  66.188  1.00  0.00    -0.324 C  
BRANCH  25  28
HETATM   28  C   UNL     1     -10.354  13.156  67.935  1.00  0.00    -0.232 A  
HETATM   29  C   UNL     1     -10.374  15.579  67.527  1.00  0.00    -0.271 A  
HETATM   30  C   UNL     1     -10.014  14.275  67.153  1.00  0.00    -0.255 A  
HETATM   31  F   UNL     1     -12.584  16.165  71.035  1.00  0.00    -0.454 F  
HETATM   32  C   UNL     1      -9.946  16.767  66.697  1.00  0.00    -0.293 C  
HETATM   33  F   UNL     1     -11.735  14.331  71.836  1.00  0.00    -0.299 F  
HETATM   34  C   UNL     1     -11.125  15.767  68.696  1.00  0.00    -0.327 A  
HETATM   35  F   UNL     1     -11.004  17.494  66.244  1.00  0.00    -0.190 F  
HETATM   36  F   UNL     1      -9.227  16.427  65.590  1.00  0.00    -0.319 F  
HETATM   37  F   UNL     1     -13.556  14.259  70.652  1.00  0.00    -0.324 F  
HETATM   38  C   UNL     1     -12.337  14.859  70.735  1.00  0.00    -0.329 C  
HETATM   39  C   UNL     1     -11.515  14.673  69.481  1.00  0.00    -0.334 A  
HETATM   40  F   UNL     1      -9.166  17.636  67.396  1.00  0.00    -0.239 F  
HETATM   41  C   UNL     1     -11.130  13.378  69.087  1.00  0.00    -0.261 A  
ENDBRANCH  25  28
ENDBRANCH   4  25
TORSDOF 5
ENDMDL
MODEL      164
REMARK 921   NORMALIZED FREE ENERGY PREDICTED BY IDOCK:   -3.11 KCAL/MOL
REMARK 922        TOTAL FREE ENERGY PREDICTED BY IDOCK:   -5.65 KCAL/MOL
REMARK 923 INTER-LIGAND FREE ENERGY PREDICTED BY IDOCK:   -6.27 KCAL/MOL
REMARK 924 INTRA-LIGAND FREE ENERGY PREDICTED BY IDOCK:    0.62 KCAL/MOL
REMARK 927      BINDING AFFINITY PREDICTED BY RF-SCORE:    0.00 PKD
ROOT
HETATM    1  C   UNL     1     -11.443  10.847  69.271  1.00  0.00    -0.302 C  
HETATM    2  N   UNL     1     -10.401  11.303  68.336  1.00  0.00    -0.185 N  
HETATM    3  O   UNL     1     -10.216  13.194  69.563  1.00  0.00     0.415 OA 
HETATM    4  C   UNL     1      -9.718  12.467  68.686  1.00  0.00    -0.049 C  
ENDROOT
BRANCH   2   5
HETATM    5  C   UNL     1      -9.924  10.297  67.473  1.00  0.00    -0.189 A  
HETATM    6  C   UNL     1      -9.526   9.136  65.442  1.00  0.00    -0.231 A  
HETATM    7  C   UNL     1      -9.203   9.255  68.077  1.00  0.00    -0.130 A  
HETATM    8  C   UNL     1     -10.131  10.256  66.081  1.00  0.00    -0.307 A  
HETATM    9  C   UNL     1      -8.708   8.201  66.095  1.00  0.00    -0.156 A  
HETATM   10  N   UNL     1      -8.592   8.248  67.428  1.00  0.00    -0.124 NA 
BRANCH   9  11
HETATM   11  N   UNL     1      -7.983   7.248  65.409  1.00  0.00    -0.118 NA 
HETATM   12  C   UNL     1      -7.924   5.863  65.909  1.00  0.00    -0.109 C  
HETATM   13  C   UNL     1      -5.646   7.027  64.563  1.00  0.00    -0.032 C  
HETATM   14  C   UNL     1      -6.472   5.342  66.051  1.00  0.00    -0.040 C  
HETATM   15  N   UNL     1      -5.576   5.591  64.899  1.00  0.00    -0.016 NA 
HETATM   16  C   UNL     1      -5.919   4.752  63.753  1.00  0.00    -0.018 C  
HETATM   17  C   UNL     1      -7.070   7.580  64.309  1.00  0.00    -0.063 C  
ENDBRANCH   9  11
BRANCH   8  18
HETATM   18  C   UNL     1     -10.791  11.306  65.195  1.00  0.00    -0.268 A  
HETATM   19  C   UNL     1     -12.676  12.935  65.027  1.00  0.00    -0.474 A  
HETATM   20  C   UNL     1     -12.271  13.329  63.769  1.00  0.00    -0.508 A  
HETATM   21  C   UNL     1     -11.966  11.935  65.703  1.00  0.00    -0.005 A  
HETATM   22  C   UNL     1     -11.147  12.735  63.215  1.00  0.00    -0.094 A  
HETATM   23  C   UNL     1     -10.383  11.761  63.915  1.00  0.00    -0.428 A  
HETATM   24  C   UNL     1      -9.171  11.293  63.166  1.00  0.00    -0.275 C  
ENDBRANCH   8  18
ENDBRANCH   2   5
BRANCH   4  25
HETATM   25  C   UNL     1      -8.314  12.901  68.100  1.00  0.00    -0.168 C  
HETATM   26  C   UNL     1      -8.186  12.032  66.821  1.00  0.00    -0.110 C  
HETATM   27  C   UNL     1      -7.021  12.691  68.897  1.00  0.00    -0.086 C  
BRANCH  25  28
HETATM   28  C   UNL     1      -8.337  14.420  67.772  1.00  0.00    -0.172 A  
HETATM   29  C   UNL     1      -7.258  16.625  67.883  1.00  0.00    -0.152 A  
HETATM   30  C   UNL     1      -7.272  15.250  68.166  1.00  0.00    -0.126 A  
HETATM   31  F   UNL     1     -10.443  18.306  65.747  1.00  0.00    -0.396 F  
HETATM   32  C   UNL     1      -6.128  17.502  68.367  1.00  0.00    -0.173 C  
HETATM   33  F   UNL     1     -11.736  16.730  66.501  1.00  0.00     0.625 F  
HETATM   34  C   UNL     1      -8.322  17.180  67.156  1.00  0.00    -0.216 A  
HETATM   35  F   UNL     1      -5.481  18.129  67.347  1.00  0.00    -0.132 F  
HETATM   36  F   UNL     1      -5.167  16.822  69.055  1.00  0.00    -0.121 F  
HETATM   37  F   UNL     1     -10.612  16.428  64.666  1.00  0.00    -0.315 F  
HETATM   38  C   UNL     1     -10.528  16.958  65.918  1.00  0.00    -0.285 C  
HETATM   39  C   UNL     1      -9.383  16.377  66.714  1.00  0.00    -0.265 A  
HETATM   40  F   UNL     1      -6.555  18.488  69.202  1.00  0.00    -0.238 F  
HETATM   41  C   UNL     1      -9.375  15.004  67.022  1.00  0.00    -0.237 A  
ENDBRANCH  25  28
ENDBRANCH   4  25
TORSDOF 5
ENDMDL
MODEL      165
REMARK 921   NORMALIZED FREE ENERGY PREDICTED BY IDOCK:   -3.04 KCAL/MOL
REMARK 922        TOTAL FREE ENERGY PREDICTED BY IDOCK:   -5.57 KCAL/MOL
REMARK 923 INTER-LIGAND FREE ENERGY PREDICTED BY IDOCK:   -5.70 KCAL/MOL
REMARK 924 INTRA-LIGAND FREE ENERGY PREDICTED BY IDOCK:    0.13 KCAL/MOL
REMARK 927      BINDING AFFINITY PREDICTED BY RF-SCORE:    0.00 PKD
ROOT
HETATM    1  C   UNL     1      -6.836   4.544  70.277  1.00  0.00    -0.037 C  
HETATM    2  N   UNL     1      -7.604   5.743  70.650  1.00  0.00    -0.089 N  
HETATM    3  O   UNL     1      -8.421   4.594  72.417  1.00  0.00    -0.112 OA 
HETATM    4  C   UNL     1      -8.264   5.702  71.877  1.00  0.00    -0.119 C  
ENDROOT
BRANCH   2   5
HETATM    5  C   UNL     1      -7.215   6.911  69.963  1.00  0.00    -0.080 A  
HETATM    6  C   UNL     1      -7.067   8.489  68.197  1.00  0.00    -0.085 A  
HETATM    7  C   UNL     1      -6.377   7.791  70.667  1.00  0.00    -0.037 A  
HETATM    8  C   UNL     1      -7.584   7.239  68.646  1.00  0.00    -0.114 A  
HETATM    9  C   UNL     1      -6.342   9.378  69.004  1.00  0.00    -0.042 A  
HETATM   10  N   UNL     1      -5.964   8.994  70.230  1.00  0.00    -0.033 NA 
BRANCH   9  11
HETATM   11  N   UNL     1      -6.030  10.659  68.595  1.00  0.00    -0.040 NA 
HETATM   12  C   UNL     1      -5.475  11.628  69.558  1.00  0.00    -0.061 C  
HETATM   13  C   UNL     1      -7.219  12.518  67.432  1.00  0.00    -0.146 C  
HETATM   14  C   UNL     1      -6.264  12.961  69.583  1.00  0.00    -0.114 C  
HETATM   15  N   UNL     1      -6.578  13.556  68.264  1.00  0.00    -0.093 NA 
HETATM   16  C   UNL     1      -5.387  14.103  67.618  1.00  0.00     0.092 C  
HETATM   17  C   UNL     1      -6.426  11.197  67.288  1.00  0.00    -0.079 C  
ENDBRANCH   9  11
BRANCH   8  18
HETATM   18  C   UNL     1      -8.548   6.500  67.725  1.00  0.00    -0.117 A  
HETATM   19  C   UNL     1     -10.951   5.968  67.297  1.00  0.00    -0.356 A  
HETATM   20  C   UNL     1     -10.624   5.217  66.187  1.00  0.00    -0.251 A  
HETATM   21  C   UNL     1      -9.935   6.567  68.053  1.00  0.00    -0.146 A  
HETATM   22  C   UNL     1      -9.289   5.099  65.833  1.00  0.00    -0.167 A  
HETATM   23  C   UNL     1      -8.253   5.752  66.557  1.00  0.00    -0.106 A  
HETATM   24  C   UNL     1      -6.887   5.548  65.971  1.00  0.00    -0.058 C  
ENDBRANCH   8  18
ENDBRANCH   2   5
BRANCH   4  25
HETATM   25  C   UNL     1      -8.769   6.972  72.674  1.00  0.00    -0.135 C  
HETATM   26  C   UNL     1      -7.485   7.833  72.808  1.00  0.00    -0.121 C  
HETATM   27  C   UNL     1      -9.353   6.844  74.085  1.00  0.00    -0.267 C  
BRANCH  25  28
HETATM   28  C   UNL     1      -9.871   7.695  71.850  1.00  0.00    -0.205 A  
HETATM   29  C   UNL     1     -12.252   8.105  71.405  1.00  0.00    -0.324 A  
HETATM   30  C   UNL     1     -11.231   7.467  72.126  1.00  0.00    -0.302 A  
HETATM   31  F   UNL     1     -11.235  10.822  68.387  1.00  0.00    -0.243 F  
HETATM   32  C   UNL     1     -13.705   7.797  71.686  1.00  0.00    -0.364 C  
HETATM   33  F   UNL     1      -9.356   9.764  68.114  1.00  0.00    -0.129 F  
HETATM   34  C   UNL     1     -11.905   9.024  70.404  1.00  0.00    -0.018 A  
HETATM   35  F   UNL     1     -14.409   8.902  72.054  1.00  0.00    -0.431 F  
HETATM   36  F   UNL     1     -13.885   6.890  72.687  1.00  0.00     0.163 F  
HETATM   37  F   UNL     1      -9.496  11.371  69.570  1.00  0.00     0.051 F  
HETATM   38  C   UNL     1     -10.171  10.304  69.061  1.00  0.00    -0.210 C  
HETATM   39  C   UNL     1     -10.560   9.306  70.127  1.00  0.00    -0.266 A  
HETATM   40  F   UNL     1     -14.348   7.287  70.600  1.00  0.00    -0.258 F  
HETATM   41  C   UNL     1      -9.558   8.642  70.858  1.00  0.00    -0.252 A  
ENDBRANCH  25  28
ENDBRANCH   4  25
TORSDOF 5
ENDMDL
MODEL      166
REMARK 921   NORMALIZED FREE ENERGY PREDICTED BY IDOCK:   -3.04 KCAL/MOL
REMARK 922        TOTAL FREE ENERGY PREDICTED BY IDOCK:   -5.56 KCAL/MOL
REMARK 923 INTER-LIGAND FREE ENERGY PREDICTED BY IDOCK:   -6.94 KCAL/MOL
REMARK 924 INTRA-LIGAND FREE ENERGY PREDICTED BY IDOCK:    1.37 KCAL/MOL
REMARK 927      BINDING AFFINITY PREDICTED BY RF-SCORE:    0.00 PKD
ROOT
HETATM    1  C   UNL     1     -11.778  13.091  69.829  1.00  0.00    -0.276 C  
HETATM    2  N   UNL     1     -10.720  13.290  68.824  1.00  0.00    -0.246 N  
HETATM    3  O   UNL     1     -10.638  15.466  69.434  1.00  0.00    -0.222 OA 
HETATM    4  C   UNL     1     -10.087  14.532  68.825  1.00  0.00    -0.239 C  
ENDROOT
BRANCH   2   5
HETATM    5  C   UNL     1     -10.183  12.093  68.312  1.00  0.00    -0.208 A  
HETATM    6  C   UNL     1      -9.755  10.351  66.757  1.00  0.00    -0.224 A  
HETATM    7  C   UNL     1      -9.341  11.374  69.176  1.00  0.00     0.161 A  
HETATM    8  C   UNL     1     -10.440  11.571  67.031  1.00  0.00    -0.263 A  
HETATM    9  C   UNL     1      -8.825   9.757  67.624  1.00  0.00    -0.125 A  
HETATM   10  N   UNL     1      -8.661  10.259  68.855  1.00  0.00    -0.142 NA 
BRANCH   9  11
HETATM   11  N   UNL     1      -8.039   8.688  67.244  1.00  0.00    -0.101 NA 
HETATM   12  C   UNL     1      -8.278   8.018  65.954  1.00  0.00    -0.127 C  
HETATM   13  C   UNL     1      -7.368   6.502  68.240  1.00  0.00    -0.087 C  
HETATM   14  C   UNL     1      -8.445   6.484  66.101  1.00  0.00    -0.137 C  
HETATM   15  N   UNL     1      -7.439   5.799  66.944  1.00  0.00    -0.083 NA 
HETATM   16  C   UNL     1      -6.132   5.741  66.292  1.00  0.00    -0.029 C  
HETATM   17  C   UNL     1      -7.102   8.024  68.157  1.00  0.00    -0.089 C  
ENDBRANCH   9  11
BRANCH   8  18
HETATM   18  C   UNL     1     -11.233  12.206  65.895  1.00  0.00    -0.384 A  
HETATM   19  C   UNL     1     -13.011  13.868  65.334  1.00  0.00    -0.368 A  
HETATM   20  C   UNL     1     -12.896  13.590  63.988  1.00  0.00     0.210 A  
HETATM   21  C   UNL     1     -12.217  13.174  66.256  1.00  0.00    -0.423 A  
HETATM   22  C   UNL     1     -11.970  12.642  63.581  1.00  0.00    -0.615 A  
HETATM   23  C   UNL     1     -11.117  11.973  64.501  1.00  0.00    -0.384 A  
HETATM   24  C   UNL     1     -10.145  11.035  63.849  1.00  0.00    -0.414 C  
ENDBRANCH   8  18
ENDBRANCH   2   5
BRANCH   4  25
HETATM   25  C   UNL     1      -8.679  14.829  68.168  1.00  0.00    -0.168 C  
HETATM   26  C   UNL     1      -8.759  14.073  66.815  1.00  0.00    -0.134 C  
HETATM   27  C   UNL     1      -7.378  14.375  68.840  1.00  0.00    -0.127 C  
BRANCH  25  28
HETATM   28  C   UNL     1      -8.513  16.362  67.971  1.00  0.00    -0.183 A  
HETATM   29  C   UNL     1      -9.124  18.655  68.607  1.00  0.00    -0.344 A  
HETATM   30  C   UNL     1      -9.251  17.265  68.757  1.00  0.00    -0.238 A  
HETATM   31  F   UNL     1      -6.421  20.171  65.792  1.00  0.00    -0.199 F  
HETATM   32  C   UNL     1      -9.971  19.600  69.426  1.00  0.00    -0.170 C  
HETATM   33  F   UNL     1      -6.650  18.343  64.638  1.00  0.00    -0.105 F  
HETATM   34  C   UNL     1      -8.207  19.156  67.672  1.00  0.00    -0.316 A  
HETATM   35  F   UNL     1      -9.222  20.447  70.185  1.00  0.00     0.358 F  
HETATM   36  F   UNL     1     -10.810  18.967  70.294  1.00  0.00     0.786 F  
HETATM   37  F   UNL     1      -5.147  18.459  66.204  1.00  0.00    -0.145 F  
HETATM   38  C   UNL     1      -6.425  18.813  65.896  1.00  0.00    -0.235 C  
HETATM   39  C   UNL     1      -7.426  18.287  66.897  1.00  0.00    -0.235 A  
HETATM   40  F   UNL     1     -10.763  20.392  68.652  1.00  0.00    -0.436 F  
HETATM   41  C   UNL     1      -7.584  16.898  67.060  1.00  0.00    -0.230 A  
ENDBRANCH  25  28
ENDBRANCH   4  25
TORSDOF 5
ENDMDL
MODEL      167
REMARK 921   NORMALIZED FREE ENERGY PREDICTED BY IDOCK:   -3.01 KCAL/MOL
REMARK 922        TOTAL FREE ENERGY PREDICTED BY IDOCK:   -5.53 KCAL/MOL
REMARK 923 INTER-LIGAND FREE ENERGY PREDICTED BY IDOCK:   -3.93 KCAL/MOL
REMARK 924 INTRA-LIGAND FREE ENERGY PREDICTED BY IDOCK:   -1.60 KCAL/MOL
REMARK 927      BINDING AFFINITY PREDICTED BY RF-SCORE:    0.00 PKD
ROOT
HETATM    1  C   UNL     1     -11.014   8.279  66.861  1.00  0.00     0.336 C  
HETATM    2  N   UNL     1      -9.923   7.292  66.865  1.00  0.00    -0.216 N  
HETATM    3  O   UNL     1      -8.841   8.574  65.350  1.00  0.00    -0.179 OA 
HETATM    4  C   UNL     1      -8.769   7.637  66.163  1.00  0.00    -0.156 C  
ENDROOT
BRANCH   2   5
HETATM    5  C   UNL     1      -9.997   6.359  67.918  1.00  0.00    -0.131 A  
HETATM    6  C   UNL     1     -10.078   4.245  68.996  1.00  0.00     0.095 A  
HETATM    7  C   UNL     1     -10.078   6.894  69.214  1.00  0.00    -0.170 A  
HETATM    8  C   UNL     1     -10.015   4.960  67.764  1.00  0.00    -0.186 A  
HETATM    9  C   UNL     1     -10.024   4.848  70.262  1.00  0.00    -0.251 A  
HETATM   10  N   UNL     1     -10.070   6.183  70.355  1.00  0.00    -0.183 NA 
BRANCH   9  11
HETATM   11  N   UNL     1      -9.889   4.115  71.423  1.00  0.00    -0.187 NA 
HETATM   12  C   UNL     1      -9.797   2.646  71.363  1.00  0.00    -0.092 C  
HETATM   13  C   UNL     1     -11.109   3.936  73.591  1.00  0.00    -0.240 C  
HETATM   14  C   UNL     1     -10.822   1.946  72.291  1.00  0.00     0.210 C  
HETATM   15  N   UNL     1     -10.917   2.475  73.670  1.00  0.00    -0.194 NA 
HETATM   16  C   UNL     1      -9.741   2.129  74.466  1.00  0.00    -0.094 C  
HETATM   17  C   UNL     1     -10.053   4.701  72.758  1.00  0.00    -0.170 C  
ENDBRANCH   9  11
BRANCH   8  18
HETATM   18  C   UNL     1      -9.845   4.150  66.484  1.00  0.00    -0.214 A  
HETATM   19  C   UNL     1     -10.524   3.964  64.088  1.00  0.00    -0.246 A  
HETATM   20  C   UNL     1      -9.745   2.839  63.918  1.00  0.00    -0.142 A  
HETATM   21  C   UNL     1     -10.587   4.581  65.344  1.00  0.00    -0.195 A  
HETATM   22  C   UNL     1      -9.019   2.362  64.998  1.00  0.00    -0.126 A  
HETATM   23  C   UNL     1      -9.027   3.013  66.262  1.00  0.00    -0.154 A  
HETATM   24  C   UNL     1      -8.125   2.374  67.275  1.00  0.00    -0.071 C  
ENDBRANCH   8  18
ENDBRANCH   2   5
BRANCH   4  25
HETATM   25  C   UNL     1      -7.350   6.971  66.375  1.00  0.00    -0.080 C  
HETATM   26  C   UNL     1      -6.390   7.962  65.665  1.00  0.00    -0.042 C  
HETATM   27  C   UNL     1      -7.031   5.582  65.811  1.00  0.00    -0.066 C  
BRANCH  25  28
HETATM   28  C   UNL     1      -7.052   6.862  67.897  1.00  0.00    -0.086 A  
HETATM   29  C   UNL     1      -6.853   7.940  70.096  1.00  0.00    -0.045 A  
HETATM   30  C   UNL     1      -7.112   8.003  68.718  1.00  0.00    -0.071 A  
HETATM   31  F   UNL     1      -5.936   4.246  71.840  1.00  0.00    -0.013 F  
HETATM   32  C   UNL     1      -6.870   9.191  70.942  1.00  0.00    -0.096 C  
HETATM   33  F   UNL     1      -5.163   3.571  69.924  1.00  0.00    -0.006 F  
HETATM   34  C   UNL     1      -6.559   6.698  70.676  1.00  0.00    -0.053 A  
HETATM   35  F   UNL     1      -7.781   9.125  71.952  1.00  0.00    -0.081 F  
HETATM   36  F   UNL     1      -7.175  10.320  70.241  1.00  0.00    -0.136 F  
HETATM   37  F   UNL     1      -7.269   3.318  70.395  1.00  0.00    -0.036 F  
HETATM   38  C   UNL     1      -6.226   4.186  70.510  1.00  0.00    -0.019 C  
HETATM   39  C   UNL     1      -6.527   5.533  69.896  1.00  0.00    -0.034 A  
HETATM   40  F   UNL     1      -5.669   9.435  71.536  1.00  0.00    -0.055 F  
HETATM   41  C   UNL     1      -6.780   5.628  68.515  1.00  0.00    -0.057 A  
ENDBRANCH  25  28
ENDBRANCH   4  25
TORSDOF 5
ENDMDL
MODEL      168
REMARK 921   NORMALIZED FREE ENERGY PREDICTED BY IDOCK:   -3.00 KCAL/MOL
REMARK 922        TOTAL FREE ENERGY PREDICTED BY IDOCK:   -5.52 KCAL/MOL
REMARK 923 INTER-LIGAND FREE ENERGY PREDICTED BY IDOCK:   -8.01 KCAL/MOL
REMARK 924 INTRA-LIGAND FREE ENERGY PREDICTED BY IDOCK:    2.49 KCAL/MOL
REMARK 927      BINDING AFFINITY PREDICTED BY RF-SCORE:    0.00 PKD
ROOT
HETATM    1  C   UNL     1     -12.784  10.845  69.123  1.00  0.00     0.710 C  
HETATM    2  N   UNL     1     -11.334  11.027  69.295  1.00  0.00    -0.255 N  
HETATM    3  O   UNL     1     -11.190   8.842  69.859  1.00  0.00    -0.189 OA 
HETATM    4  C   UNL     1     -10.584   9.873  69.519  1.00  0.00    -0.242 C  
ENDROOT
BRANCH   2   5
HETATM    5  C   UNL     1     -10.841  12.240  68.774  1.00  0.00    -0.229 A  
HETATM    6  C   UNL     1     -10.483  14.578  68.581  1.00  0.00    -0.247 A  
HETATM    7  C   UNL     1     -10.021  12.136  67.638  1.00  0.00    -0.197 A  
HETATM    8  C   UNL     1     -11.123  13.519  69.288  1.00  0.00    -0.230 A  
HETATM    9  C   UNL     1      -9.570  14.388  67.532  1.00  0.00    -0.215 A  
HETATM   10  N   UNL     1      -9.383  13.157  67.040  1.00  0.00    -0.230 NA 
BRANCH   9  11
HETATM   11  N   UNL     1      -8.824  15.424  67.007  1.00  0.00    -0.211 NA 
HETATM   12  C   UNL     1      -7.366  15.466  67.219  1.00  0.00    -0.204 C  
HETATM   13  C   UNL     1      -8.894  17.916  67.088  1.00  0.00    -0.247 C  
HETATM   14  C   UNL     1      -6.888  16.820  67.803  1.00  0.00    -0.139 C  
HETATM   15  N   UNL     1      -7.424  18.035  67.148  1.00  0.00    -0.200 NA 
HETATM   16  C   UNL     1      -6.846  18.236  65.821  1.00  0.00    -0.275 C  
HETATM   17  C   UNL     1      -9.430  16.625  66.422  1.00  0.00    -0.280 C  
ENDBRANCH   9  11
BRANCH   8  18
HETATM   18  C   UNL     1     -11.899  13.878  70.549  1.00  0.00    -0.317 A  
HETATM   19  C   UNL     1     -13.443  13.005  72.308  1.00  0.00    -0.645 A  
HETATM   20  C   UNL     1     -13.480  14.233  72.935  1.00  0.00    -0.491 A  
HETATM   21  C   UNL     1     -12.692  12.847  71.136  1.00  0.00    -0.366 A  
HETATM   22  C   UNL     1     -12.746  15.278  72.396  1.00  0.00    -0.449 A  
HETATM   23  C   UNL     1     -11.933  15.116  71.241  1.00  0.00    -0.399 A  
HETATM   24  C   UNL     1     -11.171  16.351  70.862  1.00  0.00    -0.167 C  
ENDBRANCH   8  18
ENDBRANCH   2   5
BRANCH   4  25
HETATM   25  C   UNL     1      -9.022   9.755  69.302  1.00  0.00    -0.177 C  
HETATM   26  C   UNL     1      -8.541   9.062  70.604  1.00  0.00    -0.245 C  
HETATM   27  C   UNL     1      -8.147  11.001  69.127  1.00  0.00    -0.066 C  
BRANCH  25  28
HETATM   28  C   UNL     1      -8.739   8.888  68.043  1.00  0.00    -0.133 A  
HETATM   29  C   UNL     1      -8.467   6.672  67.018  1.00  0.00    -0.113 A  
HETATM   30  C   UNL     1      -8.716   7.485  68.135  1.00  0.00    -0.122 A  
HETATM   31  F   UNL     1      -7.838   8.460  63.285  1.00  0.00    -0.120 F  
HETATM   32  C   UNL     1      -8.393   5.169  67.158  1.00  0.00    -0.107 C  
HETATM   33  F   UNL     1      -7.110  10.240  64.298  1.00  0.00    -0.133 F  
HETATM   34  C   UNL     1      -8.270   7.276  65.768  1.00  0.00    -0.135 A  
HETATM   35  F   UNL     1      -9.310   4.528  66.382  1.00  0.00    -0.123 F  
HETATM   36  F   UNL     1      -8.609   4.729  68.430  1.00  0.00    -0.096 F  
HETATM   37  F   UNL     1      -9.231  10.018  63.880  1.00  0.00    -0.225 F  
HETATM   38  C   UNL     1      -8.127   9.335  64.288  1.00  0.00    -0.144 C  
HETATM   39  C   UNL     1      -8.323   8.670  65.631  1.00  0.00    -0.151 A  
HETATM   40  F   UNL     1      -7.180   4.672  66.793  1.00  0.00    -0.072 F  
HETATM   41  C   UNL     1      -8.563   9.461  66.770  1.00  0.00    -0.134 A  
ENDBRANCH  25  28
ENDBRANCH   4  25
TORSDOF 5
ENDMDL
MODEL      169
REMARK 921   NORMALIZED FREE ENERGY PREDICTED BY IDOCK:   -2.84 KCAL/MOL
REMARK 922        TOTAL FREE ENERGY PREDICTED BY IDOCK:   -5.31 KCAL/MOL
REMARK 923 INTER-LIGAND FREE ENERGY PREDICTED BY IDOCK:   -4.85 KCAL/MOL
REMARK 924 INTRA-LIGAND FREE ENERGY PREDICTED BY IDOCK:   -0.47 KCAL/MOL
REMARK 927      BINDING AFFINITY PREDICTED BY RF-SCORE:    0.00 PKD
ROOT
HETATM    1  C   UNL     1      -8.596  14.872  68.295  1.00  0.00    -0.160 C  
HETATM    2  N   UNL     1      -9.107  13.502  68.465  1.00  0.00    -0.142 N  
HETATM    3  O   UNL     1     -10.486  14.284  70.078  1.00  0.00     0.194 OA 
HETATM    4  C   UNL     1     -10.208  13.349  69.307  1.00  0.00     0.325 C  
ENDROOT
BRANCH   2   5
HETATM    5  C   UNL     1      -8.728  12.616  67.437  1.00  0.00    -0.191 A  
HETATM    6  C   UNL     1      -8.704  11.605  65.290  1.00  0.00     0.324 A  
HETATM    7  C   UNL     1      -7.732  11.682  67.763  1.00  0.00    -0.126 A  
HETATM    8  C   UNL     1      -9.280  12.591  66.142  1.00  0.00    -0.077 A  
HETATM    9  C   UNL     1      -7.618  10.791  65.646  1.00  0.00    -0.044 A  
HETATM   10  N   UNL     1      -7.169  10.810  66.908  1.00  0.00    -0.108 NA 
BRANCH   9  11
HETATM   11  N   UNL     1      -6.964   9.990  64.731  1.00  0.00    -0.133 NA 
HETATM   12  C   UNL     1      -7.591   9.687  63.433  1.00  0.00    -0.124 C  
HETATM   13  C   UNL     1      -5.923   7.723  64.742  1.00  0.00    -0.041 C  
HETATM   14  C   UNL     1      -7.645   8.166  63.138  1.00  0.00    -0.128 C  
HETATM   15  N   UNL     1      -6.393   7.414  63.378  1.00  0.00    -0.053 NA 
HETATM   16  C   UNL     1      -5.375   7.720  62.375  1.00  0.00    -0.059 C  
HETATM   17  C   UNL     1      -5.754   9.228  65.061  1.00  0.00    -0.058 C  
ENDBRANCH   9  11
BRANCH   8  18
HETATM   18  C   UNL     1     -10.292  13.551  65.530  1.00  0.00    -0.309 A  
HETATM   19  C   UNL     1     -10.751  15.942  64.971  1.00  0.00    -0.426 A  
HETATM   20  C   UNL     1     -11.983  15.619  64.443  1.00  0.00    -0.139 A  
HETATM   21  C   UNL     1      -9.946  14.935  65.518  1.00  0.00    -0.392 A  
HETATM   22  C   UNL     1     -12.383  14.292  64.447  1.00  0.00    -0.417 A  
HETATM   23  C   UNL     1     -11.550  13.252  64.946  1.00  0.00    -0.353 A  
HETATM   24  C   UNL     1     -12.142  11.882  64.799  1.00  0.00    -0.177 C  
ENDBRANCH   8  18
ENDBRANCH   2   5
BRANCH   4  25
HETATM   25  C   UNL     1     -11.178  12.099  69.307  1.00  0.00    -0.288 C  
HETATM   26  C   UNL     1     -12.133  12.399  68.122  1.00  0.00    -0.100 C  
HETATM   27  C   UNL     1     -12.070  11.786  70.513  1.00  0.00    -0.439 C  
BRANCH  25  28
HETATM   28  C   UNL     1     -10.352  10.803  69.075  1.00  0.00    -0.235 A  
HETATM   29  C   UNL     1      -8.568   9.274  69.797  1.00  0.00    -0.164 A  
HETATM   30  C   UNL     1      -9.332  10.439  69.973  1.00  0.00     0.210 A  
HETATM   31  F   UNL     1      -9.385   6.766  66.545  1.00  0.00    -0.158 F  
HETATM   32  C   UNL     1      -7.442   8.937  70.746  1.00  0.00    -0.099 C  
HETATM   33  F   UNL     1     -10.158   8.483  65.458  1.00  0.00    -0.015 F  
HETATM   34  C   UNL     1      -8.855   8.432  68.713  1.00  0.00    -0.140 A  
HETATM   35  F   UNL     1      -7.619   7.734  71.357  1.00  0.00    -0.073 F  
HETATM   36  F   UNL     1      -7.286   9.846  71.750  1.00  0.00     0.473 F  
HETATM   37  F   UNL     1     -11.477   7.322  66.737  1.00  0.00    -0.247 F  
HETATM   38  C   UNL     1     -10.219   7.837  66.655  1.00  0.00    -0.218 C  
HETATM   39  C   UNL     1      -9.890   8.742  67.819  1.00  0.00    -0.217 A  
HETATM   40  F   UNL     1      -6.237   8.866  70.118  1.00  0.00    -0.034 F  
HETATM   41  C   UNL     1     -10.630   9.923  68.014  1.00  0.00    -0.288 A  
ENDBRANCH  25  28
ENDBRANCH   4  25
TORSDOF 5
ENDMDL
MODEL      170
REMARK 921   NORMALIZED FREE ENERGY PREDICTED BY IDOCK:   -2.82 KCAL/MOL
REMARK 922        TOTAL FREE ENERGY PREDICTED BY IDOCK:   -5.29 KCAL/MOL
REMARK 923 INTER-LIGAND FREE ENERGY PREDICTED BY IDOCK:   -3.59 KCAL/MOL
REMARK 924 INTRA-LIGAND FREE ENERGY PREDICTED BY IDOCK:   -1.70 KCAL/MOL
REMARK 927      BINDING AFFINITY PREDICTED BY RF-SCORE:    0.00 PKD
ROOT
HETATM    1  C   UNL     1     -12.375   8.592  70.492  1.00  0.00     0.316 C  
HETATM    2  N   UNL     1     -10.976   8.193  70.270  1.00  0.00    -0.249 N  
HETATM    3  O   UNL     1     -10.637   8.372  72.498  1.00  0.00    -0.328 OA 
HETATM    4  C   UNL     1     -10.209   7.952  71.409  1.00  0.00    -0.190 C  
ENDROOT
BRANCH   2   5
HETATM    5  C   UNL     1     -10.723   7.677  68.983  1.00  0.00    -0.119 A  
HETATM    6  C   UNL     1      -9.920   7.602  66.751  1.00  0.00    -0.317 A  
HETATM    7  C   UNL     1     -11.200   6.380  68.734  1.00  0.00    -0.274 A  
HETATM    8  C   UNL     1     -10.058   8.361  67.949  1.00  0.00    -0.254 A  
HETATM    9  C   UNL     1     -10.308   6.260  66.618  1.00  0.00    -0.170 A  
HETATM   10  N   UNL     1     -10.992   5.673  67.609  1.00  0.00    -0.085 NA 
BRANCH   9  11
HETATM   11  N   UNL     1      -9.980   5.503  65.512  1.00  0.00     0.204 NA 
HETATM   12  C   UNL     1     -10.147   4.039  65.542  1.00  0.00    -0.134 C  
HETATM   13  C   UNL     1      -7.981   5.230  64.045  1.00  0.00    -0.112 C  
HETATM   14  C   UNL     1      -8.859   3.284  65.129  1.00  0.00    -0.130 C  
HETATM   15  N   UNL     1      -8.182   3.774  63.907  1.00  0.00    -0.089 NA 
HETATM   16  C   UNL     1      -8.936   3.446  62.700  1.00  0.00    -0.088 C  
HETATM   17  C   UNL     1      -9.256   6.050  64.359  1.00  0.00     0.887 C  
ENDBRANCH   9  11
BRANCH   8  18
HETATM   18  C   UNL     1      -9.375   9.723  68.007  1.00  0.00    -0.138 A  
HETATM   19  C   UNL     1      -7.745  11.131  69.271  1.00  0.00    -0.027 A  
HETATM   20  C   UNL     1      -7.925  12.184  68.399  1.00  0.00    -0.152 A  
HETATM   21  C   UNL     1      -8.471   9.948  69.088  1.00  0.00    -0.148 A  
HETATM   22  C   UNL     1      -8.808  12.030  67.341  1.00  0.00    -0.178 A  
HETATM   23  C   UNL     1      -9.507  10.813  67.110  1.00  0.00    -0.180 A  
HETATM   24  C   UNL     1     -10.361  10.834  65.878  1.00  0.00    -0.302 C  
ENDBRANCH   8  18
ENDBRANCH   2   5
BRANCH   4  25
HETATM   25  C   UNL     1      -8.866   7.118  71.433  1.00  0.00    -0.131 C  
HETATM   26  C   UNL     1      -8.266   7.463  72.823  1.00  0.00    -0.134 C  
HETATM   27  C   UNL     1      -7.754   7.371  70.409  1.00  0.00    -0.093 C  
BRANCH  25  28
HETATM   28  C   UNL     1      -9.194   5.604  71.301  1.00  0.00    -0.164 A  
HETATM   29  C   UNL     1      -8.791   3.441  70.208  1.00  0.00    -0.143 A  
HETATM   30  C   UNL     1      -8.522   4.811  70.353  1.00  0.00    -0.102 A  
HETATM   31  F   UNL     1     -11.622   1.635  72.708  1.00  0.00    -0.219 F  
HETATM   32  C   UNL     1      -8.095   2.626  69.143  1.00  0.00    -0.051 C  
HETATM   33  F   UNL     1     -12.615   3.557  72.916  1.00  0.00     0.438 F  
HETATM   34  C   UNL     1      -9.730   2.839  71.057  1.00  0.00    -0.160 A  
HETATM   35  F   UNL     1      -7.386   1.586  69.663  1.00  0.00    -0.036 F  
HETATM   36  F   UNL     1      -7.207   3.345  68.400  1.00  0.00    -0.049 F  
HETATM   37  F   UNL     1     -11.007   3.012  74.274  1.00  0.00    -0.236 F  
HETATM   38  C   UNL     1     -11.397   2.952  72.970  1.00  0.00     0.158 C  
HETATM   39  C   UNL     1     -10.392   3.590  72.039  1.00  0.00    -0.050 A  
HETATM   40  F   UNL     1      -8.967   2.077  68.254  1.00  0.00    -0.108 F  
HETATM   41  C   UNL     1     -10.111   4.964  72.153  1.00  0.00    -0.250 A  
ENDBRANCH  25  28
ENDBRANCH   4  25
TORSDOF 5
ENDMDL
MODEL      171
REMARK 921   NORMALIZED FREE ENERGY PREDICTED BY IDOCK:   -2.82 KCAL/MOL
REMARK 922        TOTAL FREE ENERGY PREDICTED BY IDOCK:   -5.29 KCAL/MOL
REMARK 923 INTER-LIGAND FREE ENERGY PREDICTED BY IDOCK:   -4.07 KCAL/MOL
REMARK 924 INTRA-LIGAND FREE ENERGY PREDICTED BY IDOCK:   -1.22 KCAL/MOL
REMARK 927      BINDING AFFINITY PREDICTED BY RF-SCORE:    0.00 PKD
ROOT
HETATM    1  C   UNL     1     -11.369   7.130  67.065  1.00  0.00     0.392 C  
HETATM    2  N   UNL     1     -10.252   8.056  67.309  1.00  0.00    -0.246 N  
HETATM    3  O   UNL     1      -9.043   6.902  65.786  1.00  0.00    -0.077 OA 
HETATM    4  C   UNL     1      -9.149   7.939  66.464  1.00  0.00    -0.170 C  
ENDROOT
BRANCH   2   5
HETATM    5  C   UNL     1     -10.609   9.206  68.040  1.00  0.00    -0.197 A  
HETATM    6  C   UNL     1     -10.556  10.829  69.771  1.00  0.00    -0.191 A  
HETATM    7  C   UNL     1     -11.658   9.975  67.508  1.00  0.00     0.929 A  
HETATM    8  C   UNL     1     -10.016   9.618  69.248  1.00  0.00    -0.197 A  
HETATM    9  C   UNL     1     -11.516  11.614  69.115  1.00  0.00    -0.300 A  
HETATM   10  N   UNL     1     -12.094  11.148  68.000  1.00  0.00    -0.587 NA 
BRANCH   9  11
HETATM   11  N   UNL     1     -11.867  12.874  69.556  1.00  0.00    -0.323 NA 
HETATM   12  C   UNL     1     -12.360  13.881  68.600  1.00  0.00     0.003 C  
HETATM   13  C   UNL     1     -10.780  14.685  70.882  1.00  0.00     0.509 C  
HETATM   14  C   UNL     1     -11.582  15.219  68.690  1.00  0.00    -0.354 C  
HETATM   15  N   UNL     1     -11.369  15.755  70.053  1.00  0.00    -0.320 NA 
HETATM   16  C   UNL     1     -12.607  16.267  70.636  1.00  0.00     0.783 C  
HETATM   17  C   UNL     1     -11.571  13.355  70.910  1.00  0.00     0.624 C  
ENDBRANCH   9  11
BRANCH   8  18
HETATM   18  C   UNL     1      -8.815   9.011  69.964  1.00  0.00    -0.181 A  
HETATM   19  C   UNL     1      -6.650   9.522  71.099  1.00  0.00    -0.027 A  
HETATM   20  C   UNL     1      -6.425   8.184  71.348  1.00  0.00    -0.042 A  
HETATM   21  C   UNL     1      -7.802   9.914  70.405  1.00  0.00    -0.066 A  
HETATM   22  C   UNL     1      -7.366   7.260  70.923  1.00  0.00    -0.074 A  
HETATM   23  C   UNL     1      -8.568   7.649  70.270  1.00  0.00    -0.143 A  
HETATM   24  C   UNL     1      -9.480   6.501  69.951  1.00  0.00    -0.161 C  
ENDBRANCH   8  18
ENDBRANCH   2   5
BRANCH   4  25
HETATM   25  C   UNL     1      -8.056   9.061  66.245  1.00  0.00    -0.110 C  
HETATM   26  C   UNL     1      -7.357   8.616  64.933  1.00  0.00    -0.090 C  
HETATM   27  C   UNL     1      -6.941   9.296  67.270  1.00  0.00    -0.081 C  
BRANCH  25  28
HETATM   28  C   UNL     1      -8.754  10.442  66.092  1.00  0.00    -0.163 A  
HETATM   29  C   UNL     1     -10.469  11.837  65.020  1.00  0.00    -0.332 A  
HETATM   30  C   UNL     1      -9.814  10.606  65.181  1.00  0.00    -0.344 A  
HETATM   31  F   UNL     1      -9.294  15.103  67.361  1.00  0.00    -0.188 F  
HETATM   32  C   UNL     1     -11.566  11.999  63.994  1.00  0.00    -0.411 C  
HETATM   33  F   UNL     1      -7.308  14.234  67.517  1.00  0.00    -0.143 F  
HETATM   34  C   UNL     1     -10.079  12.923  65.816  1.00  0.00    -0.294 A  
HETATM   35  F   UNL     1     -12.747  12.385  64.550  1.00  0.00    -0.516 F  
HETATM   36  F   UNL     1     -11.836  10.857  63.301  1.00  0.00     0.045 F  
HETATM   37  F   UNL     1      -8.844  13.701  68.959  1.00  0.00    -0.042 F  
HETATM   38  C   UNL     1      -8.633  13.945  67.636  1.00  0.00    -0.190 C  
HETATM   39  C   UNL     1      -9.053  12.787  66.762  1.00  0.00    -0.209 A  
HETATM   40  F   UNL     1     -11.267  12.941  63.058  1.00  0.00    -0.416 F  
HETATM   41  C   UNL     1      -8.406  11.544  66.893  1.00  0.00    -0.166 A  
ENDBRANCH  25  28
ENDBRANCH   4  25
TORSDOF 5
ENDMDL
MODEL      172
REMARK 921   NORMALIZED FREE ENERGY PREDICTED BY IDOCK:   -2.81 KCAL/MOL
REMARK 922        TOTAL FREE ENERGY PREDICTED BY IDOCK:   -5.27 KCAL/MOL
REMARK 923 INTER-LIGAND FREE ENERGY PREDICTED BY IDOCK:   -5.72 KCAL/MOL
REMARK 924 INTRA-LIGAND FREE ENERGY PREDICTED BY IDOCK:    0.45 KCAL/MOL
REMARK 927      BINDING AFFINITY PREDICTED BY RF-SCORE:    0.00 PKD
ROOT
HETATM    1  C   UNL     1     -10.481   8.124  66.658  1.00  0.00    -0.134 C  
HETATM    2  N   UNL     1      -9.445   8.241  67.697  1.00  0.00    -0.146 N  
HETATM    3  O   UNL     1      -9.135   6.006  67.551  1.00  0.00    -0.112 OA 
HETATM    4  C   UNL     1      -8.697   7.094  67.961  1.00  0.00    -0.127 C  
ENDROOT
BRANCH   2   5
HETATM    5  C   UNL     1      -9.041   9.565  67.958  1.00  0.00    -0.123 A  
HETATM    6  C   UNL     1      -8.938  11.667  69.055  1.00  0.00     0.195 A  
HETATM    7  C   UNL     1      -8.091  10.107  67.077  1.00  0.00    -0.117 A  
HETATM    8  C   UNL     1      -9.527  10.370  69.005  1.00  0.00    -0.205 A  
HETATM    9  C   UNL     1      -7.897  12.094  68.217  1.00  0.00    -0.153 A  
HETATM   10  N   UNL     1      -7.512  11.314  67.198  1.00  0.00    -0.122 NA 
BRANCH   9  11
HETATM   11  N   UNL     1      -7.222  13.280  68.424  1.00  0.00    -0.101 NA 
HETATM   12  C   UNL     1      -5.977  13.294  69.213  1.00  0.00    -0.094 C  
HETATM   13  C   UNL     1      -7.788  15.544  69.305  1.00  0.00    -0.227 C  
HETATM   14  C   UNL     1      -6.009  14.336  70.359  1.00  0.00    -0.171 C  
HETATM   15  N   UNL     1      -6.490  15.688  69.994  1.00  0.00    -0.134 NA 
HETATM   16  C   UNL     1      -5.520  16.406  69.172  1.00  0.00    -0.121 C  
HETATM   17  C   UNL     1      -7.790  14.590  68.086  1.00  0.00    -0.135 C  
ENDBRANCH   9  11
BRANCH   8  18
HETATM   18  C   UNL     1     -10.477   9.981  70.131  1.00  0.00    -0.338 A  
HETATM   19  C   UNL     1     -10.807   8.455  72.081  1.00  0.00    -0.407 A  
HETATM   20  C   UNL     1     -12.041   9.008  72.350  1.00  0.00    -0.289 A  
HETATM   21  C   UNL     1     -10.064   8.916  70.987  1.00  0.00    -0.324 A  
HETATM   22  C   UNL     1     -12.504  10.032  71.538  1.00  0.00    -0.516 A  
HETATM   23  C   UNL     1     -11.734  10.550  70.460  1.00  0.00    -0.443 A  
HETATM   24  C   UNL     1     -12.387  11.698  69.749  1.00  0.00    -0.197 C  
ENDBRANCH   8  18
ENDBRANCH   2   5
BRANCH   4  25
HETATM   25  C   UNL     1      -7.290   7.081  68.684  1.00  0.00    -0.097 C  
HETATM   26  C   UNL     1      -7.096   8.564  69.098  1.00  0.00    -0.064 C  
HETATM   27  C   UNL     1      -6.016   6.671  67.936  1.00  0.00    -0.024 C  
BRANCH  25  28
HETATM   28  C   UNL     1      -7.351   6.135  69.916  1.00  0.00    -0.079 A  
HETATM   29  C   UNL     1      -7.638   5.833  72.338  1.00  0.00    -0.101 A  
HETATM   30  C   UNL     1      -7.574   6.657  71.204  1.00  0.00    -0.089 A  
HETATM   31  F   UNL     1      -7.224   1.692  71.883  1.00  0.00    -0.030 F  
HETATM   32  C   UNL     1      -7.822   6.427  73.715  1.00  0.00    -0.091 C  
HETATM   33  F   UNL     1      -6.047   2.040  70.090  1.00  0.00    -0.020 F  
HETATM   34  C   UNL     1      -7.512   4.446  72.177  1.00  0.00    -0.072 A  
HETATM   35  F   UNL     1      -8.941   5.964  74.336  1.00  0.00    -0.122 F  
HETATM   36  F   UNL     1      -7.934   7.786  73.711  1.00  0.00    -0.142 F  
HETATM   37  F   UNL     1      -8.210   1.880  69.955  1.00  0.00    -0.047 F  
HETATM   38  C   UNL     1      -7.203   2.392  70.716  1.00  0.00    -0.033 C  
HETATM   39  C   UNL     1      -7.326   3.886  70.905  1.00  0.00    -0.037 A  
HETATM   40  F   UNL     1      -6.785   6.140  74.548  1.00  0.00    -0.076 F  
HETATM   41  C   UNL     1      -7.254   4.738  69.788  1.00  0.00    -0.055 A  
ENDBRANCH  25  28
ENDBRANCH   4  25
TORSDOF 5
ENDMDL
MODEL      173
REMARK 921   NORMALIZED FREE ENERGY PREDICTED BY IDOCK:   -2.74 KCAL/MOL
REMARK 922        TOTAL FREE ENERGY PREDICTED BY IDOCK:   -5.18 KCAL/MOL
REMARK 923 INTER-LIGAND FREE ENERGY PREDICTED BY IDOCK:   -8.26 KCAL/MOL
REMARK 924 INTRA-LIGAND FREE ENERGY PREDICTED BY IDOCK:    3.08 KCAL/MOL
REMARK 927      BINDING AFFINITY PREDICTED BY RF-SCORE:    0.00 PKD
ROOT
HETATM    1  C   UNL     1      -9.686  14.873  69.112  1.00  0.00    -0.183 C  
HETATM    2  N   UNL     1     -10.412  13.881  68.301  1.00  0.00    -0.243 N  
HETATM    3  O   UNL     1     -10.247  15.292  66.542  1.00  0.00    -0.260 OA 
HETATM    4  C   UNL     1     -10.500  14.139  66.934  1.00  0.00    -0.272 C  
ENDROOT
BRANCH   2   5
HETATM    5  C   UNL     1     -10.525  12.615  68.908  1.00  0.00    -0.080 A  
HETATM    6  C   UNL     1     -11.308  10.941  70.398  1.00  0.00    -0.289 A  
HETATM    7  C   UNL     1      -9.697  11.606  68.391  1.00  0.00    -0.199 A  
HETATM    8  C   UNL     1     -11.376  12.303  69.985  1.00  0.00    -0.002 A  
HETATM    9  C   UNL     1     -10.550   9.956  69.747  1.00  0.00    -0.264 A  
HETATM   10  N   UNL     1      -9.710  10.315  68.767  1.00  0.00    -0.169 NA 
BRANCH   9  11
HETATM   11  N   UNL     1     -10.662   8.615  70.053  1.00  0.00    -0.228 NA 
HETATM   12  C   UNL     1     -11.062   8.198  71.409  1.00  0.00    -0.247 C  
HETATM   13  C   UNL     1      -9.202   6.600  69.880  1.00  0.00    -0.146 C  
HETATM   14  C   UNL     1     -10.079   7.176  72.033  1.00  0.00    -0.177 C  
HETATM   15  N   UNL     1      -9.677   6.047  71.163  1.00  0.00    -0.175 NA 
HETATM   16  C   UNL     1     -10.770   5.097  70.968  1.00  0.00    -0.063 C  
HETATM   17  C   UNL     1     -10.189   7.552  69.160  1.00  0.00    -0.202 C  
ENDBRANCH   9  11
BRANCH   8  18
HETATM   18  C   UNL     1     -12.422  13.192  70.648  1.00  0.00    -0.363 A  
HETATM   19  C   UNL     1     -13.373  15.500  70.736  1.00  0.00    -0.315 A  
HETATM   20  C   UNL     1     -14.279  15.128  71.706  1.00  0.00    -0.674 A  
HETATM   21  C   UNL     1     -12.458  14.560  70.244  1.00  0.00    -0.405 A  
HETATM   22  C   UNL     1     -14.276  13.815  72.152  1.00  0.00    -0.544 A  
HETATM   23  C   UNL     1     -13.392  12.837  71.619  1.00  0.00    -0.345 A  
HETATM   24  C   UNL     1     -13.596  11.465  72.192  1.00  0.00    -0.084 C  
ENDBRANCH   8  18
ENDBRANCH   2   5
BRANCH   4  25
HETATM   25  C   UNL     1     -10.827  13.055  65.830  1.00  0.00    -0.292 C  
HETATM   26  C   UNL     1     -11.128  13.917  64.574  1.00  0.00    -0.374 C  
HETATM   27  C   UNL     1     -12.010  12.093  65.986  1.00  0.00    -0.236 C  
BRANCH  25  28
HETATM   28  C   UNL     1      -9.591  12.137  65.623  1.00  0.00    -0.177 A  
HETATM   29  C   UNL     1      -8.462  10.363  64.351  1.00  0.00    -0.166 A  
HETATM   30  C   UNL     1      -9.563  11.206  64.569  1.00  0.00    -0.288 A  
HETATM   31  F   UNL     1      -5.126  10.665  66.863  1.00  0.00    -0.038 F  
HETATM   32  C   UNL     1      -8.484   9.334  63.245  1.00  0.00    -0.204 C  
HETATM   33  F   UNL     1      -6.424  11.406  68.442  1.00  0.00    -0.049 F  
HETATM   34  C   UNL     1      -7.343  10.478  65.188  1.00  0.00    -0.029 A  
HETATM   35  F   UNL     1      -7.474   9.510  62.350  1.00  0.00    -0.107 F  
HETATM   36  F   UNL     1      -9.635   9.344  62.514  1.00  0.00    -0.188 F  
HETATM   37  F   UNL     1      -5.535  12.794  67.026  1.00  0.00    -0.076 F  
HETATM   38  C   UNL     1      -6.114  11.566  67.126  1.00  0.00    -0.115 C  
HETATM   39  C   UNL     1      -7.318  11.421  66.226  1.00  0.00     0.063 A  
HETATM   40  F   UNL     1      -8.352   8.063  63.714  1.00  0.00    -0.150 F  
HETATM   41  C   UNL     1      -8.441  12.244  66.427  1.00  0.00     0.096 A  
ENDBRANCH  25  28
ENDBRANCH   4  25
TORSDOF 5
ENDMDL
MODEL      174
REMARK 921   NORMALIZED FREE ENERGY PREDICTED BY IDOCK:   -2.58 KCAL/MOL
REMARK 922        TOTAL FREE ENERGY PREDICTED BY IDOCK:   -4.98 KCAL/MOL
REMARK 923 INTER-LIGAND FREE ENERGY PREDICTED BY IDOCK:   -6.25 KCAL/MOL
REMARK 924 INTRA-LIGAND FREE ENERGY PREDICTED BY IDOCK:    1.28 KCAL/MOL
REMARK 927      BINDING AFFINITY PREDICTED BY RF-SCORE:    0.00 PKD
ROOT
HETATM    1  C   UNL     1     -12.591   7.829  70.932  1.00  0.00    -0.019 C  
HETATM    2  N   UNL     1     -11.164   8.179  71.019  1.00  0.00    -0.254 N  
HETATM    3  O   UNL     1     -11.153   7.348  73.122  1.00  0.00    -0.353 OA 
HETATM    4  C   UNL     1     -10.480   7.728  72.148  1.00  0.00    -0.231 C  
ENDROOT
BRANCH   2   5
HETATM    5  C   UNL     1     -10.578   8.513  69.782  1.00  0.00    -0.224 A  
HETATM    6  C   UNL     1     -10.002   9.833  67.896  1.00  0.00    -0.196 A  
HETATM    7  C   UNL     1      -9.823   7.504  69.163  1.00  0.00    -0.170 A  
HETATM    8  C   UNL     1     -10.711   9.752  69.129  1.00  0.00    -0.242 A  
HETATM    9  C   UNL     1      -9.159   8.826  67.403  1.00  0.00    -0.133 A  
HETATM   10  N   UNL     1      -9.114   7.642  68.029  1.00  0.00    -0.135 NA 
BRANCH   9  11
HETATM   11  N   UNL     1      -8.339   9.018  66.309  1.00  0.00    -0.117 NA 
HETATM   12  C   UNL     1      -8.601  10.128  65.375  1.00  0.00    -0.155 C  
HETATM   13  C   UNL     1      -7.518   7.629  64.407  1.00  0.00    -0.099 C  
HETATM   14  C   UNL     1      -8.686   9.658  63.901  1.00  0.00    -0.221 C  
HETATM   15  N   UNL     1      -7.611   8.747  63.447  1.00  0.00    -0.108 NA 
HETATM   16  C   UNL     1      -6.334   9.442  63.304  1.00  0.00    -0.093 C  
HETATM   17  C   UNL     1      -7.330   8.039  65.888  1.00  0.00    -0.076 C  
ENDBRANCH   9  11
BRANCH   8  18
HETATM   18  C   UNL     1     -11.392  11.018  69.637  1.00  0.00    -0.363 A  
HETATM   19  C   UNL     1     -12.869  11.960  71.418  1.00  0.00    -0.411 A  
HETATM   20  C   UNL     1     -12.809  13.216  70.851  1.00  0.00    -0.237 A  
HETATM   21  C   UNL     1     -12.198  10.892  70.809  1.00  0.00    -0.483 A  
HETATM   22  C   UNL     1     -12.059  13.392  69.699  1.00  0.00    -0.349 A  
HETATM   23  C   UNL     1     -11.325  12.330  69.104  1.00  0.00    -0.330 A  
HETATM   24  C   UNL     1     -10.529  12.746  67.903  1.00  0.00    -0.226 C  
ENDBRANCH   8  18
ENDBRANCH   2   5
BRANCH   4  25
HETATM   25  C   UNL     1      -8.908   7.596  72.259  1.00  0.00    -0.170 C  
HETATM   26  C   UNL     1      -8.629   7.977  73.737  1.00  0.00    -0.328 C  
HETATM   27  C   UNL     1      -7.975   8.463  71.406  1.00  0.00    -0.152 C  
BRANCH  25  28
HETATM   28  C   UNL     1      -8.489   6.132  71.945  1.00  0.00    -0.129 A  
HETATM   29  C   UNL     1      -7.243   4.109  72.572  1.00  0.00    -0.066 A  
HETATM   30  C   UNL     1      -7.639   5.432  72.822  1.00  0.00    -0.098 A  
HETATM   31  F   UNL     1      -8.678   2.153  69.160  1.00  0.00    -0.081 F  
HETATM   32  C   UNL     1      -6.286   3.401  73.501  1.00  0.00    -0.023 C  
HETATM   33  F   UNL     1      -8.895   4.083  68.185  1.00  0.00    -0.101 F  
HETATM   34  C   UNL     1      -7.738   3.455  71.435  1.00  0.00    -0.055 A  
HETATM   35  F   UNL     1      -6.818   2.266  74.032  1.00  0.00    -0.020 F  
HETATM   36  F   UNL     1      -5.896   4.161  74.564  1.00  0.00    -0.018 F  
HETATM   37  F   UNL     1     -10.523   3.281  69.380  1.00  0.00     0.628 F  
HETATM   38  C   UNL     1      -9.168   3.411  69.337  1.00  0.00    -0.151 C  
HETATM   39  C   UNL     1      -8.616   4.108  70.558  1.00  0.00    -0.111 A  
HETATM   40  F   UNL     1      -5.139   3.020  72.875  1.00  0.00     0.000 F  
HETATM   41  C   UNL     1      -8.987   5.438  70.828  1.00  0.00    -0.156 A  
ENDBRANCH  25  28
ENDBRANCH   4  25
TORSDOF 5
ENDMDL
MODEL      175
REMARK 921   NORMALIZED FREE ENERGY PREDICTED BY IDOCK:   -2.56 KCAL/MOL
REMARK 922        TOTAL FREE ENERGY PREDICTED BY IDOCK:   -4.95 KCAL/MOL
REMARK 923 INTER-LIGAND FREE ENERGY PREDICTED BY IDOCK:   -4.65 KCAL/MOL
REMARK 924 INTRA-LIGAND FREE ENERGY PREDICTED BY IDOCK:   -0.30 KCAL/MOL
REMARK 927      BINDING AFFINITY PREDICTED BY RF-SCORE:    0.00 PKD
ROOT
HETATM    1  C   UNL     1     -12.615  13.856  67.000  1.00  0.00     0.089 C  
HETATM    2  N   UNL     1     -11.420  14.358  67.698  1.00  0.00    -0.328 N  
HETATM    3  O   UNL     1     -12.651  16.116  68.410  1.00  0.00     0.802 OA 
HETATM    4  C   UNL     1     -11.605  15.457  68.537  1.00  0.00    -0.359 C  
ENDROOT
BRANCH   2   5
HETATM    5  C   UNL     1     -10.373  13.420  67.790  1.00  0.00    -0.241 A  
HETATM    6  C   UNL     1      -8.184  12.525  67.581  1.00  0.00    -0.172 A  
HETATM    7  C   UNL     1     -10.706  12.174  68.346  1.00  0.00    -0.228 A  
HETATM    8  C   UNL     1      -9.051  13.633  67.356  1.00  0.00    -0.222 A  
HETATM    9  C   UNL     1      -8.558  11.357  68.262  1.00  0.00    -0.156 A  
HETATM   10  N   UNL     1      -9.842  11.176  68.601  1.00  0.00    -0.198 NA 
BRANCH   9  11
HETATM   11  N   UNL     1      -7.642  10.393  68.633  1.00  0.00    -0.086 NA 
HETATM   12  C   UNL     1      -6.998   9.553  67.608  1.00  0.00    -0.080 C  
HETATM   13  C   UNL     1      -7.596   8.468  70.219  1.00  0.00    -0.075 C  
HETATM   14  C   UNL     1      -7.129   8.038  67.910  1.00  0.00    -0.086 C  
HETATM   15  N   UNL     1      -6.814   7.623  69.296  1.00  0.00    -0.051 NA 
HETATM   16  C   UNL     1      -5.382   7.703  69.575  1.00  0.00    -0.023 C  
HETATM   17  C   UNL     1      -7.426   9.995  70.028  1.00  0.00    -0.173 C  
ENDBRANCH   9  11
BRANCH   8  18
HETATM   18  C   UNL     1      -8.432  14.917  66.814  1.00  0.00    -0.215 A  
HETATM   19  C   UNL     1      -6.415  16.388  66.877  1.00  0.00    -0.139 A  
HETATM   20  C   UNL     1      -6.989  17.272  65.987  1.00  0.00    -0.166 A  
HETATM   21  C   UNL     1      -7.132  15.259  67.293  1.00  0.00    -0.187 A  
HETATM   22  C   UNL     1      -8.260  17.001  65.505  1.00  0.00     1.045 A  
HETATM   23  C   UNL     1      -8.975  15.828  65.873  1.00  0.00    -0.228 A  
HETATM   24  C   UNL     1     -10.304  15.693  65.191  1.00  0.00    -0.366 C  
ENDBRANCH   8  18
ENDBRANCH   2   5
BRANCH   4  25
HETATM   25  C   UNL     1     -10.613  15.889  69.691  1.00  0.00    -0.301 C  
HETATM   26  C   UNL     1      -9.786  14.600  69.941  1.00  0.00     0.360 C  
HETATM   27  C   UNL     1     -11.135  16.340  71.060  1.00  0.00    -0.105 C  
BRANCH  25  28
HETATM   28  C   UNL     1      -9.724  17.064  69.196  1.00  0.00    -0.165 A  
HETATM   29  C   UNL     1      -9.476  19.110  67.859  1.00  0.00    -0.381 A  
HETATM   30  C   UNL     1     -10.249  18.034  68.323  1.00  0.00    -0.402 A  
HETATM   31  F   UNL     1      -5.513  19.492  69.155  1.00  0.00    -0.198 F  
HETATM   32  C   UNL     1     -10.049  20.106  66.878  1.00  0.00    -0.455 C  
HETATM   33  F   UNL     1      -5.439  17.341  69.456  1.00  0.00    -0.155 F  
HETATM   34  C   UNL     1      -8.153  19.240  68.307  1.00  0.00    -0.367 A  
HETATM   35  F   UNL     1     -10.033  21.380  67.359  1.00  0.00    -0.534 F  
HETATM   36  F   UNL     1     -11.345  19.853  66.539  1.00  0.00    -0.406 F  
HETATM   37  F   UNL     1      -6.131  18.638  71.056  1.00  0.00    -0.042 F  
HETATM   38  C   UNL     1      -6.189  18.448  69.709  1.00  0.00    -0.182 C  
HETATM   39  C   UNL     1      -7.608  18.313  69.207  1.00  0.00     0.036 A  
HETATM   40  F   UNL     1      -9.357  20.140  65.706  1.00  0.00    -0.410 F  
HETATM   41  C   UNL     1      -8.403  17.238  69.646  1.00  0.00     0.896 A  
ENDBRANCH  25  28
ENDBRANCH   4  25
TORSDOF 5
ENDMDL
MODEL      176
REMARK 921   NORMALIZED FREE ENERGY PREDICTED BY IDOCK:   -2.54 KCAL/MOL
REMARK 922        TOTAL FREE ENERGY PREDICTED BY IDOCK:   -4.93 KCAL/MOL
REMARK 923 INTER-LIGAND FREE ENERGY PREDICTED BY IDOCK:   -4.58 KCAL/MOL
REMARK 924 INTRA-LIGAND FREE ENERGY PREDICTED BY IDOCK:   -0.35 KCAL/MOL
REMARK 927      BINDING AFFINITY PREDICTED BY RF-SCORE:    0.00 PKD
ROOT
HETATM    1  C   UNL     1     -12.039   6.527  69.882  1.00  0.00     0.239 C  
HETATM    2  N   UNL     1     -10.582   6.450  69.690  1.00  0.00    -0.228 N  
HETATM    3  O   UNL     1     -10.592   4.517  70.864  1.00  0.00     0.016 OA 
HETATM    4  C   UNL     1      -9.961   5.272  70.104  1.00  0.00    -0.243 C  
ENDROOT
BRANCH   2   5
HETATM    5  C   UNL     1     -10.081   7.349  68.728  1.00  0.00    -0.179 A  
HETATM    6  C   UNL     1      -8.703   9.038  67.789  1.00  0.00    -0.125 A  
HETATM    7  C   UNL     1     -10.720   7.335  67.477  1.00  0.00    -0.256 A  
HETATM    8  C   UNL     1      -9.022   8.253  68.934  1.00  0.00    -0.144 A  
HETATM    9  C   UNL     1      -9.302   8.877  66.530  1.00  0.00    -0.195 A  
HETATM   10  N   UNL     1     -10.345   8.048  66.400  1.00  0.00    -0.077 NA 
BRANCH   9  11
HETATM   11  N   UNL     1      -8.831   9.517  65.401  1.00  0.00    -0.165 NA 
HETATM   12  C   UNL     1      -9.006  10.973  65.251  1.00  0.00    -0.163 C  
HETATM   13  C   UNL     1      -9.093   9.245  62.936  1.00  0.00     0.022 C  
HETATM   14  C   UNL     1      -9.671  11.357  63.905  1.00  0.00    -0.270 C  
HETATM   15  N   UNL     1      -9.120  10.701  62.697  1.00  0.00    -0.266 NA 
HETATM   16  C   UNL     1      -7.796  11.216  62.356  1.00  0.00    -0.006 C  
HETATM   17  C   UNL     1      -8.351   8.795  64.218  1.00  0.00    -0.151 C  
ENDBRANCH   9  11
BRANCH   8  18
HETATM   18  C   UNL     1      -8.123   8.387  70.157  1.00  0.00    -0.108 A  
HETATM   19  C   UNL     1      -8.047   8.277  72.651  1.00  0.00    -0.211 A  
HETATM   20  C   UNL     1      -6.701   8.575  72.659  1.00  0.00    -0.077 A  
HETATM   21  C   UNL     1      -8.736   8.212  71.434  1.00  0.00    -0.179 A  
HETATM   22  C   UNL     1      -6.056   8.778  71.448  1.00  0.00    -0.056 A  
HETATM   23  C   UNL     1      -6.731   8.656  70.202  1.00  0.00    -0.039 A  
HETATM   24  C   UNL     1      -5.839   8.850  69.012  1.00  0.00    -0.040 C  
ENDBRANCH   8  18
ENDBRANCH   2   5
BRANCH   4  25
HETATM   25  C   UNL     1      -8.536   4.784  69.621  1.00  0.00    -0.093 C  
HETATM   26  C   UNL     1      -8.541   3.276  69.986  1.00  0.00    -0.111 C  
HETATM   27  C   UNL     1      -7.251   5.369  70.219  1.00  0.00    -0.066 C  
BRANCH  25  28
HETATM   28  C   UNL     1      -8.402   5.012  68.089  1.00  0.00    -0.096 A  
HETATM   29  C   UNL     1      -7.157   5.951  66.191  1.00  0.00    -0.071 A  
HETATM   30  C   UNL     1      -7.311   5.730  67.569  1.00  0.00    -0.077 A  
HETATM   31  F   UNL     1      -9.986   4.376  63.537  1.00  0.00    -0.142 F  
HETATM   32  C   UNL     1      -6.004   6.774  65.665  1.00  0.00    -0.035 C  
HETATM   33  F   UNL     1     -11.469   4.454  65.124  1.00  0.00    -0.312 F  
HETATM   34  C   UNL     1      -8.100   5.410  65.307  1.00  0.00    -0.123 A  
HETATM   35  F   UNL     1      -5.218   6.077  64.800  1.00  0.00    -0.012 F  
HETATM   36  F   UNL     1      -5.169   7.229  66.643  1.00  0.00    -0.019 F  
HETATM   37  F   UNL     1     -10.214   2.695  64.896  1.00  0.00     0.043 F  
HETATM   38  C   UNL     1     -10.198   4.055  64.844  1.00  0.00    -0.200 C  
HETATM   39  C   UNL     1      -9.181   4.656  65.786  1.00  0.00    -0.147 A  
HETATM   40  F   UNL     1      -6.420   7.879  64.988  1.00  0.00    -0.046 F  
HETATM   41  C   UNL     1      -9.316   4.461  67.173  1.00  0.00    -0.173 A  
ENDBRANCH  25  28
ENDBRANCH   4  25
TORSDOF 5
ENDMDL
MODEL      177
REMARK 921   NORMALIZED FREE ENERGY PREDICTED BY IDOCK:   -2.54 KCAL/MOL
REMARK 922        TOTAL FREE ENERGY PREDICTED BY IDOCK:   -4.92 KCAL/MOL
REMARK 923 INTER-LIGAND FREE ENERGY PREDICTED BY IDOCK:   -3.56 KCAL/MOL
REMARK 924 INTRA-LIGAND FREE ENERGY PREDICTED BY IDOCK:   -1.37 KCAL/MOL
REMARK 927      BINDING AFFINITY PREDICTED BY RF-SCORE:    0.00 PKD
ROOT
HETATM    1  C   UNL     1     -13.396  14.009  66.209  1.00  0.00     1.469 C  
HETATM    2  N   UNL     1     -12.073  13.981  66.852  1.00  0.00    -0.439 N  
HETATM    3  O   UNL     1     -13.030  14.827  68.717  1.00  0.00     0.677 OA 
HETATM    4  C   UNL     1     -12.036  14.276  68.214  1.00  0.00    -0.243 C  
ENDROOT
BRANCH   2   5
HETATM    5  C   UNL     1     -11.106  13.239  66.145  1.00  0.00    -0.285 A  
HETATM    6  C   UNL     1      -9.065  12.765  65.030  1.00  0.00     0.952 A  
HETATM    7  C   UNL     1     -11.446  11.909  65.846  1.00  0.00    -0.278 A  
HETATM    8  C   UNL     1      -9.862  13.731  65.710  1.00  0.00    -0.242 A  
HETATM    9  C   UNL     1      -9.417  11.415  64.883  1.00  0.00    -0.171 A  
HETATM   10  N   UNL     1     -10.637  11.009  65.259  1.00  0.00    -0.248 NA 
BRANCH   9  11
HETATM   11  N   UNL     1      -8.536  10.471  64.395  1.00  0.00    -0.176 NA 
HETATM   12  C   UNL     1      -8.649   9.065  64.821  1.00  0.00    -0.175 C  
HETATM   13  C   UNL     1      -6.058  10.218  64.266  1.00  0.00    -0.121 C  
HETATM   14  C   UNL     1      -7.312   8.496  65.359  1.00  0.00    -0.084 C  
HETATM   15  N   UNL     1      -6.111   8.768  64.537  1.00  0.00    -0.065 NA 
HETATM   16  C   UNL     1      -6.113   7.989  63.300  1.00  0.00    -0.072 C  
HETATM   17  C   UNL     1      -7.334  10.824  63.632  1.00  0.00     0.338 C  
ENDBRANCH   9  11
BRANCH   8  18
HETATM   18  C   UNL     1      -9.236  15.093  65.991  1.00  0.00    -0.273 A  
HETATM   19  C   UNL     1      -7.195  16.261  66.831  1.00  0.00    -0.257 A  
HETATM   20  C   UNL     1      -7.777  17.495  66.632  1.00  0.00    -0.289 A  
HETATM   21  C   UNL     1      -7.919  15.098  66.540  1.00  0.00     0.263 A  
HETATM   22  C   UNL     1      -9.064  17.551  66.121  1.00  0.00    -0.157 A  
HETATM   23  C   UNL     1      -9.788  16.379  65.766  1.00  0.00    -0.303 A  
HETATM   24  C   UNL     1     -11.136  16.661  65.171  1.00  0.00    -0.086 C  
ENDBRANCH   8  18
ENDBRANCH   2   5
BRANCH   4  25
HETATM   25  C   UNL     1     -10.850  13.895  69.189  1.00  0.00    -0.220 C  
HETATM   26  C   UNL     1     -11.179  14.705  70.471  1.00  0.00    -0.144 C  
HETATM   27  C   UNL     1      -9.395  14.219  68.835  1.00  0.00    -0.054 C  
BRANCH  25  28
HETATM   28  C   UNL     1     -10.866  12.362  69.449  1.00  0.00     0.011 A  
HETATM   29  C   UNL     1      -9.749  10.179  69.293  1.00  0.00    -0.238 A  
HETATM   30  C   UNL     1      -9.770  11.565  69.071  1.00  0.00     0.016 A  
HETATM   31  F   UNL     1     -13.004   8.362  71.197  1.00  0.00    -0.289 F  
HETATM   32  C   UNL     1      -8.583   9.340  68.825  1.00  0.00    -0.131 C  
HETATM   33  F   UNL     1     -14.285   9.953  70.452  1.00  0.00    -0.026 F  
HETATM   34  C   UNL     1     -10.836   9.579  69.943  1.00  0.00    -0.272 A  
HETATM   35  F   UNL     1      -7.975   8.677  69.847  1.00  0.00    -0.092 F  
HETATM   36  F   UNL     1      -7.601  10.063  68.215  1.00  0.00    -0.081 F  
HETATM   37  F   UNL     1     -13.253  10.188  72.351  1.00  0.00    -0.500 F  
HETATM   38  C   UNL     1     -13.102   9.716  71.082  1.00  0.00    -0.309 C  
HETATM   39  C   UNL     1     -11.930  10.347  70.368  1.00  0.00    -0.409 A  
HETATM   40  F   UNL     1      -8.955   8.386  67.928  1.00  0.00    -0.134 F  
HETATM   41  C   UNL     1     -11.929  11.732  70.122  1.00  0.00    -0.421 A  
ENDBRANCH  25  28
ENDBRANCH   4  25
TORSDOF 5
ENDMDL
MODEL      178
REMARK 921   NORMALIZED FREE ENERGY PREDICTED BY IDOCK:   -2.53 KCAL/MOL
REMARK 922        TOTAL FREE ENERGY PREDICTED BY IDOCK:   -4.91 KCAL/MOL
REMARK 923 INTER-LIGAND FREE ENERGY PREDICTED BY IDOCK:   -4.90 KCAL/MOL
REMARK 924 INTRA-LIGAND FREE ENERGY PREDICTED BY IDOCK:   -0.01 KCAL/MOL
REMARK 927      BINDING AFFINITY PREDICTED BY RF-SCORE:    0.00 PKD
ROOT
HETATM    1  C   UNL     1     -12.602  13.906  66.425  1.00  0.00    -0.268 C  
HETATM    2  N   UNL     1     -11.501  14.268  67.332  1.00  0.00    -0.328 N  
HETATM    3  O   UNL     1     -12.702  16.077  67.966  1.00  0.00     1.308 OA 
HETATM    4  C   UNL     1     -11.738  15.329  68.206  1.00  0.00    -0.301 C  
ENDROOT
BRANCH   2   5
HETATM    5  C   UNL     1     -10.551  13.245  67.519  1.00  0.00    -0.246 A  
HETATM    6  C   UNL     1      -8.428  12.184  67.571  1.00  0.00    -0.169 A  
HETATM    7  C   UNL     1     -11.053  12.008  67.955  1.00  0.00    -0.236 A  
HETATM    8  C   UNL     1      -9.168  13.368  67.287  1.00  0.00    -0.222 A  
HETATM    9  C   UNL     1      -8.982  11.022  68.130  1.00  0.00    -0.152 A  
HETATM   10  N   UNL     1     -10.311  10.933  68.275  1.00  0.00    -0.166 NA 
BRANCH   9  11
HETATM   11  N   UNL     1      -8.204   9.972  68.572  1.00  0.00    -0.105 NA 
HETATM   12  C   UNL     1      -7.577   9.057  67.603  1.00  0.00    -0.093 C  
HETATM   13  C   UNL     1      -8.481   8.073  70.166  1.00  0.00    -0.128 C  
HETATM   14  C   UNL     1      -7.890   7.568  67.900  1.00  0.00    -0.117 C  
HETATM   15  N   UNL     1      -7.725   7.139  69.308  1.00  0.00    -0.106 NA 
HETATM   16  C   UNL     1      -6.317   7.072  69.694  1.00  0.00    -0.035 C  
HETATM   17  C   UNL     1      -8.136   9.571  69.982  1.00  0.00    -0.167 C  
ENDBRANCH   9  11
BRANCH   8  18
HETATM   18  C   UNL     1      -8.384  14.619  66.907  1.00  0.00    -0.159 A  
HETATM   19  C   UNL     1      -8.503  16.817  65.726  1.00  0.00     0.208 A  
HETATM   20  C   UNL     1      -7.186  17.091  66.031  1.00  0.00    -0.054 A  
HETATM   21  C   UNL     1      -9.070  15.603  66.134  1.00  0.00    -0.378 A  
HETATM   22  C   UNL     1      -6.463  16.161  66.761  1.00  0.00     0.144 A  
HETATM   23  C   UNL     1      -7.044  14.952  67.233  1.00  0.00    -0.103 A  
HETATM   24  C   UNL     1      -6.111  14.116  68.057  1.00  0.00    -0.149 C  
ENDBRANCH   8  18
ENDBRANCH   2   5
BRANCH   4  25
HETATM   25  C   UNL     1     -10.915  15.613  69.526  1.00  0.00    -0.281 C  
HETATM   26  C   UNL     1     -10.190  14.265  69.782  1.00  0.00     0.369 C  
HETATM   27  C   UNL     1     -11.617  15.981  70.838  1.00  0.00    -0.453 C  
BRANCH  25  28
HETATM   28  C   UNL     1      -9.912  16.773  69.271  1.00  0.00    -0.206 A  
HETATM   29  C   UNL     1      -7.632  17.674  69.438  1.00  0.00     0.190 A  
HETATM   30  C   UNL     1      -8.565  16.648  69.656  1.00  0.00     0.583 A  
HETATM   31  F   UNL     1      -8.866  21.189  67.527  1.00  0.00    -0.362 F  
HETATM   32  C   UNL     1      -6.205  17.534  69.912  1.00  0.00    -0.116 C  
HETATM   33  F   UNL     1     -10.882  20.841  68.262  1.00  0.00    -0.066 F  
HETATM   34  C   UNL     1      -8.049  18.843  68.785  1.00  0.00    -0.354 A  
HETATM   35  F   UNL     1      -5.306  17.630  68.894  1.00  0.00    -0.147 F  
HETATM   36  F   UNL     1      -5.949  16.342  70.524  1.00  0.00    -0.171 F  
HETATM   37  F   UNL     1     -10.254  19.982  66.367  1.00  0.00    -0.484 F  
HETATM   38  C   UNL     1      -9.834  20.237  67.637  1.00  0.00    -0.423 C  
HETATM   39  C   UNL     1      -9.375  18.989  68.353  1.00  0.00    -0.405 A  
HETATM   40  F   UNL     1      -5.858  18.496  70.810  1.00  0.00    -0.216 F  
HETATM   41  C   UNL     1     -10.291  17.948  68.596  1.00  0.00    -0.342 A  
ENDBRANCH  25  28
ENDBRANCH   4  25
TORSDOF 5
ENDMDL
MODEL      179
REMARK 921   NORMALIZED FREE ENERGY PREDICTED BY IDOCK:   -2.52 KCAL/MOL
REMARK 922        TOTAL FREE ENERGY PREDICTED BY IDOCK:   -4.90 KCAL/MOL
REMARK 923 INTER-LIGAND FREE ENERGY PREDICTED BY IDOCK:   -6.37 KCAL/MOL
REMARK 924 INTRA-LIGAND FREE ENERGY PREDICTED BY IDOCK:    1.47 KCAL/MOL
REMARK 927      BINDING AFFINITY PREDICTED BY RF-SCORE:    0.00 PKD
ROOT
HETATM    1  C   UNL     1     -10.642  12.094  64.530  1.00  0.00    -0.310 C  
HETATM    2  N   UNL     1      -9.547  12.410  65.461  1.00  0.00    -0.132 N  
HETATM    3  O   UNL     1     -10.325  14.531  65.559  1.00  0.00    -0.315 OA 
HETATM    4  C   UNL     1      -9.582  13.669  66.059  1.00  0.00    -0.166 C  
ENDROOT
BRANCH   2   5
HETATM    5  C   UNL     1      -8.878  11.278  65.966  1.00  0.00    -0.184 A  
HETATM    6  C   UNL     1      -8.352   9.502  67.451  1.00  0.00    -0.125 A  
HETATM    7  C   UNL     1      -7.827  10.779  65.179  1.00  0.00     0.068 A  
HETATM    8  C   UNL     1      -9.170  10.638  67.185  1.00  0.00    -0.161 A  
HETATM    9  C   UNL     1      -7.405   8.984  66.554  1.00  0.00    -0.085 A  
HETATM   10  N   UNL     1      -7.120   9.663  65.435  1.00  0.00    -0.095 NA 
BRANCH   9  11
HETATM   11  N   UNL     1      -6.776   7.774  66.762  1.00  0.00    -0.065 NA 
HETATM   12  C   UNL     1      -7.093   6.618  65.904  1.00  0.00    -0.062 C  
HETATM   13  C   UNL     1      -6.436   6.230  68.691  1.00  0.00    -0.049 C  
HETATM   14  C   UNL     1      -7.479   5.359  66.720  1.00  0.00    -0.088 C  
HETATM   15  N   UNL     1      -6.591   5.023  67.856  1.00  0.00    -0.048 NA 
HETATM   16  C   UNL     1      -5.299   4.512  67.402  1.00  0.00    -0.012 C  
HETATM   17  C   UNL     1      -5.953   7.497  67.945  1.00  0.00    -0.039 C  
ENDBRANCH   9  11
BRANCH   8  18
HETATM   18  C   UNL     1     -10.309  10.931  68.154  1.00  0.00    -0.202 A  
HETATM   19  C   UNL     1     -12.484  12.126  68.438  1.00  0.00     0.793 A  
HETATM   20  C   UNL     1     -12.603  11.676  69.736  1.00  0.00     0.037 A  
HETATM   21  C   UNL     1     -11.356  11.780  67.684  1.00  0.00    -0.370 A  
HETATM   22  C   UNL     1     -11.605  10.865  70.253  1.00  0.00    -0.426 A  
HETATM   23  C   UNL     1     -10.483  10.458  69.479  1.00  0.00    -0.274 A  
HETATM   24  C   UNL     1      -9.555   9.530  70.205  1.00  0.00    -0.314 C  
ENDBRANCH   8  18
ENDBRANCH   2   5
BRANCH   4  25
HETATM   25  C   UNL     1      -8.800  14.065  67.376  1.00  0.00    -0.210 C  
HETATM   26  C   UNL     1      -7.488  14.686  66.828  1.00  0.00     0.655 C  
HETATM   27  C   UNL     1      -8.382  13.006  68.402  1.00  0.00    -0.118 C  
BRANCH  25  28
HETATM   28  C   UNL     1      -9.638  15.095  68.185  1.00  0.00    -0.205 A  
HETATM   29  C   UNL     1     -10.285  17.427  68.609  1.00  0.00    -0.361 A  
HETATM   30  C   UNL     1      -9.541  16.470  67.902  1.00  0.00    -0.233 A  
HETATM   31  F   UNL     1     -12.923  16.164  71.605  1.00  0.00    -0.502 F  
HETATM   32  C   UNL     1     -10.119  18.901  68.322  1.00  0.00    -0.388 C  
HETATM   33  F   UNL     1     -11.687  14.400  71.902  1.00  0.00    -0.350 F  
HETATM   34  C   UNL     1     -11.176  16.997  69.602  1.00  0.00     0.432 A  
HETATM   35  F   UNL     1     -11.284  19.491  67.937  1.00  0.00    -0.417 F  
HETATM   36  F   UNL     1      -9.223  19.165  67.329  1.00  0.00    -0.290 F  
HETATM   37  F   UNL     1     -13.284  14.373  70.428  1.00  0.00    -0.378 F  
HETATM   38  C   UNL     1     -12.294  15.153  70.944  1.00  0.00    -0.354 C  
HETATM   39  C   UNL     1     -11.327  15.632  69.886  1.00  0.00    -0.340 A  
HETATM   40  F   UNL     1      -9.687  19.598  69.409  1.00  0.00    -0.445 F  
HETATM   41  C   UNL     1     -10.560  14.696  69.169  1.00  0.00    -0.247 A  
ENDBRANCH  25  28
ENDBRANCH   4  25
TORSDOF 5
ENDMDL
MODEL      180
REMARK 921   NORMALIZED FREE ENERGY PREDICTED BY IDOCK:   -2.51 KCAL/MOL
REMARK 922        TOTAL FREE ENERGY PREDICTED BY IDOCK:   -4.89 KCAL/MOL
REMARK 923 INTER-LIGAND FREE ENERGY PREDICTED BY IDOCK:   -3.69 KCAL/MOL
REMARK 924 INTRA-LIGAND FREE ENERGY PREDICTED BY IDOCK:   -1.20 KCAL/MOL
REMARK 927      BINDING AFFINITY PREDICTED BY RF-SCORE:    0.00 PKD
ROOT
HETATM    1  C   UNL     1     -12.880  10.659  68.094  1.00  0.00     4.141 C  
HETATM    2  N   UNL     1     -11.430  10.503  67.900  1.00  0.00    -0.232 N  
HETATM    3  O   UNL     1     -11.592  11.843  66.086  1.00  0.00    -0.415 OA 
HETATM    4  C   UNL     1     -10.844  11.301  66.918  1.00  0.00    -0.282 C  
ENDROOT
BRANCH   2   5
HETATM    5  C   UNL     1     -10.762   9.928  68.999  1.00  0.00    -0.222 A  
HETATM    6  C   UNL     1     -10.127   9.570  71.258  1.00  0.00    -0.196 A  
HETATM    7  C   UNL     1      -9.872   8.883  68.703  1.00  0.00    -0.167 A  
HETATM    8  C   UNL     1     -10.907  10.332  70.339  1.00  0.00    -0.320 A  
HETATM    9  C   UNL     1      -9.358   8.452  70.902  1.00  0.00    -0.166 A  
HETATM   10  N   UNL     1      -9.204   8.146  69.608  1.00  0.00    -0.155 NA 
BRANCH   9  11
HETATM   11  N   UNL     1      -8.778   7.625  71.843  1.00  0.00    -0.110 NA 
HETATM   12  C   UNL     1      -9.301   7.593  73.221  1.00  0.00    -0.243 C  
HETATM   13  C   UNL     1      -6.476   7.235  72.722  1.00  0.00    -0.059 C  
HETATM   14  C   UNL     1      -8.195   7.821  74.283  1.00  0.00    -0.238 C  
HETATM   15  N   UNL     1      -6.952   7.038  74.106  1.00  0.00    -0.085 NA 
HETATM   16  C   UNL     1      -7.154   5.623  74.409  1.00  0.00    -0.085 C  
HETATM   17  C   UNL     1      -7.510   6.923  71.613  1.00  0.00    -0.085 C  
ENDBRANCH   9  11
BRANCH   8  18
HETATM   18  C   UNL     1     -11.869  11.364  70.914  1.00  0.00    -0.111 A  
HETATM   19  C   UNL     1     -12.421  13.798  71.016  1.00  0.00    -0.458 A  
HETATM   20  C   UNL     1     -13.500  13.555  71.839  1.00  0.00    -0.528 A  
HETATM   21  C   UNL     1     -11.619  12.731  70.591  1.00  0.00     0.438 A  
HETATM   22  C   UNL     1     -13.778  12.247  72.204  1.00  0.00    -0.207 A  
HETATM   23  C   UNL     1     -13.008  11.149  71.732  1.00  0.00    -0.526 A  
HETATM   24  C   UNL     1     -13.514   9.814  72.192  1.00  0.00    -0.491 C  
ENDBRANCH   8  18
ENDBRANCH   2   5
BRANCH   4  25
HETATM   25  C   UNL     1      -9.300  11.630  66.824  1.00  0.00    -0.193 C  
HETATM   26  C   UNL     1      -9.084  11.859  65.304  1.00  0.00     0.188 C  
HETATM   27  C   UNL     1      -8.242  10.610  67.261  1.00  0.00    -0.116 C  
BRANCH  25  28
HETATM   28  C   UNL     1      -8.991  12.906  67.655  1.00  0.00    -0.192 A  
HETATM   29  C   UNL     1      -9.699  15.102  68.501  1.00  0.00    -0.214 A  
HETATM   30  C   UNL     1      -9.943  13.937  67.756  1.00  0.00    -0.241 A  
HETATM   31  F   UNL     1      -6.064  15.504  70.540  1.00  0.00    -0.149 F  
HETATM   32  C   UNL     1     -10.717  16.217  68.546  1.00  0.00    -0.307 C  
HETATM   33  F   UNL     1      -5.139  14.184  69.081  1.00  0.00    -0.079 F  
HETATM   34  C   UNL     1      -8.485  15.225  69.192  1.00  0.00    -0.234 A  
HETATM   35  F   UNL     1     -11.135  16.490  69.812  1.00  0.00    -0.320 F  
HETATM   36  F   UNL     1     -11.847  15.952  67.830  1.00  0.00    -0.256 F  
HETATM   37  F   UNL     1      -6.087  13.353  70.852  1.00  0.00    -0.177 F  
HETATM   38  C   UNL     1      -6.221  14.314  69.896  1.00  0.00    -0.148 C  
HETATM   39  C   UNL     1      -7.528  14.201  69.145  1.00  0.00    -0.037 A  
HETATM   40  F   UNL     1     -10.229  17.388  68.052  1.00  0.00    -0.280 F  
HETATM   41  C   UNL     1      -7.795  13.050  68.381  1.00  0.00    -0.134 A  
ENDBRANCH  25  28
ENDBRANCH   4  25
TORSDOF 5
ENDMDL
MODEL      181
REMARK 921   NORMALIZED FREE ENERGY PREDICTED BY IDOCK:   -2.51 KCAL/MOL
REMARK 922        TOTAL FREE ENERGY PREDICTED BY IDOCK:   -4.88 KCAL/MOL
REMARK 923 INTER-LIGAND FREE ENERGY PREDICTED BY IDOCK:   -8.48 KCAL/MOL
REMARK 924 INTRA-LIGAND FREE ENERGY PREDICTED BY IDOCK:    3.60 KCAL/MOL
REMARK 927      BINDING AFFINITY PREDICTED BY RF-SCORE:    0.00 PKD
ROOT
HETATM    1  C   UNL     1     -10.486  15.182  65.159  1.00  0.00    -0.410 C  
HETATM    2  N   UNL     1      -9.697  15.187  66.402  1.00  0.00    -0.260 N  
HETATM    3  O   UNL     1     -10.492  17.261  66.824  1.00  0.00    -0.313 OA 
HETATM    4  C   UNL     1      -9.910  16.257  67.270  1.00  0.00    -0.243 C  
ENDROOT
BRANCH   2   5
HETATM    5  C   UNL     1      -9.185  13.925  66.762  1.00  0.00    -0.254 A  
HETATM    6  C   UNL     1      -8.969  11.562  66.816  1.00  0.00    -0.181 A  
HETATM    7  C   UNL     1      -8.107  13.930  67.662  1.00  0.00    -0.177 A  
HETATM    8  C   UNL     1      -9.680  12.688  66.309  1.00  0.00    -0.260 A  
HETATM    9  C   UNL     1      -7.815  11.650  67.610  1.00  0.00    -0.135 A  
HETATM   10  N   UNL     1      -7.420  12.846  68.065  1.00  0.00    -0.111 NA 
BRANCH   9  11
HETATM   11  N   UNL     1      -7.044  10.547  67.915  1.00  0.00    -0.082 NA 
HETATM   12  C   UNL     1      -7.479   9.202  67.499  1.00  0.00    -0.088 C  
HETATM   13  C   UNL     1      -6.040   9.567  69.978  1.00  0.00    -0.046 C  
HETATM   14  C   UNL     1      -7.505   8.193  68.675  1.00  0.00    -0.098 C  
HETATM   15  N   UNL     1      -6.310   8.181  69.547  1.00  0.00    -0.034 NA 
HETATM   16  C   UNL     1      -5.153   7.592  68.876  1.00  0.00    -0.018 C  
HETATM   17  C   UNL     1      -5.903  10.603  68.837  1.00  0.00    -0.040 C  
ENDBRANCH   9  11
BRANCH   8  18
HETATM   18  C   UNL     1     -10.766  12.430  65.271  1.00  0.00    -0.322 A  
HETATM   19  C   UNL     1     -13.157  12.845  64.680  1.00  0.00    -0.030 A  
HETATM   20  C   UNL     1     -13.030  12.123  63.512  1.00  0.00    -0.315 A  
HETATM   21  C   UNL     1     -12.060  12.969  65.541  1.00  0.00    -0.501 A  
HETATM   22  C   UNL     1     -11.802  11.558  63.209  1.00  0.00    -0.089 A  
HETATM   23  C   UNL     1     -10.664  11.726  64.045  1.00  0.00    -0.434 A  
HETATM   24  C   UNL     1      -9.418  11.090  63.503  1.00  0.00    -0.315 C  
ENDBRANCH   8  18
ENDBRANCH   2   5
BRANCH   4  25
HETATM   25  C   UNL     1      -9.531  16.264  68.805  1.00  0.00    -0.237 C  
HETATM   26  C   UNL     1      -9.664  17.761  69.190  1.00  0.00    -0.090 C  
HETATM   27  C   UNL     1      -8.146  15.816  69.284  1.00  0.00    -0.241 C  
BRANCH  25  28
HETATM   28  C   UNL     1     -10.533  15.371  69.589  1.00  0.00    -0.286 A  
HETATM   29  C   UNL     1     -11.656  13.205  69.879  1.00  0.00    -0.255 A  
HETATM   30  C   UNL     1     -10.762  14.041  69.193  1.00  0.00    -0.198 A  
HETATM   31  F   UNL     1     -13.658  14.678  73.248  1.00  0.00    -0.507 F  
HETATM   32  C   UNL     1     -11.925  11.798  69.396  1.00  0.00    -0.298 C  
HETATM   33  F   UNL     1     -13.478  16.686  72.435  1.00  0.00     0.135 F  
HETATM   34  C   UNL     1     -12.314  13.700  71.014  1.00  0.00    -0.436 A  
HETATM   35  F   UNL     1     -11.623  10.859  70.334  1.00  0.00    -0.333 F  
HETATM   36  F   UNL     1     -11.210  11.458  68.286  1.00  0.00    -0.228 F  
HETATM   37  F   UNL     1     -11.894  15.872  73.681  1.00  0.00    -0.496 F  
HETATM   38  C   UNL     1     -12.773  15.550  72.692  1.00  0.00    -0.411 C  
HETATM   39  C   UNL     1     -12.082  15.008  71.462  1.00  0.00    -0.403 A  
HETATM   40  F   UNL     1     -13.232  11.599  69.074  1.00  0.00     0.965 F  
HETATM   41  C   UNL     1     -11.189  15.827  70.747  1.00  0.00    -0.404 A  
ENDBRANCH  25  28
ENDBRANCH   4  25
TORSDOF 5
ENDMDL
MODEL      182
REMARK 921   NORMALIZED FREE ENERGY PREDICTED BY IDOCK:   -2.50 KCAL/MOL
REMARK 922        TOTAL FREE ENERGY PREDICTED BY IDOCK:   -4.87 KCAL/MOL
REMARK 923 INTER-LIGAND FREE ENERGY PREDICTED BY IDOCK:   -6.03 KCAL/MOL
REMARK 924 INTRA-LIGAND FREE ENERGY PREDICTED BY IDOCK:    1.17 KCAL/MOL
REMARK 927      BINDING AFFINITY PREDICTED BY RF-SCORE:    0.00 PKD
ROOT
HETATM    1  C   UNL     1      -9.687  11.023  69.581  1.00  0.00     0.375 C  
HETATM    2  N   UNL     1     -10.252  12.329  69.207  1.00  0.00     0.226 N  
HETATM    3  O   UNL     1     -12.137  11.762  70.321  1.00  0.00    -0.338 OA 
HETATM    4  C   UNL     1     -11.472  12.669  69.791  1.00  0.00    -0.130 C  
ENDROOT
BRANCH   2   5
HETATM    5  C   UNL     1      -9.308  13.236  68.688  1.00  0.00     0.002 A  
HETATM    6  C   UNL     1      -7.678  14.123  67.208  1.00  0.00    -0.132 A  
HETATM    7  C   UNL     1      -9.112  14.415  69.427  1.00  0.00     0.321 A  
HETATM    8  C   UNL     1      -8.550  13.040  67.519  1.00  0.00    -0.192 A  
HETATM    9  C   UNL     1      -7.631  15.329  67.924  1.00  0.00    -0.139 A  
HETATM   10  N   UNL     1      -8.325  15.443  69.064  1.00  0.00    -0.205 NA 
BRANCH   9  11
HETATM   11  N   UNL     1      -6.920  16.425  67.479  1.00  0.00    -0.134 NA 
HETATM   12  C   UNL     1      -6.104  17.210  68.423  1.00  0.00    -0.146 C  
HETATM   13  C   UNL     1      -7.433  18.510  66.210  1.00  0.00    -0.257 C  
HETATM   14  C   UNL     1      -6.428  18.724  68.373  1.00  0.00    -0.226 C  
HETATM   15  N   UNL     1      -6.512  19.327  67.024  1.00  0.00    -0.190 NA 
HETATM   16  C   UNL     1      -5.196  19.439  66.397  1.00  0.00    -0.158 C  
HETATM   17  C   UNL     1      -7.098  17.000  66.141  1.00  0.00    -0.107 C  
ENDBRANCH   9  11
BRANCH   8  18
HETATM   18  C   UNL     1      -8.652  11.901  66.510  1.00  0.00    -0.126 A  
HETATM   19  C   UNL     1     -10.207  10.622  65.033  1.00  0.00    -0.380 A  
HETATM   20  C   UNL     1      -9.179   9.818  64.588  1.00  0.00    -0.312 A  
HETATM   21  C   UNL     1      -9.947  11.616  65.985  1.00  0.00    -0.260 A  
HETATM   22  C   UNL     1      -7.902  10.035  65.080  1.00  0.00    -0.136 A  
HETATM   23  C   UNL     1      -7.614  11.079  66.002  1.00  0.00    -0.042 A  
HETATM   24  C   UNL     1      -6.161  11.184  66.359  1.00  0.00    -0.137 C  
ENDBRANCH   8  18
ENDBRANCH   2   5
BRANCH   4  25
HETATM   25  C   UNL     1     -12.045  14.140  69.894  1.00  0.00    -0.405 C  
HETATM   26  C   UNL     1     -11.234  14.749  71.068  1.00  0.00    -0.118 C  
HETATM   27  C   UNL     1     -13.523  14.397  70.210  1.00  0.00     0.489 C  
BRANCH  25  28
HETATM   28  C   UNL     1     -11.787  14.891  68.557  1.00  0.00    -0.325 A  
HETATM   29  C   UNL     1     -11.850  14.918  66.101  1.00  0.00    -0.113 A  
HETATM   30  C   UNL     1     -12.068  14.269  67.326  1.00  0.00    -0.390 A  
HETATM   31  F   UNL     1     -10.389  18.841  66.093  1.00  0.00    -0.383 F  
HETATM   32  C   UNL     1     -12.107  14.206  64.793  1.00  0.00    -0.441 C  
HETATM   33  F   UNL     1      -9.446  18.458  68.014  1.00  0.00    -0.265 F  
HETATM   34  C   UNL     1     -11.373  16.236  66.105  1.00  0.00     0.452 A  
HETATM   35  F   UNL     1     -13.029  14.846  64.023  1.00  0.00    -0.153 F  
HETATM   36  F   UNL     1     -12.572  12.933  64.949  1.00  0.00    -0.467 F  
HETATM   37  F   UNL     1     -11.495  19.177  67.934  1.00  0.00    -0.188 F  
HETATM   38  C   UNL     1     -10.617  18.327  67.334  1.00  0.00    -0.401 C  
HETATM   39  C   UNL     1     -11.118  16.901  67.313  1.00  0.00     0.091 A  
HETATM   40  F   UNL     1     -10.986  14.102  64.028  1.00  0.00    -0.260 F  
HETATM   41  C   UNL     1     -11.334  16.222  68.526  1.00  0.00    -0.330 A  
ENDBRANCH  25  28
ENDBRANCH   4  25
TORSDOF 5
ENDMDL
MODEL      183
REMARK 921   NORMALIZED FREE ENERGY PREDICTED BY IDOCK:   -2.49 KCAL/MOL
REMARK 922        TOTAL FREE ENERGY PREDICTED BY IDOCK:   -4.86 KCAL/MOL
REMARK 923 INTER-LIGAND FREE ENERGY PREDICTED BY IDOCK:   -4.13 KCAL/MOL
REMARK 924 INTRA-LIGAND FREE ENERGY PREDICTED BY IDOCK:   -0.73 KCAL/MOL
REMARK 927      BINDING AFFINITY PREDICTED BY RF-SCORE:    0.00 PKD
ROOT
HETATM    1  C   UNL     1     -12.659  11.115  67.870  1.00  0.00     2.319 C  
HETATM    2  N   UNL     1     -11.188  11.076  67.927  1.00  0.00    -0.292 N  
HETATM    3  O   UNL     1     -11.151  12.925  66.626  1.00  0.00    -0.270 OA 
HETATM    4  C   UNL     1     -10.515  12.167  67.379  1.00  0.00    -0.213 C  
ENDROOT
BRANCH   2   5
HETATM    5  C   UNL     1     -10.675  10.198  68.902  1.00  0.00    -0.223 A  
HETATM    6  C   UNL     1     -10.365   9.201  71.033  1.00  0.00    -0.363 A  
HETATM    7  C   UNL     1      -9.733   9.259  68.452  1.00  0.00    -0.154 A  
HETATM    8  C   UNL     1     -11.018  10.209  70.266  1.00  0.00    -0.380 A  
HETATM    9  C   UNL     1      -9.532   8.211  70.489  1.00  0.00    -0.163 A  
HETATM   10  N   UNL     1      -9.188   8.281  69.197  1.00  0.00    -0.151 NA 
BRANCH   9  11
HETATM   11  N   UNL     1      -9.078   7.139  71.230  1.00  0.00    -0.150 NA 
HETATM   12  C   UNL     1      -8.299   6.069  70.581  1.00  0.00    -0.125 C  
HETATM   13  C   UNL     1     -10.092   5.452  72.763  1.00  0.00    -0.181 C  
HETATM   14  C   UNL     1      -8.880   4.659  70.855  1.00  0.00    -0.114 C  
HETATM   15  N   UNL     1      -9.230   4.363  72.263  1.00  0.00    -0.120 NA 
HETATM   16  C   UNL     1      -8.040   4.193  73.094  1.00  0.00    -0.090 C  
HETATM   17  C   UNL     1      -9.515   6.880  72.607  1.00  0.00    -0.142 C  
ENDBRANCH   9  11
BRANCH   8  18
HETATM   18  C   UNL     1     -12.072  11.059  70.967  1.00  0.00    -0.406 A  
HETATM   19  C   UNL     1     -12.807  13.395  71.458  1.00  0.00    -0.427 A  
HETATM   20  C   UNL     1     -13.890  12.940  72.180  1.00  0.00    -0.390 A  
HETATM   21  C   UNL     1     -11.915  12.475  70.892  1.00  0.00     0.056 A  
HETATM   22  C   UNL     1     -14.081  11.573  72.305  1.00  0.00     0.746 A  
HETATM   23  C   UNL     1     -13.216  10.628  71.686  1.00  0.00    -0.495 A  
HETATM   24  C   UNL     1     -13.636   9.203  71.890  1.00  0.00    -0.493 C  
ENDBRANCH   8  18
ENDBRANCH   2   5
BRANCH   4  25
HETATM   25  C   UNL     1      -9.016  12.557  67.699  1.00  0.00    -0.185 C  
HETATM   26  C   UNL     1      -8.296  12.313  66.346  1.00  0.00     0.157 C  
HETATM   27  C   UNL     1      -8.208  11.804  68.761  1.00  0.00    -0.027 C  
BRANCH  25  28
HETATM   28  C   UNL     1      -8.951  14.049  68.131  1.00  0.00    -0.183 A  
HETATM   29  C   UNL     1      -7.910  16.266  67.931  1.00  0.00    -0.154 A  
HETATM   30  C   UNL     1      -7.995  14.913  67.566  1.00  0.00    -0.198 A  
HETATM   31  F   UNL     1     -10.616  17.804  70.731  1.00  0.00     0.569 F  
HETATM   32  C   UNL     1      -6.838  17.157  67.349  1.00  0.00    -0.153 C  
HETATM   33  F   UNL     1     -10.813  15.815  71.584  1.00  0.00    -0.282 F  
HETATM   34  C   UNL     1      -8.828  16.778  68.859  1.00  0.00    -0.228 A  
HETATM   35  F   UNL     1      -7.354  18.225  66.682  1.00  0.00    -0.205 F  
HETATM   36  F   UNL     1      -6.025  16.520  66.458  1.00  0.00    -0.173 F  
HETATM   37  F   UNL     1     -12.100  16.426  69.943  1.00  0.00    -0.163 F  
HETATM   38  C   UNL     1     -10.822  16.498  70.406  1.00  0.00    -0.075 C  
HETATM   39  C   UNL     1      -9.818  15.956  69.416  1.00  0.00    -0.280 A  
HETATM   40  F   UNL     1      -6.015  17.672  68.302  1.00  0.00    -0.150 F  
HETATM   41  C   UNL     1      -9.872  14.601  69.040  1.00  0.00    -0.178 A  
ENDBRANCH  25  28
ENDBRANCH   4  25
TORSDOF 5
ENDMDL
MODEL      184
REMARK 921   NORMALIZED FREE ENERGY PREDICTED BY IDOCK:   -2.49 KCAL/MOL
REMARK 922        TOTAL FREE ENERGY PREDICTED BY IDOCK:   -4.86 KCAL/MOL
REMARK 923 INTER-LIGAND FREE ENERGY PREDICTED BY IDOCK:   -6.50 KCAL/MOL
REMARK 924 INTRA-LIGAND FREE ENERGY PREDICTED BY IDOCK:    1.65 KCAL/MOL
REMARK 927      BINDING AFFINITY PREDICTED BY RF-SCORE:    0.00 PKD
ROOT
HETATM    1  C   UNL     1     -11.535  11.398  65.956  1.00  0.00     0.088 C  
HETATM    2  N   UNL     1     -10.443  10.439  66.190  1.00  0.00    -0.195 N  
HETATM    3  O   UNL     1      -9.692  10.881  64.103  1.00  0.00    -0.244 OA 
HETATM    4  C   UNL     1      -9.449  10.378  65.214  1.00  0.00    -0.237 C  
ENDROOT
BRANCH   2   5
HETATM    5  C   UNL     1     -10.298  10.052  67.537  1.00  0.00    -0.232 A  
HETATM    6  C   UNL     1     -10.025  10.278  69.884  1.00  0.00    -0.183 A  
HETATM    7  C   UNL     1     -10.305   8.669  67.786  1.00  0.00    -0.242 A  
HETATM    8  C   UNL     1     -10.132  10.932  68.622  1.00  0.00    -0.200 A  
HETATM    9  C   UNL     1     -10.172   8.895  70.070  1.00  0.00    -0.199 A  
HETATM   10  N   UNL     1     -10.268   8.094  69.001  1.00  0.00    -0.216 NA 
BRANCH   9  11
HETATM   11  N   UNL     1     -10.260   8.324  71.324  1.00  0.00    -0.195 NA 
HETATM   12  C   UNL     1      -9.116   8.399  72.251  1.00  0.00    -0.243 C  
HETATM   13  C   UNL     1     -10.840   6.079  72.244  1.00  0.00    -0.245 C  
HETATM   14  C   UNL     1      -8.707   7.012  72.806  1.00  0.00    -0.119 C  
HETATM   15  N   UNL     1      -9.811   6.158  73.300  1.00  0.00    -0.161 NA 
HETATM   16  C   UNL     1     -10.365   6.658  74.556  1.00  0.00    -0.026 C  
HETATM   17  C   UNL     1     -11.361   7.440  71.722  1.00  0.00    -0.255 C  
ENDBRANCH   9  11
BRANCH   8  18
HETATM   18  C   UNL     1     -10.185  12.455  68.617  1.00  0.00    -0.169 A  
HETATM   19  C   UNL     1     -11.588  14.445  69.173  1.00  0.00    -0.344 A  
HETATM   20  C   UNL     1     -10.602  15.306  68.738  1.00  0.00    -0.240 A  
HETATM   21  C   UNL     1     -11.387  13.062  69.089  1.00  0.00    -0.328 A  
HETATM   22  C   UNL     1      -9.420  14.772  68.250  1.00  0.00    -0.207 A  
HETATM   23  C   UNL     1      -9.180  13.371  68.213  1.00  0.00    -0.198 A  
HETATM   24  C   UNL     1      -7.815  13.006  67.710  1.00  0.00    -0.157 C  
ENDBRANCH   8  18
ENDBRANCH   2   5
BRANCH   4  25
HETATM   25  C   UNL     1      -8.002   9.777  65.435  1.00  0.00    -0.125 C  
HETATM   26  C   UNL     1      -7.676  10.181  66.897  1.00  0.00    -0.103 C  
HETATM   27  C   UNL     1      -6.813  10.237  64.584  1.00  0.00    -0.077 C  
BRANCH  25  28
HETATM   28  C   UNL     1      -8.050   8.234  65.254  1.00  0.00    -0.142 A  
HETATM   29  C   UNL     1      -7.101   6.189  64.277  1.00  0.00    -0.053 A  
HETATM   30  C   UNL     1      -7.090   7.581  64.459  1.00  0.00    -0.065 A  
HETATM   31  F   UNL     1     -10.027   3.895  66.202  1.00  0.00    -0.201 F  
HETATM   32  C   UNL     1      -6.092   5.521  63.373  1.00  0.00    -0.021 C  
HETATM   33  F   UNL     1     -11.339   5.628  66.200  1.00  0.00    -0.183 F  
HETATM   34  C   UNL     1      -8.075   5.425  64.935  1.00  0.00    -0.122 A  
HETATM   35  F   UNL     1      -5.337   4.597  64.028  1.00  0.00    -0.011 F  
HETATM   36  F   UNL     1      -5.207   6.391  62.808  1.00  0.00    -0.019 F  
HETATM   37  F   UNL     1      -9.954   5.317  67.845  1.00  0.00    -0.152 F  
HETATM   38  C   UNL     1     -10.072   5.225  66.492  1.00  0.00    -0.229 C  
HETATM   39  C   UNL     1      -9.025   6.037  65.765  1.00  0.00    -0.116 A  
HETATM   40  F   UNL     1      -6.678   4.860  62.337  1.00  0.00    -0.024 F  
HETATM   41  C   UNL     1      -8.997   7.436  65.920  1.00  0.00    -0.114 A  
ENDBRANCH  25  28
ENDBRANCH   4  25
TORSDOF 5
ENDMDL
MODEL      185
REMARK 921   NORMALIZED FREE ENERGY PREDICTED BY IDOCK:   -2.44 KCAL/MOL
REMARK 922        TOTAL FREE ENERGY PREDICTED BY IDOCK:   -4.79 KCAL/MOL
REMARK 923 INTER-LIGAND FREE ENERGY PREDICTED BY IDOCK:   -2.96 KCAL/MOL
REMARK 924 INTRA-LIGAND FREE ENERGY PREDICTED BY IDOCK:   -1.83 KCAL/MOL
REMARK 927      BINDING AFFINITY PREDICTED BY RF-SCORE:    0.00 PKD
ROOT
HETATM    1  C   UNL     1     -13.155  11.775  67.710  1.00  0.00     4.895 C  
HETATM    2  N   UNL     1     -11.744  11.599  67.328  1.00  0.00    -0.247 N  
HETATM    3  O   UNL     1     -12.024  13.230  65.787  1.00  0.00    -0.373 OA 
HETATM    4  C   UNL     1     -11.223  12.528  66.428  1.00  0.00    -0.306 C  
ENDROOT
BRANCH   2   5
HETATM    5  C   UNL     1     -10.996  10.823  68.235  1.00  0.00    -0.255 A  
HETATM    6  C   UNL     1     -10.084  10.116  70.309  1.00  0.00    -0.131 A  
HETATM    7  C   UNL     1     -10.291   9.739  67.686  1.00  0.00    -0.230 A  
HETATM    8  C   UNL     1     -10.893  11.064  69.618  1.00  0.00    -0.241 A  
HETATM    9  C   UNL     1      -9.515   8.980  69.713  1.00  0.00    -0.175 A  
HETATM   10  N   UNL     1      -9.590   8.829  68.384  1.00  0.00    -0.145 NA 
BRANCH   9  11
HETATM   11  N   UNL     1      -8.906   7.985  70.451  1.00  0.00    -0.140 NA 
HETATM   12  C   UNL     1      -9.663   7.271  71.494  1.00  0.00    -0.159 C  
HETATM   13  C   UNL     1      -6.837   7.776  71.829  1.00  0.00    -0.059 C  
HETATM   14  C   UNL     1      -8.937   7.272  72.863  1.00  0.00    -0.134 C  
HETATM   15  N   UNL     1      -7.499   6.923  72.836  1.00  0.00    -0.082 NA 
HETATM   16  C   UNL     1      -7.289   5.504  72.561  1.00  0.00    -0.095 C  
HETATM   17  C   UNL     1      -7.461   7.736  70.412  1.00  0.00    -0.078 C  
ENDBRANCH   9  11
BRANCH   8  18
HETATM   18  C   UNL     1     -11.630  12.106  70.451  1.00  0.00     0.019 A  
HETATM   19  C   UNL     1     -11.938  14.554  70.840  1.00  0.00    -0.389 A  
HETATM   20  C   UNL     1     -12.850  14.315  71.846  1.00  0.00    -0.429 A  
HETATM   21  C   UNL     1     -11.331  13.476  70.184  1.00  0.00     0.042 A  
HETATM   22  C   UNL     1     -13.163  13.002  72.164  1.00  0.00    -0.558 A  
HETATM   23  C   UNL     1     -12.599  11.899  71.465  1.00  0.00    -0.298 A  
HETATM   24  C   UNL     1     -13.118  10.568  71.920  1.00  0.00    -0.567 C  
ENDBRANCH   8  18
ENDBRANCH   2   5
BRANCH   4  25
HETATM   25  C   UNL     1      -9.682  12.809  66.212  1.00  0.00    -0.262 C  
HETATM   26  C   UNL     1      -9.621  13.307  64.744  1.00  0.00     0.334 C  
HETATM   27  C   UNL     1      -8.645  11.687  66.331  1.00  0.00    -0.143 C  
BRANCH  25  28
HETATM   28  C   UNL     1      -9.209  13.898  67.216  1.00  0.00    -0.235 A  
HETATM   29  C   UNL     1      -7.582  14.669  68.888  1.00  0.00    -0.139 A  
HETATM   30  C   UNL     1      -8.040  13.706  67.975  1.00  0.00    -0.161 A  
HETATM   31  F   UNL     1      -9.710  18.248  69.327  1.00  0.00    -0.261 F  
HETATM   32  C   UNL     1      -6.355  14.412  69.731  1.00  0.00    -0.146 C  
HETATM   33  F   UNL     1     -11.514  17.213  68.698  1.00  0.00    -0.155 F  
HETATM   34  C   UNL     1      -8.292  15.871  69.021  1.00  0.00    -0.239 A  
HETATM   35  F   UNL     1      -5.381  15.343  69.531  1.00  0.00    -0.097 F  
HETATM   36  F   UNL     1      -5.770  13.205  69.488  1.00  0.00    -0.076 F  
HETATM   37  F   UNL     1     -10.211  18.122  67.216  1.00  0.00    -0.307 F  
HETATM   38  C   UNL     1     -10.207  17.410  68.376  1.00  0.00    -0.362 C  
HETATM   39  C   UNL     1      -9.440  16.113  68.254  1.00  0.00    -0.208 A  
HETATM   40  F   UNL     1      -6.625  14.433  71.064  1.00  0.00    -0.145 F  
HETATM   41  C   UNL     1      -9.882  15.125  67.355  1.00  0.00    -0.224 A  
ENDBRANCH  25  28
ENDBRANCH   4  25
TORSDOF 5
ENDMDL
MODEL      186
REMARK 921   NORMALIZED FREE ENERGY PREDICTED BY IDOCK:   -2.42 KCAL/MOL
REMARK 922        TOTAL FREE ENERGY PREDICTED BY IDOCK:   -4.76 KCAL/MOL
REMARK 923 INTER-LIGAND FREE ENERGY PREDICTED BY IDOCK:   -5.73 KCAL/MOL
REMARK 924 INTRA-LIGAND FREE ENERGY PREDICTED BY IDOCK:    0.96 KCAL/MOL
REMARK 927      BINDING AFFINITY PREDICTED BY RF-SCORE:    0.00 PKD
ROOT
HETATM    1  C   UNL     1     -12.277  11.374  69.138  1.00  0.00    -0.175 C  
HETATM    2  N   UNL     1     -11.301  10.332  69.498  1.00  0.00    -0.249 N  
HETATM    3  O   UNL     1     -11.905  10.603  71.660  1.00  0.00    -0.108 OA 
HETATM    4  C   UNL     1     -11.315   9.898  70.823  1.00  0.00    -0.353 C  
ENDROOT
BRANCH   2   5
HETATM    5  C   UNL     1     -10.808   9.602  68.399  1.00  0.00    -0.167 A  
HETATM    6  C   UNL     1      -9.773   9.197  66.302  1.00  0.00    -0.344 A  
HETATM    7  C   UNL     1     -10.969   8.208  68.460  1.00  0.00     0.227 A  
HETATM    8  C   UNL     1     -10.197  10.161  67.261  1.00  0.00    -0.273 A  
HETATM    9  C   UNL     1      -9.850   7.808  66.491  1.00  0.00    -0.185 A  
HETATM   10  N   UNL     1     -10.495   7.327  67.562  1.00  0.00    -0.240 NA 
BRANCH   9  11
HETATM   11  N   UNL     1      -9.252   6.911  65.630  1.00  0.00     0.119 NA 
HETATM   12  C   UNL     1      -9.188   5.481  65.980  1.00  0.00    -0.158 C  
HETATM   13  C   UNL     1      -7.046   6.714  64.482  1.00  0.00    -0.060 C  
HETATM   14  C   UNL     1      -7.750   4.909  65.889  1.00  0.00    -0.091 C  
HETATM   15  N   UNL     1      -6.992   5.250  64.664  1.00  0.00    -0.049 NA 
HETATM   16  C   UNL     1      -7.504   4.543  63.493  1.00  0.00    -0.055 C  
HETATM   17  C   UNL     1      -8.466   7.330  64.464  1.00  0.00     0.186 C  
ENDBRANCH   9  11
BRANCH   8  18
HETATM   18  C   UNL     1      -9.830  11.619  67.008  1.00  0.00    -0.211 A  
HETATM   19  C   UNL     1      -8.113  13.386  67.414  1.00  0.00    -0.178 A  
HETATM   20  C   UNL     1      -8.851  14.315  66.713  1.00  0.00    -0.207 A  
HETATM   21  C   UNL     1      -8.606  12.085  67.574  1.00  0.00    -0.167 A  
HETATM   22  C   UNL     1     -10.060  13.924  66.159  1.00  0.00    -0.317 A  
HETATM   23  C   UNL     1     -10.545  12.591  66.263  1.00  0.00    -0.273 A  
HETATM   24  C   UNL     1     -11.838  12.362  65.539  1.00  0.00    -0.469 C  
ENDBRANCH   8  18
ENDBRANCH   2   5
BRANCH   4  25
HETATM   25  C   UNL     1     -10.697   8.534  71.333  1.00  0.00    -0.317 C  
HETATM   26  C   UNL     1     -11.636   7.470  70.707  1.00  0.00    -0.300 C  
HETATM   27  C   UNL     1     -10.613   8.210  72.829  1.00  0.00    -0.386 C  
BRANCH  25  28
HETATM   28  C   UNL     1      -9.238   8.401  70.814  1.00  0.00    -0.186 A  
HETATM   29  C   UNL     1      -7.118   9.462  70.169  1.00  0.00    -0.083 A  
HETATM   30  C   UNL     1      -8.440   9.545  70.633  1.00  0.00    -0.166 A  
HETATM   31  F   UNL     1      -5.466   5.701  69.360  1.00  0.00    -0.003 F  
HETATM   32  C   UNL     1      -6.303  10.712  69.931  1.00  0.00    -0.110 C  
HETATM   33  F   UNL     1      -7.465   4.945  68.965  1.00  0.00    -0.057 F  
HETATM   34  C   UNL     1      -6.566   8.199  69.913  1.00  0.00    -0.039 A  
HETATM   35  F   UNL     1      -5.164  10.741  70.675  1.00  0.00    -0.055 F  
HETATM   36  F   UNL     1      -6.971  11.863  70.229  1.00  0.00     0.118 F  
HETATM   37  F   UNL     1      -6.669   4.906  70.987  1.00  0.00    -0.030 F  
HETATM   38  C   UNL     1      -6.733   5.666  69.859  1.00  0.00    -0.051 C  
HETATM   39  C   UNL     1      -7.319   7.034  70.117  1.00  0.00    -0.081 A  
HETATM   40  F   UNL     1      -5.907  10.836  68.635  1.00  0.00    -0.042 F  
HETATM   41  C   UNL     1      -8.646   7.149  70.572  1.00  0.00    -0.144 A  
ENDBRANCH  25  28
ENDBRANCH   4  25
TORSDOF 5
ENDMDL
MODEL      187
REMARK 921   NORMALIZED FREE ENERGY PREDICTED BY IDOCK:   -2.40 KCAL/MOL
REMARK 922        TOTAL FREE ENERGY PREDICTED BY IDOCK:   -4.75 KCAL/MOL
REMARK 923 INTER-LIGAND FREE ENERGY PREDICTED BY IDOCK:   -3.81 KCAL/MOL
REMARK 924 INTRA-LIGAND FREE ENERGY PREDICTED BY IDOCK:   -0.93 KCAL/MOL
REMARK 927      BINDING AFFINITY PREDICTED BY RF-SCORE:    0.00 PKD
ROOT
HETATM    1  C   UNL     1      -7.523   7.473  66.571  1.00  0.00    -0.084 C  
HETATM    2  N   UNL     1      -8.815   7.525  67.274  1.00  0.00    -0.123 N  
HETATM    3  O   UNL     1      -8.720   5.275  67.483  1.00  0.00    -0.108 OA 
HETATM    4  C   UNL     1      -9.259   6.334  67.849  1.00  0.00    -0.116 C  
ENDROOT
BRANCH   2   5
HETATM    5  C   UNL     1      -9.206   8.821  67.662  1.00  0.00    -0.134 A  
HETATM    6  C   UNL     1      -9.437  10.739  69.041  1.00  0.00    -0.179 A  
HETATM    7  C   UNL     1      -9.930   9.559  66.711  1.00  0.00    -0.233 A  
HETATM    8  C   UNL     1      -8.944   9.408  68.914  1.00  0.00    -0.136 A  
HETATM    9  C   UNL     1     -10.038  11.461  67.999  1.00  0.00    -0.180 A  
HETATM   10  N   UNL     1     -10.320  10.839  66.847  1.00  0.00    -0.231 NA 
BRANCH   9  11
HETATM   11  N   UNL     1     -10.322  12.808  68.101  1.00  0.00    -0.232 NA 
HETATM   12  C   UNL     1     -10.457  13.436  69.427  1.00  0.00     0.295 C  
HETATM   13  C   UNL     1     -12.064  14.354  67.207  1.00  0.00    -0.323 C  
HETATM   14  C   UNL     1     -11.783  14.223  69.582  1.00  0.00    -0.308 C  
HETATM   15  N   UNL     1     -12.137  15.126  68.463  1.00  0.00    -0.196 NA 
HETATM   16  C   UNL     1     -11.273  16.304  68.422  1.00  0.00    -0.349 C  
HETATM   17  C   UNL     1     -10.722  13.627  66.951  1.00  0.00    -0.275 C  
ENDBRANCH   9  11
BRANCH   8  18
HETATM   18  C   UNL     1      -8.108   8.851  70.060  1.00  0.00    -0.116 A  
HETATM   19  C   UNL     1      -5.873   7.931  70.689  1.00  0.00    -0.029 A  
HETATM   20  C   UNL     1      -6.273   7.759  71.998  1.00  0.00    -0.040 A  
HETATM   21  C   UNL     1      -6.778   8.439  69.749  1.00  0.00    -0.039 A  
HETATM   22  C   UNL     1      -7.562   8.122  72.353  1.00  0.00    -0.153 A  
HETATM   23  C   UNL     1      -8.472   8.695  71.422  1.00  0.00    -0.240 A  
HETATM   24  C   UNL     1      -9.791   9.076  72.024  1.00  0.00    -0.198 C  
ENDBRANCH   8  18
ENDBRANCH   2   5
BRANCH   4  25
HETATM   25  C   UNL     1     -10.351   6.234  68.989  1.00  0.00    -0.251 C  
HETATM   26  C   UNL     1     -11.520   5.493  68.288  1.00  0.00     1.473 C  
HETATM   27  C   UNL     1     -10.955   7.491  69.624  1.00  0.00    -0.164 C  
BRANCH  25  28
HETATM   28  C   UNL     1      -9.778   5.420  70.183  1.00  0.00    -0.252 A  
HETATM   29  C   UNL     1      -7.838   4.525  71.396  1.00  0.00    -0.086 A  
HETATM   30  C   UNL     1      -8.389   5.250  70.328  1.00  0.00    -0.106 A  
HETATM   31  F   UNL     1     -10.385   2.867  74.276  1.00  0.00    -0.158 F  
HETATM   32  C   UNL     1      -6.346   4.311  71.495  1.00  0.00    -0.018 C  
HETATM   33  F   UNL     1     -11.960   2.775  72.780  1.00  0.00     0.266 F  
HETATM   34  C   UNL     1      -8.696   3.983  72.364  1.00  0.00    -0.116 A  
HETATM   35  F   UNL     1      -5.824   4.809  72.650  1.00  0.00    -0.013 F  
HETATM   36  F   UNL     1      -5.643   4.900  70.486  1.00  0.00    -0.012 F  
HETATM   37  F   UNL     1     -11.705   4.569  73.980  1.00  0.00    -0.123 F  
HETATM   38  C   UNL     1     -11.018   3.598  73.316  1.00  0.00    -0.175 C  
HETATM   39  C   UNL     1     -10.083   4.164  72.273  1.00  0.00    -0.247 A  
HETATM   40  F   UNL     1      -6.005   2.994  71.468  1.00  0.00    -0.012 F  
HETATM   41  C   UNL     1     -10.608   4.886  71.186  1.00  0.00    -0.096 A  
ENDBRANCH  25  28
ENDBRANCH   4  25
TORSDOF 5
ENDMDL
MODEL      188
REMARK 921   NORMALIZED FREE ENERGY PREDICTED BY IDOCK:   -2.40 KCAL/MOL
REMARK 922        TOTAL FREE ENERGY PREDICTED BY IDOCK:   -4.75 KCAL/MOL
REMARK 923 INTER-LIGAND FREE ENERGY PREDICTED BY IDOCK:   -3.24 KCAL/MOL
REMARK 924 INTRA-LIGAND FREE ENERGY PREDICTED BY IDOCK:   -1.51 KCAL/MOL
REMARK 927      BINDING AFFINITY PREDICTED BY RF-SCORE:    0.00 PKD
ROOT
HETATM    1  C   UNL     1     -12.372   8.346  71.215  1.00  0.00    -0.266 C  
HETATM    2  N   UNL     1     -11.448   8.348  70.069  1.00  0.00    -0.007 N  
HETATM    3  O   UNL     1     -11.879   6.144  69.799  1.00  0.00    -0.219 OA 
HETATM    4  C   UNL     1     -11.400   7.181  69.307  1.00  0.00     0.086 C  
ENDROOT
BRANCH   2   5
HETATM    5  C   UNL     1     -11.085   9.635  69.627  1.00  0.00    -0.193 A  
HETATM    6  C   UNL     1      -9.721  11.543  69.264  1.00  0.00     0.258 A  
HETATM    7  C   UNL     1     -12.080  10.358  68.948  1.00  0.00     0.293 A  
HETATM    8  C   UNL     1      -9.831  10.240  69.830  1.00  0.00    -0.201 A  
HETATM    9  C   UNL     1     -10.717  12.151  68.484  1.00  0.00    -0.232 A  
HETATM   10  N   UNL     1     -11.914  11.562  68.372  1.00  0.00    -0.562 NA 
BRANCH   9  11
HETATM   11  N   UNL     1     -10.499  13.325  67.792  1.00  0.00    -0.235 NA 
HETATM   12  C   UNL     1      -9.698  13.316  66.555  1.00  0.00    -0.273 C  
HETATM   13  C   UNL     1      -9.613  15.594  68.331  1.00  0.00    -0.199 C  
HETATM   14  C   UNL     1      -8.548  14.354  66.581  1.00  0.00    -0.019 C  
HETATM   15  N   UNL     1      -8.911  15.715  67.038  1.00  0.00    -0.209 NA 
HETATM   16  C   UNL     1      -9.721  16.422  66.049  1.00  0.00    -0.326 C  
HETATM   17  C   UNL     1     -10.836  14.645  68.337  1.00  0.00    -0.245 C  
ENDBRANCH   9  11
BRANCH   8  18
HETATM   18  C   UNL     1      -8.578   9.629  70.447  1.00  0.00    -0.200 A  
HETATM   19  C   UNL     1      -6.081   9.672  70.449  1.00  0.00    -0.065 A  
HETATM   20  C   UNL     1      -6.029   8.682  71.408  1.00  0.00    -0.047 A  
HETATM   21  C   UNL     1      -7.322  10.110  69.970  1.00  0.00    -0.172 A  
HETATM   22  C   UNL     1      -7.219   8.162  71.892  1.00  0.00    -0.094 A  
HETATM   23  C   UNL     1      -8.487   8.639  71.458  1.00  0.00    -0.238 A  
HETATM   24  C   UNL     1      -9.646   7.989  72.153  1.00  0.00    -0.277 C  
ENDBRANCH   8  18
ENDBRANCH   2   5
BRANCH   4  25
HETATM   25  C   UNL     1     -10.843   7.090  67.829  1.00  0.00    -0.276 C  
HETATM   26  C   UNL     1     -11.487   8.321  67.138  1.00  0.00     1.778 C  
HETATM   27  C   UNL     1     -11.151   5.883  66.937  1.00  0.00    -0.175 C  
BRANCH  25  28
HETATM   28  C   UNL     1      -9.291   7.182  67.855  1.00  0.00    -0.128 A  
HETATM   29  C   UNL     1      -7.127   6.226  68.517  1.00  0.00    -0.083 A  
HETATM   30  C   UNL     1      -8.529   6.177  68.478  1.00  0.00    -0.114 A  
HETATM   31  F   UNL     1      -5.139   9.414  66.668  1.00  0.00    -0.034 F  
HETATM   32  C   UNL     1      -6.336   5.163  69.242  1.00  0.00    -0.034 C  
HETATM   33  F   UNL     1      -6.900  10.649  66.979  1.00  0.00    -0.076 F  
HETATM   34  C   UNL     1      -6.467   7.289  67.884  1.00  0.00    -0.049 A  
HETATM   35  F   UNL     1      -5.465   4.512  68.423  1.00  0.00    -0.012 F  
HETATM   36  F   UNL     1      -7.114   4.193  69.803  1.00  0.00    -0.040 F  
HETATM   37  F   UNL     1      -6.724   9.442  65.180  1.00  0.00    -0.073 F  
HETATM   38  C   UNL     1      -6.493   9.433  66.522  1.00  0.00    -0.067 C  
HETATM   39  C   UNL     1      -7.191   8.289  67.220  1.00  0.00    -0.084 A  
HETATM   40  F   UNL     1      -5.588   5.673  70.258  1.00  0.00    -0.007 F  
HETATM   41  C   UNL     1      -8.597   8.220  67.208  1.00  0.00    -0.124 A  
ENDBRANCH  25  28
ENDBRANCH   4  25
TORSDOF 5
ENDMDL
MODEL      189
REMARK 921   NORMALIZED FREE ENERGY PREDICTED BY IDOCK:   -2.30 KCAL/MOL
REMARK 922        TOTAL FREE ENERGY PREDICTED BY IDOCK:   -4.62 KCAL/MOL
REMARK 923 INTER-LIGAND FREE ENERGY PREDICTED BY IDOCK:   -3.38 KCAL/MOL
REMARK 924 INTRA-LIGAND FREE ENERGY PREDICTED BY IDOCK:   -1.24 KCAL/MOL
REMARK 927      BINDING AFFINITY PREDICTED BY RF-SCORE:    0.00 PKD
ROOT
HETATM    1  C   UNL     1     -12.643   9.719  69.261  1.00  0.00     1.663 C  
HETATM    2  N   UNL     1     -11.267   9.605  68.750  1.00  0.00    -0.040 N  
HETATM    3  O   UNL     1     -11.765  11.209  67.235  1.00  0.00    -0.540 OA 
HETATM    4  C   UNL     1     -10.876  10.550  67.802  1.00  0.00    -0.294 C  
ENDROOT
BRANCH   2   5
HETATM    5  C   UNL     1     -10.403   8.871  69.586  1.00  0.00    -0.212 A  
HETATM    6  C   UNL     1      -8.950   7.125  70.273  1.00  0.00    -0.152 A  
HETATM    7  C   UNL     1     -10.162   9.417  70.857  1.00  0.00    -0.303 A  
HETATM    8  C   UNL     1      -9.793   7.648  69.250  1.00  0.00    -0.168 A  
HETATM    9  C   UNL     1      -8.654   7.794  71.471  1.00  0.00    -0.117 A  
HETATM   10  N   UNL     1      -9.306   8.924  71.770  1.00  0.00    -0.313 NA 
BRANCH   9  11
HETATM   11  N   UNL     1      -7.683   7.348  72.345  1.00  0.00    -0.087 NA 
HETATM   12  C   UNL     1      -6.307   7.121  71.867  1.00  0.00    -0.041 C  
HETATM   13  C   UNL     1      -7.430   5.444  73.937  1.00  0.00    -0.090 C  
HETATM   14  C   UNL     1      -5.780   5.708  72.222  1.00  0.00    -0.026 C  
HETATM   15  N   UNL     1      -6.001   5.262  73.616  1.00  0.00    -0.041 NA 
HETATM   16  C   UNL     1      -5.142   5.978  74.558  1.00  0.00    -0.029 C  
HETATM   17  C   UNL     1      -7.988   6.868  73.697  1.00  0.00    -0.100 C  
ENDBRANCH   9  11
BRANCH   8  18
HETATM   18  C   UNL     1      -9.825   6.913  67.915  1.00  0.00    -0.155 A  
HETATM   19  C   UNL     1     -11.287   5.703  66.292  1.00  0.00     0.584 A  
HETATM   20  C   UNL     1     -10.221   5.476  65.447  1.00  0.00     0.526 A  
HETATM   21  C   UNL     1     -11.082   6.381  67.500  1.00  0.00    -0.401 A  
HETATM   22  C   UNL     1      -8.971   5.952  65.809  1.00  0.00    -0.131 A  
HETATM   23  C   UNL     1      -8.760   6.693  67.005  1.00  0.00    -0.113 A  
HETATM   24  C   UNL     1      -7.349   7.171  67.177  1.00  0.00    -0.090 C  
ENDBRANCH   8  18
ENDBRANCH   2   5
BRANCH   4  25
HETATM   25  C   UNL     1      -9.376  10.900  67.442  1.00  0.00    -0.166 C  
HETATM   26  C   UNL     1      -9.226  10.349  65.999  1.00  0.00    -0.200 C  
HETATM   27  C   UNL     1      -8.209  10.320  68.248  1.00  0.00    -0.115 C  
BRANCH  25  28
HETATM   28  C   UNL     1      -9.176  12.440  67.501  1.00  0.00    -0.183 A  
HETATM   29  C   UNL     1      -8.065  14.392  68.499  1.00  0.00    -0.146 A  
HETATM   30  C   UNL     1      -8.273  13.006  68.420  1.00  0.00    -0.123 A  
HETATM   31  F   UNL     1     -10.133  16.923  65.882  1.00  0.00    -0.309 F  
HETATM   32  C   UNL     1      -7.132  14.975  69.533  1.00  0.00    -0.192 C  
HETATM   33  F   UNL     1     -11.715  15.438  65.749  1.00  0.00    -0.206 F  
HETATM   34  C   UNL     1      -8.751  15.233  67.611  1.00  0.00    -0.179 A  
HETATM   35  F   UNL     1      -6.117  15.690  68.976  1.00  0.00    -0.101 F  
HETATM   36  F   UNL     1      -6.536  14.035  70.321  1.00  0.00    -0.150 F  
HETATM   37  F   UNL     1     -10.022  15.347  64.389  1.00  0.00     0.028 F  
HETATM   38  C   UNL     1     -10.364  15.595  65.683  1.00  0.00    -0.385 C  
HETATM   39  C   UNL     1      -9.630  14.702  66.655  1.00  0.00    -0.294 A  
HETATM   40  F   UNL     1      -7.767  15.826  70.385  1.00  0.00     0.287 F  
HETATM   41  C   UNL     1      -9.827  13.310  66.608  1.00  0.00    -0.276 A  
ENDBRANCH  25  28
ENDBRANCH   4  25
TORSDOF 5
ENDMDL
MODEL      190
REMARK 921   NORMALIZED FREE ENERGY PREDICTED BY IDOCK:   -2.29 KCAL/MOL
REMARK 922        TOTAL FREE ENERGY PREDICTED BY IDOCK:   -4.60 KCAL/MOL
REMARK 923 INTER-LIGAND FREE ENERGY PREDICTED BY IDOCK:   -6.09 KCAL/MOL
REMARK 924 INTRA-LIGAND FREE ENERGY PREDICTED BY IDOCK:    1.49 KCAL/MOL
REMARK 927      BINDING AFFINITY PREDICTED BY RF-SCORE:    0.00 PKD
ROOT
HETATM    1  C   UNL     1      -8.172  14.588  67.287  1.00  0.00    -0.208 C  
HETATM    2  N   UNL     1      -8.728  13.286  67.688  1.00  0.00    -0.182 N  
HETATM    3  O   UNL     1     -10.083  14.381  69.130  1.00  0.00    -0.197 OA 
HETATM    4  C   UNL     1      -9.835  13.317  68.536  1.00  0.00    -0.168 C  
ENDROOT
BRANCH   2   5
HETATM    5  C   UNL     1      -8.376  12.223  66.834  1.00  0.00    -0.137 A  
HETATM    6  C   UNL     1      -8.499  10.745  64.981  1.00  0.00    -0.080 A  
HETATM    7  C   UNL     1      -7.241  11.483  67.203  1.00  0.00    -0.140 A  
HETATM    8  C   UNL     1      -9.079  11.847  65.674  1.00  0.00     0.017 A  
HETATM    9  C   UNL     1      -7.285  10.137  65.339  1.00  0.00    -0.144 A  
HETATM   10  N   UNL     1      -6.688  10.490  66.484  1.00  0.00    -0.097 NA 
BRANCH   9  11
HETATM   11  N   UNL     1      -6.659   9.208  64.534  1.00  0.00    -0.078 NA 
HETATM   12  C   UNL     1      -7.324   8.721  63.312  1.00  0.00    -0.100 C  
HETATM   13  C   UNL     1      -5.622   6.961  64.848  1.00  0.00    -0.032 C  
HETATM   14  C   UNL     1      -7.388   7.174  63.245  1.00  0.00    -0.081 C  
HETATM   15  N   UNL     1      -6.131   6.457  63.557  1.00  0.00    -0.022 NA 
HETATM   16  C   UNL     1      -5.141   6.608  62.492  1.00  0.00    -0.030 C  
HETATM   17  C   UNL     1      -5.441   8.496  64.937  1.00  0.00    -0.043 C  
ENDBRANCH   9  11
BRANCH   8  18
HETATM   18  C   UNL     1     -10.269  12.543  65.025  1.00  0.00    -0.301 A  
HETATM   19  C   UNL     1     -12.506  12.193  63.971  1.00  0.00    -0.541 A  
HETATM   20  C   UNL     1     -12.657  13.547  63.758  1.00  0.00    -0.147 A  
HETATM   21  C   UNL     1     -11.333  11.711  64.565  1.00  0.00    -0.310 A  
HETATM   22  C   UNL     1     -11.645  14.402  64.166  1.00  0.00    -0.183 A  
HETATM   23  C   UNL     1     -10.475  13.932  64.823  1.00  0.00    -0.451 A  
HETATM   24  C   UNL     1      -9.536  15.025  65.239  1.00  0.00     0.008 C  
ENDBRANCH   8  18
ENDBRANCH   2   5
BRANCH   4  25
HETATM   25  C   UNL     1     -10.845  12.119  68.746  1.00  0.00    -0.265 C  
HETATM   26  C   UNL     1     -11.747  12.197  67.486  1.00  0.00    -0.385 C  
HETATM   27  C   UNL     1     -11.791  12.079  69.952  1.00  0.00    -0.405 C  
BRANCH  25  28
HETATM   28  C   UNL     1     -10.055  10.782  68.814  1.00  0.00    -0.202 A  
HETATM   29  C   UNL     1      -9.762   8.458  68.071  1.00  0.00    -0.184 A  
HETATM   30  C   UNL     1     -10.454   9.679  68.037  1.00  0.00    -0.276 A  
HETATM   31  F   UNL     1      -6.372   8.094  70.500  1.00  0.00    -0.035 F  
HETATM   32  C   UNL     1     -10.246   7.273  67.268  1.00  0.00    -0.253 C  
HETATM   33  F   UNL     1      -7.180   9.636  71.802  1.00  0.00     0.151 F  
HETATM   34  C   UNL     1      -8.620   8.347  68.877  1.00  0.00    -0.135 A  
HETATM   35  F   UNL     1      -9.314   6.828  66.382  1.00  0.00    -0.165 F  
HETATM   36  F   UNL     1     -11.364   7.534  66.532  1.00  0.00     0.021 F  
HETATM   37  F   UNL     1      -5.950  10.189  70.097  1.00  0.00    -0.040 F  
HETATM   38  C   UNL     1      -6.933   9.335  70.497  1.00  0.00    -0.093 C  
HETATM   39  C   UNL     1      -8.170   9.436  69.636  1.00  0.00    -0.136 A  
HETATM   40  F   UNL     1     -10.558   6.206  68.053  1.00  0.00    -0.177 F  
HETATM   41  C   UNL     1      -8.891  10.644  69.591  1.00  0.00     0.140 A  
ENDBRANCH  25  28
ENDBRANCH   4  25
TORSDOF 5
ENDMDL
MODEL      191
REMARK 921   NORMALIZED FREE ENERGY PREDICTED BY IDOCK:   -2.27 KCAL/MOL
REMARK 922        TOTAL FREE ENERGY PREDICTED BY IDOCK:   -4.58 KCAL/MOL
REMARK 923 INTER-LIGAND FREE ENERGY PREDICTED BY IDOCK:   -3.54 KCAL/MOL
REMARK 924 INTRA-LIGAND FREE ENERGY PREDICTED BY IDOCK:   -1.04 KCAL/MOL
REMARK 927      BINDING AFFINITY PREDICTED BY RF-SCORE:    0.00 PKD
ROOT
HETATM    1  C   UNL     1     -12.643   9.719  69.261  1.00  0.00     1.663 C  
HETATM    2  N   UNL     1     -11.267   9.605  68.750  1.00  0.00    -0.040 N  
HETATM    3  O   UNL     1     -11.765  11.209  67.235  1.00  0.00    -0.540 OA 
HETATM    4  C   UNL     1     -10.876  10.550  67.802  1.00  0.00    -0.294 C  
ENDROOT
BRANCH   2   5
HETATM    5  C   UNL     1     -10.403   8.871  69.586  1.00  0.00    -0.212 A  
HETATM    6  C   UNL     1      -8.950   7.125  70.273  1.00  0.00    -0.152 A  
HETATM    7  C   UNL     1     -10.162   9.417  70.857  1.00  0.00    -0.303 A  
HETATM    8  C   UNL     1      -9.793   7.648  69.250  1.00  0.00    -0.168 A  
HETATM    9  C   UNL     1      -8.654   7.794  71.471  1.00  0.00    -0.117 A  
HETATM   10  N   UNL     1      -9.306   8.924  71.770  1.00  0.00    -0.313 NA 
BRANCH   9  11
HETATM   11  N   UNL     1      -7.683   7.348  72.345  1.00  0.00    -0.087 NA 
HETATM   12  C   UNL     1      -6.307   7.121  71.867  1.00  0.00    -0.041 C  
HETATM   13  C   UNL     1      -7.430   5.444  73.937  1.00  0.00    -0.090 C  
HETATM   14  C   UNL     1      -5.780   5.708  72.222  1.00  0.00    -0.026 C  
HETATM   15  N   UNL     1      -6.001   5.262  73.616  1.00  0.00    -0.041 NA 
HETATM   16  C   UNL     1      -5.142   5.978  74.558  1.00  0.00    -0.029 C  
HETATM   17  C   UNL     1      -7.988   6.868  73.697  1.00  0.00    -0.100 C  
ENDBRANCH   9  11
BRANCH   8  18
HETATM   18  C   UNL     1      -9.825   6.913  67.915  1.00  0.00    -0.155 A  
HETATM   19  C   UNL     1     -11.287   5.703  66.292  1.00  0.00     0.584 A  
HETATM   20  C   UNL     1     -10.221   5.476  65.447  1.00  0.00     0.526 A  
HETATM   21  C   UNL     1     -11.082   6.381  67.500  1.00  0.00    -0.401 A  
HETATM   22  C   UNL     1      -8.971   5.952  65.809  1.00  0.00    -0.131 A  
HETATM   23  C   UNL     1      -8.760   6.693  67.005  1.00  0.00    -0.113 A  
HETATM   24  C   UNL     1      -7.349   7.171  67.177  1.00  0.00    -0.090 C  
ENDBRANCH   8  18
ENDBRANCH   2   5
BRANCH   4  25
HETATM   25  C   UNL     1      -9.376  10.900  67.442  1.00  0.00    -0.166 C  
HETATM   26  C   UNL     1      -9.209  10.299  66.020  1.00  0.00    -0.200 C  
HETATM   27  C   UNL     1      -8.211  10.359  68.278  1.00  0.00    -0.114 C  
BRANCH  25  28
HETATM   28  C   UNL     1      -9.189  12.443  67.447  1.00  0.00    -0.184 A  
HETATM   29  C   UNL     1      -9.899  14.662  66.667  1.00  0.00    -0.280 A  
HETATM   30  C   UNL     1     -10.037  13.265  66.683  1.00  0.00    -0.266 A  
HETATM   31  F   UNL     1      -6.928  16.452  69.011  1.00  0.00    -0.151 F  
HETATM   32  C   UNL     1     -10.788  15.516  65.793  1.00  0.00    -0.331 C  
HETATM   33  F   UNL     1      -5.766  14.620  68.878  1.00  0.00    -0.083 F  
HETATM   34  C   UNL     1      -8.911  15.256  67.464  1.00  0.00    -0.188 A  
HETATM   35  F   UNL     1     -11.506  16.424  66.509  1.00  0.00     0.111 F  
HETATM   36  F   UNL     1     -11.702  14.798  65.080  1.00  0.00    -0.346 F  
HETATM   37  F   UNL     1      -7.227  14.866  70.468  1.00  0.00    -0.061 F  
HETATM   38  C   UNL     1      -7.012  15.099  69.144  1.00  0.00    -0.147 C  
HETATM   39  C   UNL     1      -8.072  14.472  68.269  1.00  0.00    -0.140 A  
HETATM   40  F   UNL     1     -10.082  16.233  64.877  1.00  0.00    -0.180 F  
HETATM   41  C   UNL     1      -8.226  13.073  68.255  1.00  0.00    -0.150 A  
ENDBRANCH  25  28
ENDBRANCH   4  25
TORSDOF 5
ENDMDL
MODEL      192
REMARK 921   NORMALIZED FREE ENERGY PREDICTED BY IDOCK:   -2.21 KCAL/MOL
REMARK 922        TOTAL FREE ENERGY PREDICTED BY IDOCK:   -4.50 KCAL/MOL
REMARK 923 INTER-LIGAND FREE ENERGY PREDICTED BY IDOCK:   -3.45 KCAL/MOL
REMARK 924 INTRA-LIGAND FREE ENERGY PREDICTED BY IDOCK:   -1.05 KCAL/MOL
REMARK 927      BINDING AFFINITY PREDICTED BY RF-SCORE:    0.00 PKD
ROOT
HETATM    1  C   UNL     1      -8.108   9.377  63.973  1.00  0.00    -0.150 C  
HETATM    2  N   UNL     1      -8.914   9.637  65.177  1.00  0.00    -0.192 N  
HETATM    3  O   UNL     1      -9.705   7.523  65.026  1.00  0.00     1.372 OA 
HETATM    4  C   UNL     1      -9.580   8.542  65.728  1.00  0.00     0.002 C  
ENDROOT
BRANCH   2   5
HETATM    5  C   UNL     1      -8.559  10.814  65.864  1.00  0.00    -0.179 A  
HETATM    6  C   UNL     1      -8.716  13.051  66.642  1.00  0.00    -0.030 A  
HETATM    7  C   UNL     1      -7.365  10.762  66.601  1.00  0.00    -0.134 A  
HETATM    8  C   UNL     1      -9.289  12.017  65.847  1.00  0.00    -0.164 A  
HETATM    9  C   UNL     1      -7.587  12.884  67.459  1.00  0.00    -0.164 A  
HETATM   10  N   UNL     1      -6.892  11.741  67.393  1.00  0.00    -0.110 NA 
BRANCH   9  11
HETATM   11  N   UNL     1      -7.180  13.846  68.361  1.00  0.00    -0.100 NA 
HETATM   12  C   UNL     1      -8.181  14.652  69.083  1.00  0.00    -0.068 C  
HETATM   13  C   UNL     1      -5.642  15.809  68.329  1.00  0.00    -0.115 C  
HETATM   14  C   UNL     1      -7.924  16.175  68.954  1.00  0.00    -0.223 C  
HETATM   15  N   UNL     1      -6.532  16.621  69.182  1.00  0.00    -0.187 NA 
HETATM   16  C   UNL     1      -6.157  16.530  70.592  1.00  0.00     0.450 C  
HETATM   17  C   UNL     1      -5.783  14.276  68.491  1.00  0.00    -0.096 C  
ENDBRANCH   9  11
BRANCH   8  18
HETATM   18  C   UNL     1     -10.645  12.287  65.206  1.00  0.00    -0.322 A  
HETATM   19  C   UNL     1     -12.209  11.600  63.384  1.00  0.00    -0.319 A  
HETATM   20  C   UNL     1     -13.132  12.548  63.770  1.00  0.00     0.007 A  
HETATM   21  C   UNL     1     -10.993  11.495  64.071  1.00  0.00    -0.454 A  
HETATM   22  C   UNL     1     -12.838  13.362  64.853  1.00  0.00    -0.292 A  
HETATM   23  C   UNL     1     -11.634  13.226  65.596  1.00  0.00    -0.363 A  
HETATM   24  C   UNL     1     -11.540  14.158  66.768  1.00  0.00    -0.409 C  
ENDBRANCH   8  18
ENDBRANCH   2   5
BRANCH   4  25
HETATM   25  C   UNL     1     -10.128   8.471  67.210  1.00  0.00    -0.317 C  
HETATM   26  C   UNL     1     -11.215   7.367  67.127  1.00  0.00     0.199 C  
HETATM   27  C   UNL     1     -10.794   9.684  67.870  1.00  0.00    -0.272 C  
BRANCH  25  28
HETATM   28  C   UNL     1      -8.971   8.078  68.171  1.00  0.00    -0.135 A  
HETATM   29  C   UNL     1      -7.285   8.739  69.832  1.00  0.00    -0.051 A  
HETATM   30  C   UNL     1      -8.331   9.058  68.952  1.00  0.00    -0.125 A  
HETATM   31  F   UNL     1      -6.073   4.749  70.208  1.00  0.00    -0.018 F  
HETATM   32  C   UNL     1      -6.578   9.820  70.616  1.00  0.00    -0.113 C  
HETATM   33  F   UNL     1      -6.773   4.381  68.183  1.00  0.00    -0.042 F  
HETATM   34  C   UNL     1      -6.893   7.399  69.963  1.00  0.00    -0.055 A  
HETATM   35  F   UNL     1      -6.662   9.627  71.961  1.00  0.00     0.151 F  
HETATM   36  F   UNL     1      -7.073  11.070  70.388  1.00  0.00    -0.068 F  
HETATM   37  F   UNL     1      -8.138   4.167  69.861  1.00  0.00    -0.055 F  
HETATM   38  C   UNL     1      -7.130   4.941  69.371  1.00  0.00    -0.055 C  
HETATM   39  C   UNL     1      -7.533   6.390  69.230  1.00  0.00    -0.094 A  
HETATM   40  F   UNL     1      -5.250   9.887  70.328  1.00  0.00    -0.033 F  
HETATM   41  C   UNL     1      -8.570   6.742  68.346  1.00  0.00    -0.125 A  
ENDBRANCH  25  28
ENDBRANCH   4  25
TORSDOF 5
ENDMDL
MODEL      193
REMARK 921   NORMALIZED FREE ENERGY PREDICTED BY IDOCK:   -2.12 KCAL/MOL
REMARK 922        TOTAL FREE ENERGY PREDICTED BY IDOCK:   -4.39 KCAL/MOL
REMARK 923 INTER-LIGAND FREE ENERGY PREDICTED BY IDOCK:   -5.29 KCAL/MOL
REMARK 924 INTRA-LIGAND FREE ENERGY PREDICTED BY IDOCK:    0.90 KCAL/MOL
REMARK 927      BINDING AFFINITY PREDICTED BY RF-SCORE:    0.00 PKD
ROOT
HETATM    1  C   UNL     1     -10.845   8.341  66.720  1.00  0.00     0.210 C  
HETATM    2  N   UNL     1      -9.719   8.359  67.668  1.00  0.00    -0.153 N  
HETATM    3  O   UNL     1      -9.823   6.101  67.737  1.00  0.00    -0.117 OA 
HETATM    4  C   UNL     1      -9.166   7.123  68.000  1.00  0.00    -0.130 C  
ENDROOT
BRANCH   2   5
HETATM    5  C   UNL     1      -9.067   9.604  67.762  1.00  0.00    -0.124 A  
HETATM    6  C   UNL     1      -7.896  11.543  67.054  1.00  0.00    -0.161 A  
HETATM    7  C   UNL     1      -8.998  10.170  69.045  1.00  0.00    -0.167 A  
HETATM    8  C   UNL     1      -8.475  10.294  66.687  1.00  0.00    -0.124 A  
HETATM    9  C   UNL     1      -7.981  12.107  68.336  1.00  0.00    -0.152 A  
HETATM   10  N   UNL     1      -8.499  11.384  69.338  1.00  0.00     0.307 NA 
BRANCH   9  11
HETATM   11  N   UNL     1      -7.581  13.401  68.602  1.00  0.00    -0.122 NA 
HETATM   12  C   UNL     1      -8.499  14.525  68.347  1.00  0.00    -0.163 C  
HETATM   13  C   UNL     1      -5.651  14.853  67.977  1.00  0.00    -0.134 C  
HETATM   14  C   UNL     1      -7.859  15.629  67.468  1.00  0.00    -0.161 C  
HETATM   15  N   UNL     1      -6.495  16.058  67.854  1.00  0.00    -0.131 NA 
HETATM   16  C   UNL     1      -6.501  16.840  69.089  1.00  0.00    -0.208 C  
HETATM   17  C   UNL     1      -6.194  13.756  68.924  1.00  0.00    -0.091 C  
ENDBRANCH   9  11
BRANCH   8  18
HETATM   18  C   UNL     1      -8.501   9.933  65.207  1.00  0.00    -0.158 A  
HETATM   19  C   UNL     1      -9.646  10.358  63.028  1.00  0.00    -0.341 A  
HETATM   20  C   UNL     1      -8.816   9.468  62.378  1.00  0.00    -0.256 A  
HETATM   21  C   UNL     1      -9.503  10.560  64.406  1.00  0.00    -0.333 A  
HETATM   22  C   UNL     1      -7.838   8.813  63.111  1.00  0.00    -0.149 A  
HETATM   23  C   UNL     1      -7.644   9.054  64.499  1.00  0.00    -0.108 A  
HETATM   24  C   UNL     1      -6.493   8.293  65.087  1.00  0.00    -0.052 C  
ENDBRANCH   8  18
ENDBRANCH   2   5
BRANCH   4  25
HETATM   25  C   UNL     1      -7.727   6.915  68.624  1.00  0.00    -0.113 C  
HETATM   26  C   UNL     1      -7.077   8.317  68.475  1.00  0.00    -0.077 C  
HETATM   27  C   UNL     1      -6.736   5.914  68.021  1.00  0.00    -0.061 C  
BRANCH  25  28
HETATM   28  C   UNL     1      -7.865   6.493  70.114  1.00  0.00    -0.107 A  
HETATM   29  C   UNL     1      -8.856   6.858  72.332  1.00  0.00    -0.139 A  
HETATM   30  C   UNL     1      -8.705   7.213  70.983  1.00  0.00    -0.141 A  
HETATM   31  F   UNL     1      -6.808   3.519  73.811  1.00  0.00    -0.037 F  
HETATM   32  C   UNL     1      -9.721   7.683  73.256  1.00  0.00    -0.288 C  
HETATM   33  F   UNL     1      -5.291   3.815  72.282  1.00  0.00     0.000 F  
HETATM   34  C   UNL     1      -8.178   5.731  72.818  1.00  0.00    -0.112 A  
HETATM   35  F   UNL     1     -10.731   6.958  73.811  1.00  0.00    -0.338 F  
HETATM   36  F   UNL     1     -10.319   8.743  72.640  1.00  0.00    -0.357 F  
HETATM   37  F   UNL     1      -7.042   2.602  71.854  1.00  0.00    -0.033 F  
HETATM   38  C   UNL     1      -6.636   3.742  72.478  1.00  0.00    -0.021 C  
HETATM   39  C   UNL     1      -7.362   4.966  71.972  1.00  0.00    -0.081 A  
HETATM   40  F   UNL     1      -9.018   8.205  74.298  1.00  0.00    -0.294 F  
HETATM   41  C   UNL     1      -7.220   5.353  70.627  1.00  0.00    -0.069 A  
ENDBRANCH  25  28
ENDBRANCH   4  25
TORSDOF 5
ENDMDL
MODEL      194
REMARK 921   NORMALIZED FREE ENERGY PREDICTED BY IDOCK:   -2.09 KCAL/MOL
REMARK 922        TOTAL FREE ENERGY PREDICTED BY IDOCK:   -4.34 KCAL/MOL
REMARK 923 INTER-LIGAND FREE ENERGY PREDICTED BY IDOCK:   -3.80 KCAL/MOL
REMARK 924 INTRA-LIGAND FREE ENERGY PREDICTED BY IDOCK:   -0.55 KCAL/MOL
REMARK 927      BINDING AFFINITY PREDICTED BY RF-SCORE:    0.00 PKD
ROOT
HETATM    1  C   UNL     1     -12.246  10.822  68.216  1.00  0.00     0.652 C  
HETATM    2  N   UNL     1     -10.911  10.899  68.830  1.00  0.00    -0.192 N  
HETATM    3  O   UNL     1     -11.023   8.671  69.202  1.00  0.00    -0.098 OA 
HETATM    4  C   UNL     1     -10.306   9.686  69.157  1.00  0.00    -0.207 C  
ENDROOT
BRANCH   2   5
HETATM    5  C   UNL     1     -10.240  12.116  68.596  1.00  0.00    -0.174 A  
HETATM    6  C   UNL     1      -8.863  13.703  67.492  1.00  0.00    -0.205 A  
HETATM    7  C   UNL     1     -10.422  13.117  69.564  1.00  0.00     0.508 A  
HETATM    8  C   UNL     1      -9.405  12.384  67.496  1.00  0.00    -0.181 A  
HETATM    9  C   UNL     1      -9.195  14.695  68.427  1.00  0.00    -0.197 A  
HETATM   10  N   UNL     1      -9.945  14.372  69.489  1.00  0.00     0.111 NA 
BRANCH   9  11
HETATM   11  N   UNL     1      -8.805  16.010  68.277  1.00  0.00    -0.178 NA 
HETATM   12  C   UNL     1      -9.374  17.053  69.149  1.00  0.00    -0.088 C  
HETATM   13  C   UNL     1      -8.700  17.654  66.404  1.00  0.00    -0.234 C  
HETATM   14  C   UNL     1      -9.967  18.241  68.349  1.00  0.00    -0.382 C  
HETATM   15  N   UNL     1      -9.119  18.780  67.262  1.00  0.00    -0.274 NA 
HETATM   16  C   UNL     1      -7.969  19.516  67.784  1.00  0.00    -0.294 C  
HETATM   17  C   UNL     1      -8.008  16.480  67.138  1.00  0.00    -0.180 C  
ENDBRANCH   9  11
BRANCH   8  18
HETATM   18  C   UNL     1      -9.130  11.503  66.283  1.00  0.00    -0.215 A  
HETATM   19  C   UNL     1     -10.186  10.198  64.434  1.00  0.00     0.083 A  
HETATM   20  C   UNL     1      -8.953   9.814  63.952  1.00  0.00    -0.277 A  
HETATM   21  C   UNL     1     -10.265  10.998  65.581  1.00  0.00    -0.318 A  
HETATM   22  C   UNL     1      -7.814  10.258  64.608  1.00  0.00    -0.123 A  
HETATM   23  C   UNL     1      -7.879  11.119  65.738  1.00  0.00     0.090 A  
HETATM   24  C   UNL     1      -6.534  11.533  66.257  1.00  0.00     0.112 C  
ENDBRANCH   8  18
ENDBRANCH   2   5
BRANCH   4  25
HETATM   25  C   UNL     1      -8.756   9.488  69.407  1.00  0.00    -0.166 C  
HETATM   26  C   UNL     1      -8.655   9.448  70.954  1.00  0.00    -0.135 C  
HETATM   27  C   UNL     1      -7.735  10.528  68.933  1.00  0.00    -0.117 C  
BRANCH  25  28
HETATM   28  C   UNL     1      -8.295   8.152  68.758  1.00  0.00    -0.126 A  
HETATM   29  C   UNL     1      -7.748   5.768  68.988  1.00  0.00    -0.090 A  
HETATM   30  C   UNL     1      -8.159   6.991  69.541  1.00  0.00    -0.130 A  
HETATM   31  F   UNL     1      -6.967   5.537  64.882  1.00  0.00    -0.048 F  
HETATM   32  C   UNL     1      -7.556   4.551  69.863  1.00  0.00    -0.054 C  
HETATM   33  F   UNL     1      -6.483   7.656  64.889  1.00  0.00    -0.040 F  
HETATM   34  C   UNL     1      -7.500   5.694  67.610  1.00  0.00    -0.077 A  
HETATM   35  F   UNL     1      -8.346   3.509  69.486  1.00  0.00    -0.061 F  
HETATM   36  F   UNL     1      -7.839   4.775  71.178  1.00  0.00    -0.074 F  
HETATM   37  F   UNL     1      -8.535   7.011  64.576  1.00  0.00    -0.084 F  
HETATM   38  C   UNL     1      -7.413   6.753  65.303  1.00  0.00    -0.086 C  
HETATM   39  C   UNL     1      -7.662   6.821  66.792  1.00  0.00    -0.106 A  
HETATM   40  F   UNL     1      -6.278   4.084  69.831  1.00  0.00    -0.023 F  
HETATM   41  C   UNL     1      -8.064   8.037  67.376  1.00  0.00    -0.122 A  
ENDBRANCH  25  28
ENDBRANCH   4  25
TORSDOF 5
ENDMDL
MODEL      195
REMARK 921   NORMALIZED FREE ENERGY PREDICTED BY IDOCK:   -2.04 KCAL/MOL
REMARK 922        TOTAL FREE ENERGY PREDICTED BY IDOCK:   -4.28 KCAL/MOL
REMARK 923 INTER-LIGAND FREE ENERGY PREDICTED BY IDOCK:   -5.14 KCAL/MOL
REMARK 924 INTRA-LIGAND FREE ENERGY PREDICTED BY IDOCK:    0.86 KCAL/MOL
REMARK 927      BINDING AFFINITY PREDICTED BY RF-SCORE:    0.00 PKD
ROOT
HETATM    1  C   UNL     1     -10.833   8.332  66.720  1.00  0.00     0.210 C  
HETATM    2  N   UNL     1      -9.712   8.317  67.674  1.00  0.00    -0.152 N  
HETATM    3  O   UNL     1      -9.896   6.065  67.758  1.00  0.00    -0.112 OA 
HETATM    4  C   UNL     1      -9.204   7.065  68.017  1.00  0.00    -0.129 C  
ENDROOT
BRANCH   2   5
HETATM    5  C   UNL     1      -9.016   9.539  67.762  1.00  0.00    -0.122 A  
HETATM    6  C   UNL     1      -7.764  11.424  67.048  1.00  0.00    -0.154 A  
HETATM    7  C   UNL     1      -8.949  10.121  69.038  1.00  0.00    -0.167 A  
HETATM    8  C   UNL     1      -8.382  10.192  66.688  1.00  0.00    -0.123 A  
HETATM    9  C   UNL     1      -7.850  12.009  68.320  1.00  0.00    -0.145 A  
HETATM   10  N   UNL     1      -8.410  11.320  69.323  1.00  0.00     0.082 NA 
BRANCH   9  11
HETATM   11  N   UNL     1      -7.407  13.291  68.575  1.00  0.00    -0.111 NA 
HETATM   12  C   UNL     1      -8.178  14.449  68.089  1.00  0.00    -0.149 C  
HETATM   13  C   UNL     1      -5.294  14.570  68.226  1.00  0.00    -0.114 C  
HETATM   14  C   UNL     1      -7.311  15.444  67.277  1.00  0.00    -0.204 C  
HETATM   15  N   UNL     1      -6.010  15.813  67.878  1.00  0.00    -0.129 NA 
HETATM   16  C   UNL     1      -6.176  16.682  69.041  1.00  0.00    -0.172 C  
HETATM   17  C   UNL     1      -6.078  13.581  69.123  1.00  0.00    -0.091 C  
ENDBRANCH   9  11
BRANCH   8  18
HETATM   18  C   UNL     1      -8.397   9.812  65.212  1.00  0.00    -0.146 A  
HETATM   19  C   UNL     1      -9.462  10.274  63.001  1.00  0.00    -0.331 A  
HETATM   20  C   UNL     1      -8.675   9.325  62.384  1.00  0.00    -0.241 A  
HETATM   21  C   UNL     1      -9.338  10.487  64.380  1.00  0.00    -0.307 A  
HETATM   22  C   UNL     1      -7.757   8.621  63.148  1.00  0.00    -0.127 A  
HETATM   23  C   UNL     1      -7.579   8.870  64.537  1.00  0.00    -0.109 A  
HETATM   24  C   UNL     1      -6.492   8.048  65.162  1.00  0.00    -0.051 C  
ENDBRANCH   8  18
ENDBRANCH   2   5
BRANCH   4  25
HETATM   25  C   UNL     1      -7.777   6.811  68.650  1.00  0.00    -0.113 C  
HETATM   26  C   UNL     1      -7.090   8.197  68.527  1.00  0.00    -0.076 C  
HETATM   27  C   UNL     1      -6.807   5.793  68.040  1.00  0.00    -0.064 C  
BRANCH  25  28
HETATM   28  C   UNL     1      -7.938   6.371  70.132  1.00  0.00    -0.112 A  
HETATM   29  C   UNL     1      -7.286   4.891  71.981  1.00  0.00    -0.076 A  
HETATM   30  C   UNL     1      -7.168   5.313  70.648  1.00  0.00    -0.068 A  
HETATM   31  F   UNL     1      -9.953   6.874  74.527  1.00  0.00    -0.322 F  
HETATM   32  C   UNL     1      -6.487   3.715  72.493  1.00  0.00    -0.017 C  
HETATM   33  F   UNL     1     -11.150   7.417  72.796  1.00  0.00    -0.275 F  
HETATM   34  C   UNL     1      -8.171   5.568  72.832  1.00  0.00    -0.109 A  
HETATM   35  F   UNL     1      -5.681   4.048  73.538  1.00  0.00    -0.003 F  
HETATM   36  F   UNL     1      -5.668   3.163  71.553  1.00  0.00    -0.010 F  
HETATM   37  F   UNL     1      -9.519   8.703  73.435  1.00  0.00    -0.215 F  
HETATM   38  C   UNL     1      -9.875   7.399  73.273  1.00  0.00    -0.272 C  
HETATM   39  C   UNL     1      -8.928   6.651  72.364  1.00  0.00    -0.138 A  
HETATM   40  F   UNL     1      -7.279   2.702  72.938  1.00  0.00    -0.034 F  
HETATM   41  C   UNL     1      -8.798   7.044  71.019  1.00  0.00    -0.146 A  
ENDBRANCH  25  28
ENDBRANCH   4  25
TORSDOF 5
ENDMDL
MODEL      196
REMARK 921   NORMALIZED FREE ENERGY PREDICTED BY IDOCK:   -2.04 KCAL/MOL
REMARK 922        TOTAL FREE ENERGY PREDICTED BY IDOCK:   -4.27 KCAL/MOL
REMARK 923 INTER-LIGAND FREE ENERGY PREDICTED BY IDOCK:   -3.47 KCAL/MOL
REMARK 924 INTRA-LIGAND FREE ENERGY PREDICTED BY IDOCK:   -0.80 KCAL/MOL
REMARK 927      BINDING AFFINITY PREDICTED BY RF-SCORE:    0.00 PKD
ROOT
HETATM    1  C   UNL     1     -12.204  10.846  68.197  1.00  0.00     0.638 C  
HETATM    2  N   UNL     1     -10.957  10.908  68.977  1.00  0.00    -0.217 N  
HETATM    3  O   UNL     1     -11.256   8.731  69.511  1.00  0.00    -0.057 OA 
HETATM    4  C   UNL     1     -10.477   9.700  69.480  1.00  0.00    -0.224 C  
ENDROOT
BRANCH   2   5
HETATM    5  C   UNL     1     -10.187  12.063  68.737  1.00  0.00    -0.129 A  
HETATM    6  C   UNL     1      -8.631  13.497  67.662  1.00  0.00    -0.185 A  
HETATM    7  C   UNL     1     -10.358  13.119  69.647  1.00  0.00     0.856 A  
HETATM    8  C   UNL     1      -9.265  12.221  67.685  1.00  0.00    -0.183 A  
HETATM    9  C   UNL     1      -8.949  14.553  68.530  1.00  0.00    -0.188 A  
HETATM   10  N   UNL     1      -9.787  14.333  69.551  1.00  0.00     0.236 NA 
BRANCH   9  11
HETATM   11  N   UNL     1      -8.457  15.830  68.350  1.00  0.00    -0.164 NA 
HETATM   12  C   UNL     1      -9.014  16.952  69.127  1.00  0.00    -0.080 C  
HETATM   13  C   UNL     1      -8.095  17.365  66.418  1.00  0.00    -0.280 C  
HETATM   14  C   UNL     1      -9.459  18.135  68.230  1.00  0.00    -0.307 C  
HETATM   15  N   UNL     1      -8.496  18.559  67.189  1.00  0.00    -0.260 NA 
HETATM   16  C   UNL     1      -7.339  19.241  67.765  1.00  0.00    -0.254 C  
HETATM   17  C   UNL     1      -7.546  16.186  67.257  1.00  0.00    -0.184 C  
ENDBRANCH   9  11
BRANCH   8  18
HETATM   18  C   UNL     1      -8.978  11.267  66.532  1.00  0.00    -0.189 A  
HETATM   19  C   UNL     1      -9.995  10.012  64.626  1.00  0.00    -0.206 A  
HETATM   20  C   UNL     1      -8.772   9.477  64.281  1.00  0.00    -0.232 A  
HETATM   21  C   UNL     1     -10.091  10.862  65.736  1.00  0.00    -0.308 A  
HETATM   22  C   UNL     1      -7.659   9.818  65.033  1.00  0.00    -0.127 A  
HETATM   23  C   UNL     1      -7.732  10.726  66.125  1.00  0.00    -0.149 A  
HETATM   24  C   UNL     1      -6.405  11.010  66.763  1.00  0.00    -0.114 C  
ENDBRANCH   8  18
ENDBRANCH   2   5
BRANCH   4  25
HETATM   25  C   UNL     1      -8.989   9.445  69.952  1.00  0.00    -0.215 C  
HETATM   26  C   UNL     1      -9.083   9.585  71.494  1.00  0.00     0.573 C  
HETATM   27  C   UNL     1      -7.845  10.362  69.503  1.00  0.00    -0.161 C  
BRANCH  25  28
HETATM   28  C   UNL     1      -8.547   8.017  69.523  1.00  0.00    -0.136 A  
HETATM   29  C   UNL     1      -7.257   6.565  68.019  1.00  0.00    -0.088 A  
HETATM   30  C   UNL     1      -7.678   7.839  68.431  1.00  0.00    -0.119 A  
HETATM   31  F   UNL     1      -8.562   3.194  70.131  1.00  0.00    -0.074 F  
HETATM   32  C   UNL     1      -6.368   6.401  66.808  1.00  0.00    -0.041 C  
HETATM   33  F   UNL     1     -10.339   4.296  70.725  1.00  0.00    -0.248 F  
HETATM   34  C   UNL     1      -7.687   5.441  68.738  1.00  0.00    -0.083 A  
HETATM   35  F   UNL     1      -5.191   5.784  67.106  1.00  0.00    -0.004 F  
HETATM   36  F   UNL     1      -6.029   7.581  66.216  1.00  0.00    -0.033 F  
HETATM   37  F   UNL     1      -8.538   4.407  71.935  1.00  0.00    -0.103 F  
HETATM   38  C   UNL     1      -8.983   4.382  70.648  1.00  0.00    -0.107 C  
HETATM   39  C   UNL     1      -8.523   5.583  69.855  1.00  0.00    -0.116 A  
HETATM   40  F   UNL     1      -6.949   5.649  65.834  1.00  0.00    -0.058 F  
HETATM   41  C   UNL     1      -8.939   6.871  70.238  1.00  0.00    -0.152 A  
ENDBRANCH  25  28
ENDBRANCH   4  25
TORSDOF 5
ENDMDL
MODEL      197
REMARK 921   NORMALIZED FREE ENERGY PREDICTED BY IDOCK:   -2.01 KCAL/MOL
REMARK 922        TOTAL FREE ENERGY PREDICTED BY IDOCK:   -4.23 KCAL/MOL
REMARK 923 INTER-LIGAND FREE ENERGY PREDICTED BY IDOCK:   -5.07 KCAL/MOL
REMARK 924 INTRA-LIGAND FREE ENERGY PREDICTED BY IDOCK:    0.83 KCAL/MOL
REMARK 927      BINDING AFFINITY PREDICTED BY RF-SCORE:    0.00 PKD
ROOT
HETATM    1  C   UNL     1     -10.625   8.336  66.721  1.00  0.00    -0.156 C  
HETATM    2  N   UNL     1      -9.514   8.734  67.600  1.00  0.00    -0.139 N  
HETATM    3  O   UNL     1      -8.955   6.550  67.776  1.00  0.00    -0.117 OA 
HETATM    4  C   UNL     1      -8.612   7.731  67.954  1.00  0.00    -0.122 C  
ENDROOT
BRANCH   2   5
HETATM    5  C   UNL     1      -9.247  10.117  67.599  1.00  0.00    -0.141 A  
HETATM    6  C   UNL     1      -8.326  12.189  66.899  1.00  0.00    -0.151 A  
HETATM    7  C   UNL     1      -9.867  10.866  68.613  1.00  0.00    -0.190 A  
HETATM    8  C   UNL     1      -8.409  10.783  66.686  1.00  0.00    -0.141 A  
HETATM    9  C   UNL     1      -9.078  12.888  67.855  1.00  0.00    -0.201 A  
HETATM   10  N   UNL     1      -9.814  12.204  68.740  1.00  0.00    -0.091 NA 
BRANCH   9  11
HETATM   11  N   UNL     1      -9.118  14.267  67.899  1.00  0.00    -0.183 NA 
HETATM   12  C   UNL     1      -9.241  14.962  69.193  1.00  0.00    -0.142 C  
HETATM   13  C   UNL     1     -10.472  16.064  66.821  1.00  0.00    -0.308 C  
HETATM   14  C   UNL     1     -10.409  15.980  69.214  1.00  0.00    -0.251 C  
HETATM   15  N   UNL     1     -10.502  16.886  68.047  1.00  0.00    -0.332 NA 
HETATM   16  C   UNL     1      -9.437  17.887  68.050  1.00  0.00    -0.279 C  
HETATM   17  C   UNL     1      -9.268  15.098  66.699  1.00  0.00    -0.270 C  
ENDBRANCH   9  11
BRANCH   8  18
HETATM   18  C   UNL     1      -7.710  10.211  65.458  1.00  0.00    -0.145 A  
HETATM   19  C   UNL     1      -8.045   8.951  63.328  1.00  0.00    -0.174 A  
HETATM   20  C   UNL     1      -6.698   9.015  63.037  1.00  0.00    -0.090 A  
HETATM   21  C   UNL     1      -8.525   9.512  64.517  1.00  0.00    -0.191 A  
HETATM   22  C   UNL     1      -5.855   9.663  63.926  1.00  0.00    -0.097 A  
HETATM   23  C   UNL     1      -6.338  10.289  65.108  1.00  0.00    -0.123 A  
HETATM   24  C   UNL     1      -5.273  10.989  65.898  1.00  0.00    -0.139 C  
ENDBRANCH   8  18
ENDBRANCH   2   5
BRANCH   4  25
HETATM   25  C   UNL     1      -7.149   7.985  68.502  1.00  0.00    -0.080 C  
HETATM   26  C   UNL     1      -7.169   9.493  68.864  1.00  0.00    -0.072 C  
HETATM   27  C   UNL     1      -5.919   7.770  67.613  1.00  0.00    -0.045 C  
BRANCH  25  28
HETATM   28  C   UNL     1      -6.901   7.089  69.748  1.00  0.00    -0.050 A  
HETATM   29  C   UNL     1      -6.693   6.870  72.187  1.00  0.00    -0.058 A  
HETATM   30  C   UNL     1      -6.909   7.649  71.039  1.00  0.00    -0.049 A  
HETATM   31  F   UNL     1      -6.072   2.750  71.777  1.00  0.00    -0.012 F  
HETATM   32  C   UNL     1      -6.651   7.507  73.556  1.00  0.00    -0.066 C  
HETATM   33  F   UNL     1      -5.292   3.101  69.778  1.00  0.00    -0.009 F  
HETATM   34  C   UNL     1      -6.498   5.489  72.043  1.00  0.00    -0.052 A  
HETATM   35  F   UNL     1      -7.592   6.997  74.397  1.00  0.00    -0.107 F  
HETATM   36  F   UNL     1      -6.861   8.854  73.536  1.00  0.00    -0.093 F  
HETATM   37  F   UNL     1      -7.422   2.792  70.074  1.00  0.00    -0.043 F  
HETATM   38  C   UNL     1      -6.328   3.401  70.608  1.00  0.00    -0.027 C  
HETATM   39  C   UNL     1      -6.522   4.890  70.776  1.00  0.00    -0.030 A  
HETATM   40  F   UNL     1      -5.454   7.326  74.178  1.00  0.00    -0.049 F  
HETATM   41  C   UNL     1      -6.729   5.697  69.642  1.00  0.00    -0.055 A  
ENDBRANCH  25  28
ENDBRANCH   4  25
TORSDOF 5
ENDMDL
MODEL      198
REMARK 921   NORMALIZED FREE ENERGY PREDICTED BY IDOCK:   -1.97 KCAL/MOL
REMARK 922        TOTAL FREE ENERGY PREDICTED BY IDOCK:   -4.19 KCAL/MOL
REMARK 923 INTER-LIGAND FREE ENERGY PREDICTED BY IDOCK:   -3.06 KCAL/MOL
REMARK 924 INTRA-LIGAND FREE ENERGY PREDICTED BY IDOCK:   -1.13 KCAL/MOL
REMARK 927      BINDING AFFINITY PREDICTED BY RF-SCORE:    0.00 PKD
ROOT
HETATM    1  C   UNL     1     -11.487  10.982  67.796  1.00  0.00    -0.261 C  
HETATM    2  N   UNL     1     -10.090  10.789  68.218  1.00  0.00    -0.165 N  
HETATM    3  O   UNL     1     -10.543   8.591  68.494  1.00  0.00    -0.193 OA 
HETATM    4  C   UNL     1      -9.670   9.471  68.397  1.00  0.00    -0.154 C  
ENDROOT
BRANCH   2   5
HETATM    5  C   UNL     1      -9.252  11.890  67.951  1.00  0.00    -0.187 A  
HETATM    6  C   UNL     1      -7.849  13.348  66.712  1.00  0.00     0.425 A  
HETATM    7  C   UNL     1      -9.019  12.763  69.025  1.00  0.00     0.523 A  
HETATM    8  C   UNL     1      -8.632  12.158  66.717  1.00  0.00    -0.163 A  
HETATM    9  C   UNL     1      -7.767  14.244  67.789  1.00  0.00    -0.163 A  
HETATM   10  N   UNL     1      -8.325  13.913  68.961  1.00  0.00     0.094 NA 
BRANCH   9  11
HETATM   11  N   UNL     1      -7.161  15.478  67.678  1.00  0.00    -0.157 NA 
HETATM   12  C   UNL     1      -6.035  15.831  68.562  1.00  0.00    -0.103 C  
HETATM   13  C   UNL     1      -7.906  17.859  67.702  1.00  0.00    -0.218 C  
HETATM   14  C   UNL     1      -6.252  17.179  69.295  1.00  0.00    -0.224 C  
HETATM   15  N   UNL     1      -6.719  18.306  68.457  1.00  0.00    -0.229 NA 
HETATM   16  C   UNL     1      -5.667  18.793  67.567  1.00  0.00    -0.157 C  
HETATM   17  C   UNL     1      -7.716  16.569  66.868  1.00  0.00    -0.231 C  
ENDBRANCH   9  11
BRANCH   8  18
HETATM   18  C   UNL     1      -8.805  11.419  65.394  1.00  0.00     0.018 A  
HETATM   19  C   UNL     1     -10.467  10.624  63.709  1.00  0.00    -0.065 A  
HETATM   20  C   UNL     1      -9.470  10.074  62.932  1.00  0.00    -0.223 A  
HETATM   21  C   UNL     1     -10.139  11.254  64.916  1.00  0.00    -0.333 A  
HETATM   22  C   UNL     1      -8.155  10.185  63.359  1.00  0.00    -0.161 A  
HETATM   23  C   UNL     1      -7.803  10.874  64.552  1.00  0.00     0.356 A  
HETATM   24  C   UNL     1      -6.325  10.935  64.799  1.00  0.00     0.341 C  
ENDBRANCH   8  18
ENDBRANCH   2   5
BRANCH   4  25
HETATM   25  C   UNL     1      -8.161   8.999  68.416  1.00  0.00    -0.108 C  
HETATM   26  C   UNL     1      -7.923   8.648  69.908  1.00  0.00    -0.105 C  
HETATM   27  C   UNL     1      -7.027   9.945  68.008  1.00  0.00    -0.077 C  
BRANCH  25  28
HETATM   28  C   UNL     1      -7.996   7.758  67.493  1.00  0.00    -0.123 A  
HETATM   29  C   UNL     1      -7.069   6.747  65.454  1.00  0.00    -0.064 A  
HETATM   30  C   UNL     1      -7.242   7.847  66.309  1.00  0.00    -0.074 A  
HETATM   31  F   UNL     1      -8.788   3.070  66.480  1.00  0.00    -0.115 F  
HETATM   32  C   UNL     1      -6.301   6.887  64.161  1.00  0.00    -0.036 C  
HETATM   33  F   UNL     1     -10.311   4.135  67.608  1.00  0.00    -0.086 F  
HETATM   34  C   UNL     1      -7.636   5.515  65.810  1.00  0.00    -0.083 A  
HETATM   35  F   UNL     1      -5.229   6.050  64.099  1.00  0.00    -0.015 F  
HETATM   36  F   UNL     1      -5.807   8.141  63.954  1.00  0.00    -0.060 F  
HETATM   37  F   UNL     1      -8.442   3.575  68.566  1.00  0.00    -0.083 F  
HETATM   38  C   UNL     1      -8.967   4.054  67.405  1.00  0.00    -0.129 C  
HETATM   39  C   UNL     1      -8.363   5.379  67.001  1.00  0.00    -0.107 A  
HETATM   40  F   UNL     1      -7.063   6.602  63.070  1.00  0.00    -0.045 F  
HETATM   41  C   UNL     1      -8.529   6.502  67.833  1.00  0.00    -0.118 A  
ENDBRANCH  25  28
ENDBRANCH   4  25
TORSDOF 5
ENDMDL
MODEL      199
REMARK 921   NORMALIZED FREE ENERGY PREDICTED BY IDOCK:   -1.68 KCAL/MOL
REMARK 922        TOTAL FREE ENERGY PREDICTED BY IDOCK:   -3.82 KCAL/MOL
REMARK 923 INTER-LIGAND FREE ENERGY PREDICTED BY IDOCK:   -1.89 KCAL/MOL
REMARK 924 INTRA-LIGAND FREE ENERGY PREDICTED BY IDOCK:   -1.92 KCAL/MOL
REMARK 927      BINDING AFFINITY PREDICTED BY RF-SCORE:    0.00 PKD
ROOT
HETATM    1  C   UNL     1     -12.020   8.245  71.576  1.00  0.00    -0.296 C  
HETATM    2  N   UNL     1     -11.076   7.939  70.490  1.00  0.00    -0.257 N  
HETATM    3  O   UNL     1     -12.360   6.154  69.962  1.00  0.00     0.507 OA 
HETATM    4  C   UNL     1     -11.447   6.921  69.612  1.00  0.00    -0.152 C  
ENDROOT
BRANCH   2   5
HETATM    5  C   UNL     1     -10.168   8.978  70.208  1.00  0.00    -0.201 A  
HETATM    6  C   UNL     1      -8.151  10.229  70.273  1.00  0.00     0.296 A  
HETATM    7  C   UNL     1     -10.630   9.985  69.344  1.00  0.00    -0.233 A  
HETATM    8  C   UNL     1      -8.867   9.086  70.734  1.00  0.00    -0.281 A  
HETATM    9  C   UNL     1      -8.633  11.124  69.306  1.00  0.00     0.158 A  
HETATM   10  N   UNL     1      -9.899  11.014  68.881  1.00  0.00    -0.194 NA 
BRANCH   9  11
HETATM   11  N   UNL     1      -7.837  12.100  68.742  1.00  0.00    -0.070 NA 
HETATM   12  C   UNL     1      -6.369  11.993  68.819  1.00  0.00    -0.071 C  
HETATM   13  C   UNL     1      -7.649  14.583  68.900  1.00  0.00    -0.138 C  
HETATM   14  C   UNL     1      -5.707  13.271  69.393  1.00  0.00    -0.088 C  
HETATM   15  N   UNL     1      -6.175  14.556  68.825  1.00  0.00    -0.085 NA 
HETATM   16  C   UNL     1      -5.701  14.749  67.456  1.00  0.00     0.144 C  
HETATM   17  C   UNL     1      -8.369  13.376  68.251  1.00  0.00    -0.160 C  
ENDBRANCH   9  11
BRANCH   8  18
HETATM   18  C   UNL     1      -8.117   8.085  71.605  1.00  0.00    -0.134 A  
HETATM   19  C   UNL     1      -8.369   6.141  73.152  1.00  0.00    -0.118 A  
HETATM   20  C   UNL     1      -7.005   6.063  73.334  1.00  0.00    -0.080 A  
HETATM   21  C   UNL     1      -8.903   7.141  72.330  1.00  0.00    -0.144 A  
HETATM   22  C   UNL     1      -6.191   6.969  72.671  1.00  0.00    -0.052 A  
HETATM   23  C   UNL     1      -6.716   7.951  71.787  1.00  0.00    -0.053 A  
HETATM   24  C   UNL     1      -5.664   8.788  71.122  1.00  0.00    -0.039 C  
ENDBRANCH   8  18
ENDBRANCH   2   5
BRANCH   4  25
HETATM   25  C   UNL     1     -10.842   6.711  68.165  1.00  0.00    -0.334 C  
HETATM   26  C   UNL     1     -11.122   8.070  67.470  1.00  0.00     0.265 C  
HETATM   27  C   UNL     1     -11.382   5.626  67.227  1.00  0.00     0.756 C  
BRANCH  25  28
HETATM   28  C   UNL     1      -9.319   6.418  68.279  1.00  0.00    -0.109 A  
HETATM   29  C   UNL     1      -7.002   7.029  67.737  1.00  0.00    -0.083 A  
HETATM   30  C   UNL     1      -8.384   7.262  67.652  1.00  0.00    -0.117 A  
HETATM   31  F   UNL     1      -5.608   3.775  69.972  1.00  0.00    -0.013 F  
HETATM   32  C   UNL     1      -6.023   7.919  67.007  1.00  0.00    -0.052 C  
HETATM   33  F   UNL     1      -7.491   2.756  69.601  1.00  0.00    -0.043 F  
HETATM   34  C   UNL     1      -6.541   5.945  68.498  1.00  0.00    -0.055 A  
HETATM   35  F   UNL     1      -5.135   8.517  67.848  1.00  0.00    -0.031 F  
HETATM   36  F   UNL     1      -6.618   8.931  66.314  1.00  0.00    -0.062 F  
HETATM   37  F   UNL     1      -7.289   4.074  71.317  1.00  0.00    -0.037 F  
HETATM   38  C   UNL     1      -6.959   3.943  70.002  1.00  0.00    -0.041 C  
HETATM   39  C   UNL     1      -7.442   5.105  69.167  1.00  0.00    -0.065 A  
HETATM   40  F   UNL     1      -5.276   7.235  66.098  1.00  0.00    -0.021 F  
HETATM   41  C   UNL     1      -8.822   5.356  69.055  1.00  0.00    -0.108 A  
ENDBRANCH  25  28
ENDBRANCH   4  25
TORSDOF 5
ENDMDL
MODEL      200
REMARK 921   NORMALIZED FREE ENERGY PREDICTED BY IDOCK:   -1.56 KCAL/MOL
REMARK 922        TOTAL FREE ENERGY PREDICTED BY IDOCK:   -3.65 KCAL/MOL
REMARK 923 INTER-LIGAND FREE ENERGY PREDICTED BY IDOCK:   -7.14 KCAL/MOL
REMARK 924 INTRA-LIGAND FREE ENERGY PREDICTED BY IDOCK:    3.49 KCAL/MOL
REMARK 927      BINDING AFFINITY PREDICTED BY RF-SCORE:    0.00 PKD
ROOT
HETATM    1  C   UNL     1     -12.233  11.268  69.300  1.00  0.00    -0.222 C  
HETATM    2  N   UNL     1     -11.333  10.174  69.699  1.00  0.00    -0.248 N  
HETATM    3  O   UNL     1     -12.185  10.321  71.789  1.00  0.00    -0.351 OA 
HETATM    4  C   UNL     1     -11.516   9.654  70.980  1.00  0.00    -0.371 C  
ENDROOT
BRANCH   2   5
HETATM    5  C   UNL     1     -10.729   9.504  68.618  1.00  0.00    -0.184 A  
HETATM    6  C   UNL     1      -9.562   9.214  66.571  1.00  0.00    -0.289 A  
HETATM    7  C   UNL     1     -10.779   8.101  68.655  1.00  0.00    -0.025 A  
HETATM    8  C   UNL     1     -10.110  10.127  67.519  1.00  0.00    -0.244 A  
HETATM    9  C   UNL     1      -9.537   7.822  66.741  1.00  0.00    -0.212 A  
HETATM   10  N   UNL     1     -10.192   7.274  67.772  1.00  0.00    -0.182 NA 
BRANCH   9  11
HETATM   11  N   UNL     1      -8.826   6.989  65.900  1.00  0.00    -0.138 NA 
HETATM   12  C   UNL     1      -8.891   5.527  66.081  1.00  0.00    -0.139 C  
HETATM   13  C   UNL     1      -6.454   6.778  65.157  1.00  0.00    -0.043 C  
HETATM   14  C   UNL     1      -7.488   4.877  66.184  1.00  0.00    -0.086 C  
HETATM   15  N   UNL     1      -6.499   5.302  65.168  1.00  0.00    -0.038 NA 
HETATM   16  C   UNL     1      -6.812   4.764  63.846  1.00  0.00    -0.044 C  
HETATM   17  C   UNL     1      -7.818   7.482  64.956  1.00  0.00    -0.127 C  
ENDBRANCH   9  11
BRANCH   8  18
HETATM   18  C   UNL     1      -9.849  11.613  67.301  1.00  0.00    -0.203 A  
HETATM   19  C   UNL     1      -8.396  13.541  67.943  1.00  0.00    -0.175 A  
HETATM   20  C   UNL     1      -9.100  14.392  67.117  1.00  0.00    -0.238 A  
HETATM   21  C   UNL     1      -8.781  12.198  68.045  1.00  0.00    -0.180 A  
HETATM   22  C   UNL     1     -10.163  13.883  66.386  1.00  0.00    -0.292 A  
HETATM   23  C   UNL     1     -10.527  12.509  66.436  1.00  0.00    -0.269 A  
HETATM   24  C   UNL     1     -11.661  12.153  65.521  1.00  0.00    -0.398 C  
ENDBRANCH   8  18
ENDBRANCH   2   5
BRANCH   4  25
HETATM   25  C   UNL     1     -10.996   8.241  71.464  1.00  0.00    -0.312 C  
HETATM   26  C   UNL     1     -11.533   7.279  70.371  1.00  0.00    -0.279 C  
HETATM   27  C   UNL     1     -11.432   7.652  72.810  1.00  0.00    -0.384 C  
BRANCH  25  28
HETATM   28  C   UNL     1      -9.443   8.252  71.517  1.00  0.00    -0.244 A  
HETATM   29  C   UNL     1      -7.351   7.323  72.411  1.00  0.00    -0.075 A  
HETATM   30  C   UNL     1      -8.753   7.344  72.341  1.00  0.00    -0.145 A  
HETATM   31  F   UNL     1      -5.145   9.991  70.057  1.00  0.00    -0.035 F  
HETATM   32  C   UNL     1      -6.638   6.375  73.347  1.00  0.00    -0.073 C  
HETATM   33  F   UNL     1      -6.836  11.356  70.079  1.00  0.00    -0.137 F  
HETATM   34  C   UNL     1      -6.617   8.211  71.611  1.00  0.00    -0.058 A  
HETATM   35  F   UNL     1      -5.791   5.535  72.691  1.00  0.00    -0.023 F  
HETATM   36  F   UNL     1      -7.482   5.573  74.056  1.00  0.00    -0.087 F  
HETATM   37  F   UNL     1      -6.697   9.824  68.544  1.00  0.00    -0.051 F  
HETATM   38  C   UNL     1      -6.492  10.056  69.870  1.00  0.00    -0.077 C  
HETATM   39  C   UNL     1      -7.270   9.104  70.749  1.00  0.00    -0.112 A  
HETATM   40  F   UNL     1      -5.880   7.027  74.271  1.00  0.00    -0.065 F  
HETATM   41  C   UNL     1      -8.676   9.110  70.708  1.00  0.00    -0.285 A  
ENDBRANCH  25  28
ENDBRANCH   4  25
TORSDOF 5
ENDMDL
MODEL      201
REMARK 921   NORMALIZED FREE ENERGY PREDICTED BY IDOCK:   -1.46 KCAL/MOL
REMARK 922        TOTAL FREE ENERGY PREDICTED BY IDOCK:   -3.53 KCAL/MOL
REMARK 923 INTER-LIGAND FREE ENERGY PREDICTED BY IDOCK:   -4.67 KCAL/MOL
REMARK 924 INTRA-LIGAND FREE ENERGY PREDICTED BY IDOCK:    1.14 KCAL/MOL
REMARK 927      BINDING AFFINITY PREDICTED BY RF-SCORE:    0.00 PKD
ROOT
HETATM    1  C   UNL     1      -8.396   9.430  71.097  1.00  0.00     0.143 C  
HETATM    2  N   UNL     1      -8.764   8.697  69.875  1.00  0.00    -0.130 N  
HETATM    3  O   UNL     1      -8.139   6.786  70.909  1.00  0.00    -0.114 OA 
HETATM    4  C   UNL     1      -8.743   7.305  69.954  1.00  0.00    -0.141 C  
ENDROOT
BRANCH   2   5
HETATM    5  C   UNL     1      -9.510   9.457  68.952  1.00  0.00    -0.154 A  
HETATM    6  C   UNL     1     -11.364  10.620  68.035  1.00  0.00    -0.350 A  
HETATM    7  C   UNL     1      -8.838   9.834  67.777  1.00  0.00    -0.129 A  
HETATM    8  C   UNL     1     -10.854   9.839  69.112  1.00  0.00    -0.231 A  
HETATM    9  C   UNL     1     -10.593  11.069  66.952  1.00  0.00    -0.258 A  
HETATM   10  N   UNL     1      -9.336  10.628  66.813  1.00  0.00    -0.156 NA 
BRANCH   9  11
HETATM   11  N   UNL     1     -11.070  11.983  66.035  1.00  0.00    -0.308 NA 
HETATM   12  C   UNL     1     -12.478  11.930  65.602  1.00  0.00     1.043 C  
HETATM   13  C   UNL     1     -10.414  12.758  63.756  1.00  0.00    -0.303 C  
HETATM   14  C   UNL     1     -12.627  11.894  64.060  1.00  0.00    -0.282 C  
HETATM   15  N   UNL     1     -11.815  12.875  63.305  1.00  0.00    -0.506 NA 
HETATM   16  C   UNL     1     -12.320  14.237  63.468  1.00  0.00     0.323 C  
HETATM   17  C   UNL     1     -10.194  12.888  65.283  1.00  0.00    -0.278 C  
ENDBRANCH   9  11
BRANCH   8  18
HETATM   18  C   UNL     1     -11.754   9.634  70.325  1.00  0.00    -0.213 A  
HETATM   19  C   UNL     1     -12.969   7.935  71.695  1.00  0.00    -0.359 A  
HETATM   20  C   UNL     1     -13.451   8.911  72.542  1.00  0.00    -0.462 A  
HETATM   21  C   UNL     1     -12.165   8.297  70.607  1.00  0.00     0.109 A  
HETATM   22  C   UNL     1     -13.102  10.231  72.304  1.00  0.00    -0.315 A  
HETATM   23  C   UNL     1     -12.239  10.605  71.238  1.00  0.00    -0.447 A  
HETATM   24  C   UNL     1     -11.936  12.074  71.195  1.00  0.00     0.304 C  
ENDBRANCH   8  18
ENDBRANCH   2   5
BRANCH   4  25
HETATM   25  C   UNL     1      -9.492   6.332  68.958  1.00  0.00    -0.133 C  
HETATM   26  C   UNL     1     -10.663   7.205  68.432  1.00  0.00    -0.192 C  
HETATM   27  C   UNL     1     -10.117   5.021  69.447  1.00  0.00    -0.288 C  
BRANCH  25  28
HETATM   28  C   UNL     1      -8.523   5.911  67.818  1.00  0.00    -0.107 A  
HETATM   29  C   UNL     1      -7.097   6.535  65.916  1.00  0.00    -0.062 A  
HETATM   30  C   UNL     1      -7.978   6.878  66.953  1.00  0.00    -0.109 A  
HETATM   31  F   UNL     1      -5.994   2.528  65.412  1.00  0.00    -0.016 F  
HETATM   32  C   UNL     1      -6.573   7.588  64.968  1.00  0.00    -0.044 C  
HETATM   33  F   UNL     1      -7.875   1.930  66.323  1.00  0.00    -0.069 F  
HETATM   34  C   UNL     1      -6.722   5.193  65.761  1.00  0.00    -0.053 A  
HETATM   35  F   UNL     1      -5.214   7.668  64.979  1.00  0.00    -0.027 F  
HETATM   36  F   UNL     1      -7.022   8.844  65.247  1.00  0.00    -0.073 F  
HETATM   37  F   UNL     1      -6.132   2.296  67.569  1.00  0.00    -0.022 F  
HETATM   38  C   UNL     1      -6.806   2.759  66.480  1.00  0.00    -0.044 C  
HETATM   39  C   UNL     1      -7.214   4.207  66.627  1.00  0.00    -0.072 A  
HETATM   40  F   UNL     1      -6.924   7.345  63.676  1.00  0.00    -0.052 F  
HETATM   41  C   UNL     1      -8.105   4.579  67.650  1.00  0.00    -0.099 A  
ENDBRANCH  25  28
ENDBRANCH   4  25
TORSDOF 5
ENDMDL
MODEL      202
REMARK 921   NORMALIZED FREE ENERGY PREDICTED BY IDOCK:   -1.46 KCAL/MOL
REMARK 922        TOTAL FREE ENERGY PREDICTED BY IDOCK:   -3.53 KCAL/MOL
REMARK 923 INTER-LIGAND FREE ENERGY PREDICTED BY IDOCK:   -7.71 KCAL/MOL
REMARK 924 INTRA-LIGAND FREE ENERGY PREDICTED BY IDOCK:    4.18 KCAL/MOL
REMARK 927      BINDING AFFINITY PREDICTED BY RF-SCORE:    0.00 PKD
ROOT
HETATM    1  C   UNL     1     -10.029  15.242  69.383  1.00  0.00    -0.255 C  
HETATM    2  N   UNL     1     -10.677  14.251  68.509  1.00  0.00    -0.248 N  
HETATM    3  O   UNL     1     -10.529  15.742  66.815  1.00  0.00    -0.295 OA 
HETATM    4  C   UNL     1     -10.734  14.562  67.151  1.00  0.00    -0.286 C  
ENDROOT
BRANCH   2   5
HETATM    5  C   UNL     1     -10.743  12.955  69.059  1.00  0.00    -0.092 A  
HETATM    6  C   UNL     1     -11.426  11.202  70.504  1.00  0.00    -0.162 A  
HETATM    7  C   UNL     1      -9.931  11.984  68.451  1.00  0.00    -0.208 A  
HETATM    8  C   UNL     1     -11.532  12.581  70.162  1.00  0.00    -0.007 A  
HETATM    9  C   UNL     1     -10.692  10.259  69.768  1.00  0.00    -0.285 A  
HETATM   10  N   UNL     1      -9.910  10.676  68.764  1.00  0.00    -0.183 NA 
BRANCH   9  11
HETATM   11  N   UNL     1     -10.773   8.904  70.014  1.00  0.00    -0.226 NA 
HETATM   12  C   UNL     1     -11.703   8.393  71.037  1.00  0.00    -0.267 C  
HETATM   13  C   UNL     1      -9.170   7.079  70.581  1.00  0.00    -0.158 C  
HETATM   14  C   UNL     1     -11.007   7.468  72.067  1.00  0.00    -0.242 C  
HETATM   15  N   UNL     1     -10.116   6.427  71.508  1.00  0.00    -0.191 NA 
HETATM   16  C   UNL     1     -10.871   5.365  70.847  1.00  0.00    -0.120 C  
HETATM   17  C   UNL     1      -9.816   7.936  69.466  1.00  0.00    -0.176 C  
ENDBRANCH   9  11
BRANCH   8  18
HETATM   18  C   UNL     1     -12.553  13.422  70.920  1.00  0.00    -0.406 A  
HETATM   19  C   UNL     1     -13.524  15.709  71.168  1.00  0.00    -0.373 A  
HETATM   20  C   UNL     1     -14.374  15.278  72.165  1.00  0.00    -0.651 A  
HETATM   21  C   UNL     1     -12.625  14.807  70.585  1.00  0.00    -0.414 A  
HETATM   22  C   UNL     1     -14.332  13.946  72.546  1.00  0.00    -0.226 A  
HETATM   23  C   UNL     1     -13.467  13.007  71.922  1.00  0.00    -0.498 A  
HETATM   24  C   UNL     1     -13.623  11.607  72.437  1.00  0.00     0.190 C  
ENDBRANCH   8  18
ENDBRANCH   2   5
BRANCH   4  25
HETATM   25  C   UNL     1     -10.970  13.512  65.992  1.00  0.00    -0.281 C  
HETATM   26  C   UNL     1     -11.178  14.410  64.744  1.00  0.00    -0.391 C  
HETATM   27  C   UNL     1     -12.155  12.541  66.029  1.00  0.00    -0.390 C  
BRANCH  25  28
HETATM   28  C   UNL     1      -9.715  12.604  65.853  1.00  0.00    -0.212 A  
HETATM   29  C   UNL     1      -7.452  11.997  66.594  1.00  0.00     0.115 A  
HETATM   30  C   UNL     1      -8.600  12.799  66.689  1.00  0.00    -0.015 A  
HETATM   31  F   UNL     1      -7.357   8.885  63.793  1.00  0.00    -0.096 F  
HETATM   32  C   UNL     1      -6.248  12.265  67.465  1.00  0.00    -0.140 C  
HETATM   33  F   UNL     1      -8.777   9.988  62.571  1.00  0.00    -0.145 F  
HETATM   34  C   UNL     1      -7.432  10.948  65.663  1.00  0.00     0.042 A  
HETATM   35  F   UNL     1      -5.920  11.197  68.244  1.00  0.00    -0.046 F  
HETATM   36  F   UNL     1      -6.418  13.312  68.322  1.00  0.00    -0.071 F  
HETATM   37  F   UNL     1      -9.493   8.633  64.112  1.00  0.00     0.338 F  
HETATM   38  C   UNL     1      -8.537   9.565  63.842  1.00  0.00    -0.212 C  
HETATM   39  C   UNL     1      -8.539  10.699  64.840  1.00  0.00    -0.147 A  
HETATM   40  F   UNL     1      -5.134  12.555  66.739  1.00  0.00    -0.011 F  
HETATM   41  C   UNL     1      -9.672  11.528  64.949  1.00  0.00    -0.264 A  
ENDBRANCH  25  28
ENDBRANCH   4  25
TORSDOF 5
ENDMDL
MODEL      203
REMARK 921   NORMALIZED FREE ENERGY PREDICTED BY IDOCK:   -1.44 KCAL/MOL
REMARK 922        TOTAL FREE ENERGY PREDICTED BY IDOCK:   -3.51 KCAL/MOL
REMARK 923 INTER-LIGAND FREE ENERGY PREDICTED BY IDOCK:   -2.65 KCAL/MOL
REMARK 924 INTRA-LIGAND FREE ENERGY PREDICTED BY IDOCK:   -0.85 KCAL/MOL
REMARK 927      BINDING AFFINITY PREDICTED BY RF-SCORE:    0.00 PKD
ROOT
HETATM    1  C   UNL     1      -5.998   7.267  68.863  1.00  0.00    -0.026 C  
HETATM    2  N   UNL     1      -6.690   8.565  68.891  1.00  0.00    -0.053 N  
HETATM    3  O   UNL     1      -5.141   9.352  67.444  1.00  0.00    -0.036 OA 
HETATM    4  C   UNL     1      -6.247   9.526  67.983  1.00  0.00    -0.056 C  
ENDROOT
BRANCH   2   5
HETATM    5  C   UNL     1      -7.965   8.523  69.488  1.00  0.00    -0.106 A  
HETATM    6  C   UNL     1     -10.184   7.792  69.910  1.00  0.00    -0.213 A  
HETATM    7  C   UNL     1      -8.206   9.467  70.500  1.00  0.00    -0.167 A  
HETATM    8  C   UNL     1      -8.998   7.634  69.136  1.00  0.00    -0.135 A  
HETATM    9  C   UNL     1     -10.306   8.673  70.995  1.00  0.00    -0.217 A  
HETATM   10  N   UNL     1      -9.319   9.541  71.251  1.00  0.00    -0.178 NA 
BRANCH   9  11
HETATM   11  N   UNL     1     -11.398   8.658  71.839  1.00  0.00    -0.323 NA 
HETATM   12  C   UNL     1     -12.085   7.388  72.135  1.00  0.00    -0.252 C  
HETATM   13  C   UNL     1     -13.581   9.856  71.982  1.00  0.00    -0.306 C  
HETATM   14  C   UNL     1     -13.612   7.464  71.881  1.00  0.00    -0.227 C  
HETATM   15  N   UNL     1     -14.304   8.651  72.433  1.00  0.00    -0.535 NA 
HETATM   16  C   UNL     1     -14.401   8.595  73.890  1.00  0.00     3.203 C  
HETATM   17  C   UNL     1     -12.066   9.880  72.300  1.00  0.00     0.380 C  
ENDBRANCH   9  11
BRANCH   8  18
HETATM   18  C   UNL     1      -8.947   6.473  68.149  1.00  0.00    -0.116 A  
HETATM   19  C   UNL     1      -8.015   4.194  67.733  1.00  0.00    -0.090 A  
HETATM   20  C   UNL     1      -8.643   4.122  66.508  1.00  0.00    -0.113 A  
HETATM   21  C   UNL     1      -8.147   5.349  68.514  1.00  0.00    -0.095 A  
HETATM   22  C   UNL     1      -9.417   5.195  66.092  1.00  0.00    -0.168 A  
HETATM   23  C   UNL     1      -9.608   6.349  66.901  1.00  0.00    -0.179 A  
HETATM   24  C   UNL     1     -10.531   7.364  66.295  1.00  0.00     0.465 C  
ENDBRANCH   8  18
ENDBRANCH   2   5
BRANCH   4  25
HETATM   25  C   UNL     1      -7.081  10.792  67.529  1.00  0.00    -0.089 C  
HETATM   26  C   UNL     1      -5.982  11.848  67.239  1.00  0.00    -0.134 C  
HETATM   27  C   UNL     1      -8.086  11.462  68.473  1.00  0.00    -0.149 C  
BRANCH  25  28
HETATM   28  C   UNL     1      -7.902  10.441  66.257  1.00  0.00    -0.132 A  
HETATM   29  C   UNL     1      -9.730  10.977  64.705  1.00  0.00    -0.315 A  
HETATM   30  C   UNL     1      -8.970  11.262  65.850  1.00  0.00    -0.206 A  
HETATM   31  F   UNL     1      -8.759   7.630  62.385  1.00  0.00    -0.095 F  
HETATM   32  C   UNL     1     -10.906  11.845  64.323  1.00  0.00    -0.344 C  
HETATM   33  F   UNL     1      -7.920   6.688  64.155  1.00  0.00    -0.108 F  
HETATM   34  C   UNL     1      -9.391   9.862  63.925  1.00  0.00    -0.262 A  
HETATM   35  F   UNL     1     -10.769  12.393  63.085  1.00  0.00    -0.460 F  
HETATM   36  F   UNL     1     -11.109  12.892  65.173  1.00  0.00    -0.298 F  
HETATM   37  F   UNL     1      -6.676   7.963  62.909  1.00  0.00    -0.078 F  
HETATM   38  C   UNL     1      -7.925   7.846  63.439  1.00  0.00    -0.125 C  
HETATM   39  C   UNL     1      -8.310   9.042  64.278  1.00  0.00    -0.179 A  
HETATM   40  F   UNL     1     -12.077  11.152  64.300  1.00  0.00    -0.038 F  
HETATM   41  C   UNL     1      -7.573   9.345  65.438  1.00  0.00    -0.100 A  
ENDBRANCH  25  28
ENDBRANCH   4  25
TORSDOF 5
ENDMDL
MODEL      204
REMARK 921   NORMALIZED FREE ENERGY PREDICTED BY IDOCK:   -1.42 KCAL/MOL
REMARK 922        TOTAL FREE ENERGY PREDICTED BY IDOCK:   -3.48 KCAL/MOL
REMARK 923 INTER-LIGAND FREE ENERGY PREDICTED BY IDOCK:   -4.73 KCAL/MOL
REMARK 924 INTRA-LIGAND FREE ENERGY PREDICTED BY IDOCK:    1.25 KCAL/MOL
REMARK 927      BINDING AFFINITY PREDICTED BY RF-SCORE:    0.00 PKD
ROOT
HETATM    1  C   UNL     1      -8.044   9.456  70.504  1.00  0.00    -0.184 C  
HETATM    2  N   UNL     1      -8.969  10.159  69.600  1.00  0.00    -0.196 N  
HETATM    3  O   UNL     1     -10.660   8.956  70.498  1.00  0.00    -0.201 OA 
HETATM    4  C   UNL     1     -10.330   9.934  69.804  1.00  0.00    -0.246 C  
ENDROOT
BRANCH   2   5
HETATM    5  C   UNL     1      -8.407  11.285  68.966  1.00  0.00    -0.008 A  
HETATM    6  C   UNL     1      -7.008  12.530  67.508  1.00  0.00    -0.149 A  
HETATM    7  C   UNL     1      -8.917  12.533  69.358  1.00  0.00     1.290 A  
HETATM    8  C   UNL     1      -7.382  11.247  68.003  1.00  0.00    -0.092 A  
HETATM    9  C   UNL     1      -7.655  13.727  67.852  1.00  0.00    -0.156 A  
HETATM   10  N   UNL     1      -8.583  13.718  68.818  1.00  0.00    -0.043 NA 
BRANCH   9  11
HETATM   11  N   UNL     1      -7.395  14.919  67.205  1.00  0.00    -0.188 NA 
HETATM   12  C   UNL     1      -6.119  15.620  67.432  1.00  0.00    -0.045 C  
HETATM   13  C   UNL     1      -8.544  17.119  66.956  1.00  0.00    -0.218 C  
HETATM   14  C   UNL     1      -6.318  17.102  67.838  1.00  0.00    -0.144 C  
HETATM   15  N   UNL     1      -7.279  17.877  67.021  1.00  0.00    -0.183 NA 
HETATM   16  C   UNL     1      -6.752  18.161  65.687  1.00  0.00    -0.230 C  
HETATM   17  C   UNL     1      -8.419  15.658  66.458  1.00  0.00    -0.276 C  
ENDBRANCH   9  11
BRANCH   8  18
HETATM   18  C   UNL     1      -6.741  10.025  67.355  1.00  0.00    -0.073 A  
HETATM   19  C   UNL     1      -6.677   7.528  67.338  1.00  0.00    -0.067 A  
HETATM   20  C   UNL     1      -5.723   7.525  66.342  1.00  0.00    -0.036 A  
HETATM   21  C   UNL     1      -7.149   8.747  67.841  1.00  0.00    -0.079 A  
HETATM   22  C   UNL     1      -5.273   8.738  65.846  1.00  0.00    -0.033 A  
HETATM   23  C   UNL     1      -5.787   9.982  66.307  1.00  0.00    -0.061 A  
HETATM   24  C   UNL     1      -5.215  11.172  65.595  1.00  0.00    -0.038 C  
ENDBRANCH   8  18
ENDBRANCH   2   5
BRANCH   4  25
HETATM   25  C   UNL     1     -11.489  10.872  69.278  1.00  0.00    -0.372 C  
HETATM   26  C   UNL     1     -11.429  12.079  70.251  1.00  0.00     0.023 C  
HETATM   27  C   UNL     1     -12.948  10.401  69.263  1.00  0.00     1.404 C  
BRANCH  25  28
HETATM   28  C   UNL     1     -11.190  11.292  67.811  1.00  0.00    -0.354 A  
HETATM   29  C   UNL     1     -10.184  10.780  65.629  1.00  0.00    -0.320 A  
HETATM   30  C   UNL     1     -10.469  10.435  66.959  1.00  0.00    -0.309 A  
HETATM   31  F   UNL     1     -11.573  14.429  64.118  1.00  0.00    -0.365 F  
HETATM   32  C   UNL     1      -9.358   9.866  64.754  1.00  0.00    -0.278 C  
HETATM   33  F   UNL     1     -11.543  15.237  66.136  1.00  0.00    -0.293 F  
HETATM   34  C   UNL     1     -10.663  11.998  65.125  1.00  0.00    -0.332 A  
HETATM   35  F   UNL     1     -10.028   9.469  63.637  1.00  0.00     0.175 F  
HETATM   36  F   UNL     1      -8.968   8.719  65.380  1.00  0.00    -0.201 F  
HETATM   37  F   UNL     1     -13.313  14.213  65.402  1.00  0.00    -0.494 F  
HETATM   38  C   UNL     1     -11.953  14.168  65.400  1.00  0.00    -0.381 C  
HETATM   39  C   UNL     1     -11.418  12.860  65.933  1.00  0.00    -0.387 A  
HETATM   40  F   UNL     1      -8.215  10.458  64.315  1.00  0.00    -0.159 F  
HETATM   41  C   UNL     1     -11.678  12.493  67.267  1.00  0.00    -0.431 A  
ENDBRANCH  25  28
ENDBRANCH   4  25
TORSDOF 5
ENDMDL
MODEL      205
REMARK 921   NORMALIZED FREE ENERGY PREDICTED BY IDOCK:   -1.41 KCAL/MOL
REMARK 922        TOTAL FREE ENERGY PREDICTED BY IDOCK:   -3.46 KCAL/MOL
REMARK 923 INTER-LIGAND FREE ENERGY PREDICTED BY IDOCK:   -4.90 KCAL/MOL
REMARK 924 INTRA-LIGAND FREE ENERGY PREDICTED BY IDOCK:    1.44 KCAL/MOL
REMARK 927      BINDING AFFINITY PREDICTED BY RF-SCORE:    0.00 PKD
ROOT
HETATM    1  C   UNL     1      -8.316   9.314  70.686  1.00  0.00    -0.207 C  
HETATM    2  N   UNL     1      -8.855   8.436  69.635  1.00  0.00    -0.140 N  
HETATM    3  O   UNL     1      -8.321   6.662  70.931  1.00  0.00    -0.123 OA 
HETATM    4  C   UNL     1      -8.955   7.081  69.947  1.00  0.00    -0.142 C  
ENDROOT
BRANCH   2   5
HETATM    5  C   UNL     1      -9.604   9.111  68.651  1.00  0.00    -0.152 A  
HETATM    6  C   UNL     1     -11.427  10.275  67.675  1.00  0.00     0.122 A  
HETATM    7  C   UNL     1      -8.988   9.255  67.397  1.00  0.00    -0.124 A  
HETATM    8  C   UNL     1     -10.904   9.621  68.827  1.00  0.00    -0.199 A  
HETATM    9  C   UNL     1     -10.701  10.496  66.494  1.00  0.00    -0.121 A  
HETATM   10  N   UNL     1      -9.492   9.938  66.353  1.00  0.00    -0.173 NA 
BRANCH   9  11
HETATM   11  N   UNL     1     -11.172  11.302  65.478  1.00  0.00    -0.081 NA 
HETATM   12  C   UNL     1     -10.332  11.568  64.296  1.00  0.00    -0.323 C  
HETATM   13  C   UNL     1     -12.128  13.599  65.298  1.00  0.00    -0.406 C  
HETATM   14  C   UNL     1     -10.183  13.082  64.000  1.00  0.00    -0.142 C  
HETATM   15  N   UNL     1     -11.433  13.875  64.025  1.00  0.00    -0.245 NA 
HETATM   16  C   UNL     1     -12.284  13.584  62.873  1.00  0.00     0.653 C  
HETATM   17  C   UNL     1     -12.395  12.104  65.599  1.00  0.00     0.233 C  
ENDBRANCH   9  11
BRANCH   8  18
HETATM   18  C   UNL     1     -11.732   9.670  70.106  1.00  0.00    -0.143 A  
HETATM   19  C   UNL     1     -12.848   8.289  71.862  1.00  0.00    -0.371 A  
HETATM   20  C   UNL     1     -13.293   9.418  72.517  1.00  0.00    -0.420 A  
HETATM   21  C   UNL     1     -12.111   8.419  70.678  1.00  0.00     0.035 A  
HETATM   22  C   UNL     1     -12.973  10.661  71.994  1.00  0.00    -0.466 A  
HETATM   23  C   UNL     1     -12.175  10.808  70.826  1.00  0.00    -0.480 A  
HETATM   24  C   UNL     1     -11.892  12.236  70.465  1.00  0.00    -0.164 C  
ENDBRANCH   8  18
ENDBRANCH   2   5
BRANCH   4  25
HETATM   25  C   UNL     1      -9.874   6.044  69.185  1.00  0.00    -0.185 C  
HETATM   26  C   UNL     1     -11.237   6.781  69.102  1.00  0.00    -0.236 C  
HETATM   27  C   UNL     1     -10.167   4.659  69.773  1.00  0.00    -0.139 C  
BRANCH  25  28
HETATM   28  C   UNL     1      -9.278   5.761  67.777  1.00  0.00    -0.105 A  
HETATM   29  C   UNL     1      -9.544   4.842  65.514  1.00  0.00    -0.145 A  
HETATM   30  C   UNL     1     -10.048   5.110  66.796  1.00  0.00    -0.264 A  
HETATM   31  F   UNL     1      -5.660   6.070  64.545  1.00  0.00    -0.016 F  
HETATM   32  C   UNL     1     -10.374   4.092  64.499  1.00  0.00    -0.159 C  
HETATM   33  F   UNL     1      -5.131   5.943  66.650  1.00  0.00    -0.004 F  
HETATM   34  C   UNL     1      -8.247   5.268  65.191  1.00  0.00    -0.135 A  
HETATM   35  F   UNL     1     -10.583   4.812  63.362  1.00  0.00     0.209 F  
HETATM   36  F   UNL     1     -11.612   3.748  64.954  1.00  0.00     0.250 F  
HETATM   37  F   UNL     1      -5.958   7.786  65.847  1.00  0.00    -0.035 F  
HETATM   38  C   UNL     1      -6.071   6.430  65.793  1.00  0.00    -0.030 C  
HETATM   39  C   UNL     1      -7.464   5.953  66.131  1.00  0.00    -0.085 A  
HETATM   40  F   UNL     1      -9.786   2.930  64.104  1.00  0.00    -0.139 F  
HETATM   41  C   UNL     1      -7.992   6.197  67.412  1.00  0.00    -0.105 A  
ENDBRANCH  25  28
ENDBRANCH   4  25
TORSDOF 5
ENDMDL
MODEL      206
REMARK 921   NORMALIZED FREE ENERGY PREDICTED BY IDOCK:   -1.35 KCAL/MOL
REMARK 922        TOTAL FREE ENERGY PREDICTED BY IDOCK:   -3.38 KCAL/MOL
REMARK 923 INTER-LIGAND FREE ENERGY PREDICTED BY IDOCK:   -1.47 KCAL/MOL
REMARK 924 INTRA-LIGAND FREE ENERGY PREDICTED BY IDOCK:   -1.91 KCAL/MOL
REMARK 927      BINDING AFFINITY PREDICTED BY RF-SCORE:    0.00 PKD
ROOT
HETATM    1  C   UNL     1     -10.917   8.969  65.938  1.00  0.00     2.130 C  
HETATM    2  N   UNL     1      -9.902   7.916  66.105  1.00  0.00    -0.053 N  
HETATM    3  O   UNL     1      -8.727   8.868  64.424  1.00  0.00    -0.160 OA 
HETATM    4  C   UNL     1      -8.726   8.063  65.371  1.00  0.00    -0.068 C  
ENDROOT
BRANCH   2   5
HETATM    5  C   UNL     1     -10.046   7.162  67.287  1.00  0.00    -0.215 A  
HETATM    6  C   UNL     1     -10.268   5.249  68.673  1.00  0.00    -0.223 A  
HETATM    7  C   UNL     1     -10.110   7.895  68.483  1.00  0.00    -0.197 A  
HETATM    8  C   UNL     1     -10.147   5.760  67.348  1.00  0.00    -0.207 A  
HETATM    9  C   UNL     1     -10.193   6.036  69.833  1.00  0.00    -0.205 A  
HETATM   10  N   UNL     1     -10.159   7.370  69.720  1.00  0.00    -0.189 NA 
BRANCH   9  11
HETATM   11  N   UNL     1     -10.117   5.484  71.096  1.00  0.00    -0.198 NA 
HETATM   12  C   UNL     1      -9.762   4.063  71.261  1.00  0.00    -0.185 C  
HETATM   13  C   UNL     1     -11.614   5.328  73.085  1.00  0.00    -0.178 C  
HETATM   14  C   UNL     1     -10.783   3.292  72.136  1.00  0.00     0.393 C  
HETATM   15  N   UNL     1     -11.184   3.951  73.399  1.00  0.00    -0.234 NA 
HETATM   16  C   UNL     1     -10.107   3.935  74.386  1.00  0.00    -0.178 C  
HETATM   17  C   UNL     1     -10.589   6.180  72.298  1.00  0.00    -0.216 C  
ENDBRANCH   9  11
BRANCH   8  18
HETATM   18  C   UNL     1     -10.011   4.754  66.212  1.00  0.00    -0.264 A  
HETATM   19  C   UNL     1     -10.610   4.274  63.835  1.00  0.00     0.047 A  
HETATM   20  C   UNL     1      -9.944   3.067  63.874  1.00  0.00    -0.164 A  
HETATM   21  C   UNL     1     -10.659   5.076  64.982  1.00  0.00     0.454 A  
HETATM   22  C   UNL     1      -9.314   2.691  65.050  1.00  0.00    -0.115 A  
HETATM   23  C   UNL     1      -9.305   3.523  66.203  1.00  0.00    -0.168 A  
HETATM   24  C   UNL     1      -8.514   2.961  67.346  1.00  0.00    -0.105 C  
ENDBRANCH   8  18
ENDBRANCH   2   5
BRANCH   4  25
HETATM   25  C   UNL     1      -7.360   7.334  65.698  1.00  0.00    -0.075 C  
HETATM   26  C   UNL     1      -6.354   8.038  64.750  1.00  0.00    -0.049 C  
HETATM   27  C   UNL     1      -7.189   5.828  65.469  1.00  0.00    -0.074 C  
BRANCH  25  28
HETATM   28  C   UNL     1      -7.002   7.553  67.195  1.00  0.00    -0.083 A  
HETATM   29  C   UNL     1      -6.498   6.614  69.408  1.00  0.00    -0.043 A  
HETATM   30  C   UNL     1      -6.825   6.453  68.053  1.00  0.00    -0.070 A  
HETATM   31  F   UNL     1      -5.962  10.474  70.939  1.00  0.00    -0.097 F  
HETATM   32  C   UNL     1      -6.369   5.416  70.319  1.00  0.00    -0.030 C  
HETATM   33  F   UNL     1      -7.301  11.232  69.403  1.00  0.00    -0.112 F  
HETATM   34  C   UNL     1      -6.307   7.909  69.912  1.00  0.00    -0.030 A  
HETATM   35  F   UNL     1      -5.135   5.323  70.887  1.00  0.00    -0.004 F  
HETATM   36  F   UNL     1      -6.578   4.226  69.687  1.00  0.00    -0.030 F  
HETATM   37  F   UNL     1      -5.173  11.054  68.998  1.00  0.00    -0.042 F  
HETATM   38  C   UNL     1      -6.221  10.428  69.603  1.00  0.00    -0.058 C  
HETATM   39  C   UNL     1      -6.437   9.028  69.077  1.00  0.00    -0.047 A  
HETATM   40  F   UNL     1      -7.256   5.450  71.352  1.00  0.00    -0.062 F  
HETATM   41  C   UNL     1      -6.778   8.837  67.726  1.00  0.00    -0.066 A  
ENDBRANCH  25  28
ENDBRANCH   4  25
TORSDOF 5
ENDMDL
MODEL      207
REMARK 921   NORMALIZED FREE ENERGY PREDICTED BY IDOCK:   -1.18 KCAL/MOL
REMARK 922        TOTAL FREE ENERGY PREDICTED BY IDOCK:   -3.16 KCAL/MOL
REMARK 923 INTER-LIGAND FREE ENERGY PREDICTED BY IDOCK:   -3.66 KCAL/MOL
REMARK 924 INTRA-LIGAND FREE ENERGY PREDICTED BY IDOCK:    0.50 KCAL/MOL
REMARK 927      BINDING AFFINITY PREDICTED BY RF-SCORE:    0.00 PKD
ROOT
HETATM    1  C   UNL     1      -6.650  15.713  71.291  1.00  0.00     1.562 C  
HETATM    2  N   UNL     1      -6.992  15.560  69.868  1.00  0.00    -0.127 N  
HETATM    3  O   UNL     1      -6.360  17.708  69.550  1.00  0.00    -0.247 OA 
HETATM    4  C   UNL     1      -6.642  16.615  69.027  1.00  0.00    -0.198 C  
ENDROOT
BRANCH   2   5
HETATM    5  C   UNL     1      -7.204  14.225  69.468  1.00  0.00    -0.003 A  
HETATM    6  C   UNL     1      -8.393  12.274  68.826  1.00  0.00     0.097 A  
HETATM    7  C   UNL     1      -6.053  13.437  69.313  1.00  0.00    -0.098 A  
HETATM    8  C   UNL     1      -8.461  13.637  69.238  1.00  0.00     0.608 A  
HETATM    9  C   UNL     1      -7.197  11.588  68.565  1.00  0.00    -0.096 A  
HETATM   10  N   UNL     1      -6.028  12.171  68.858  1.00  0.00    -0.061 NA 
BRANCH   9  11
HETATM   11  N   UNL     1      -7.176  10.338  67.981  1.00  0.00    -0.084 NA 
HETATM   12  C   UNL     1      -6.032   9.932  67.145  1.00  0.00    -0.051 C  
HETATM   13  C   UNL     1      -8.698   9.007  66.519  1.00  0.00    -0.129 C  
HETATM   14  C   UNL     1      -6.467   9.416  65.750  1.00  0.00    -0.069 C  
HETATM   15  N   UNL     1      -7.581   8.441  65.736  1.00  0.00    -0.083 NA 
HETATM   16  C   UNL     1      -7.169   7.138  66.252  1.00  0.00    -0.075 C  
HETATM   17  C   UNL     1      -8.343   9.448  67.960  1.00  0.00    -0.119 C  
ENDBRANCH   9  11
BRANCH   8  18
HETATM   18  C   UNL     1      -9.832  14.304  69.250  1.00  0.00     0.100 A  
HETATM   19  C   UNL     1     -11.381  15.749  70.572  1.00  0.00    -0.400 A  
HETATM   20  C   UNL     1     -12.340  15.686  69.583  1.00  0.00    -0.178 A  
HETATM   21  C   UNL     1     -10.175  15.055  70.413  1.00  0.00     0.150 A  
HETATM   22  C   UNL     1     -12.070  14.953  68.438  1.00  0.00    -0.167 A  
HETATM   23  C   UNL     1     -10.826  14.292  68.239  1.00  0.00    -0.256 A  
HETATM   24  C   UNL     1     -10.713  13.610  66.908  1.00  0.00    -0.275 C  
ENDBRANCH   8  18
ENDBRANCH   2   5
BRANCH   4  25
HETATM   25  C   UNL     1      -6.505  16.510  67.454  1.00  0.00    -0.198 C  
HETATM   26  C   UNL     1      -7.311  15.228  67.119  1.00  0.00    -0.178 C  
HETATM   27  C   UNL     1      -5.136  16.348  66.785  1.00  0.00     0.208 C  
BRANCH  25  28
HETATM   28  C   UNL     1      -7.123  17.775  66.796  1.00  0.00    -0.236 A  
HETATM   29  C   UNL     1      -8.876  19.497  66.757  1.00  0.00    -0.376 A  
HETATM   30  C   UNL     1      -8.292  18.353  67.324  1.00  0.00    -0.251 A  
HETATM   31  F   UNL     1      -7.058  21.292  63.440  1.00  0.00    -0.216 F  
HETATM   32  C   UNL     1     -10.163  20.063  67.310  1.00  0.00    -0.424 C  
HETATM   33  F   UNL     1      -6.209  19.364  62.904  1.00  0.00    -0.077 F  
HETATM   34  C   UNL     1      -8.255  20.101  65.654  1.00  0.00     0.092 A  
HETATM   35  F   UNL     1     -10.028  21.352  67.728  1.00  0.00    -0.402 F  
HETATM   36  F   UNL     1     -10.644  19.373  68.383  1.00  0.00    -0.454 F  
HETATM   37  F   UNL     1      -5.138  20.684  64.257  1.00  0.00    -0.185 F  
HETATM   38  C   UNL     1      -6.380  20.224  63.945  1.00  0.00    -0.075 C  
HETATM   39  C   UNL     1      -7.068  19.576  65.124  1.00  0.00     0.045 A  
HETATM   40  F   UNL     1     -11.166  20.070  66.391  1.00  0.00    -0.428 F  
HETATM   41  C   UNL     1      -6.512  18.421  65.706  1.00  0.00    -0.305 A  
ENDBRANCH  25  28
ENDBRANCH   4  25
TORSDOF 5
ENDMDL
MODEL      208
REMARK 921   NORMALIZED FREE ENERGY PREDICTED BY IDOCK:   -1.13 KCAL/MOL
REMARK 922        TOTAL FREE ENERGY PREDICTED BY IDOCK:   -3.10 KCAL/MOL
REMARK 923 INTER-LIGAND FREE ENERGY PREDICTED BY IDOCK:   -3.34 KCAL/MOL
REMARK 924 INTRA-LIGAND FREE ENERGY PREDICTED BY IDOCK:    0.24 KCAL/MOL
REMARK 927      BINDING AFFINITY PREDICTED BY RF-SCORE:    0.00 PKD
ROOT
HETATM    1  C   UNL     1     -12.352   9.686  70.204  1.00  0.00     0.262 C  
HETATM    2  N   UNL     1     -11.016   9.491  69.618  1.00  0.00    -0.232 N  
HETATM    3  O   UNL     1     -11.348  11.364  68.396  1.00  0.00    -0.231 OA 
HETATM    4  C   UNL     1     -10.534  10.521  68.811  1.00  0.00    -0.196 C  
ENDROOT
BRANCH   2   5
HETATM    5  C   UNL     1     -10.228   8.535  70.288  1.00  0.00    -0.193 A  
HETATM    6  C   UNL     1      -8.999   6.533  70.631  1.00  0.00    -0.148 A  
HETATM    7  C   UNL     1      -9.872   8.846  71.611  1.00  0.00    -0.317 A  
HETATM    8  C   UNL     1      -9.800   7.309  69.744  1.00  0.00    -0.177 A  
HETATM    9  C   UNL     1      -8.574   6.969  71.896  1.00  0.00    -0.120 A  
HETATM   10  N   UNL     1      -9.058   8.115  72.393  1.00  0.00    -0.192 NA 
BRANCH   9  11
HETATM   11  N   UNL     1      -7.641   6.276  72.640  1.00  0.00    -0.100 NA 
HETATM   12  C   UNL     1      -6.467   5.677  71.981  1.00  0.00    -0.052 C  
HETATM   13  C   UNL     1      -7.680   4.380  74.261  1.00  0.00    -0.084 C  
HETATM   14  C   UNL     1      -6.296   4.174  72.318  1.00  0.00    -0.021 C  
HETATM   15  N   UNL     1      -6.418   3.810  73.748  1.00  0.00    -0.035 NA 
HETATM   16  C   UNL     1      -5.267   4.265  74.524  1.00  0.00    -0.004 C  
HETATM   17  C   UNL     1      -7.859   5.902  74.042  1.00  0.00    -0.098 C  
ENDBRANCH   9  11
BRANCH   8  18
HETATM   18  C   UNL     1      -9.978   6.797  68.320  1.00  0.00    -0.153 A  
HETATM   19  C   UNL     1     -11.635   6.374  66.500  1.00  0.00     1.157 A  
HETATM   20  C   UNL     1     -10.649   5.892  65.665  1.00  0.00     0.895 A  
HETATM   21  C   UNL     1     -11.305   6.788  67.797  1.00  0.00    -0.029 A  
HETATM   22  C   UNL     1      -9.343   5.856  66.129  1.00  0.00    -0.150 A  
HETATM   23  C   UNL     1      -8.985   6.330  67.421  1.00  0.00    -0.109 A  
HETATM   24  C   UNL     1      -7.513   6.263  67.702  1.00  0.00    -0.089 C  
ENDBRANCH   8  18
ENDBRANCH   2   5
BRANCH   4  25
HETATM   25  C   UNL     1      -9.012  10.742  68.440  1.00  0.00    -0.153 C  
HETATM   26  C   UNL     1      -8.298   9.594  69.201  1.00  0.00    -0.130 C  
HETATM   27  C   UNL     1      -8.281  12.033  68.822  1.00  0.00     0.027 C  
BRANCH  25  28
HETATM   28  C   UNL     1      -8.832  10.621  66.901  1.00  0.00    -0.143 A  
HETATM   29  C   UNL     1      -7.690   9.601  64.979  1.00  0.00    -0.119 A  
HETATM   30  C   UNL     1      -7.878   9.738  66.364  1.00  0.00    -0.106 A  
HETATM   31  F   UNL     1     -10.082  11.826  62.360  1.00  0.00    -0.056 F  
HETATM   32  C   UNL     1      -6.619   8.687  64.432  1.00  0.00    -0.070 C  
HETATM   33  F   UNL     1     -10.321  13.330  63.911  1.00  0.00    -0.417 F  
HETATM   34  C   UNL     1      -8.504  10.339  64.107  1.00  0.00    -0.180 A  
HETATM   35  F   UNL     1      -7.126   7.717  63.622  1.00  0.00    -0.060 F  
HETATM   36  F   UNL     1      -5.914   8.034  65.398  1.00  0.00    -0.039 F  
HETATM   37  F   UNL     1     -11.697  11.651  63.806  1.00  0.00    -0.461 F  
HETATM   38  C   UNL     1     -10.384  11.991  63.678  1.00  0.00    -0.450 C  
HETATM   39  C   UNL     1      -9.491  11.200  64.606  1.00  0.00    -0.245 A  
HETATM   40  F   UNL     1      -5.698   9.355  63.685  1.00  0.00    -0.077 F  
HETATM   41  C   UNL     1      -9.648  11.326  65.998  1.00  0.00    -0.245 A  
ENDBRANCH  25  28
ENDBRANCH   4  25
TORSDOF 5
ENDMDL
MODEL      209
REMARK 921   NORMALIZED FREE ENERGY PREDICTED BY IDOCK:   -1.09 KCAL/MOL
REMARK 922        TOTAL FREE ENERGY PREDICTED BY IDOCK:   -3.04 KCAL/MOL
REMARK 923 INTER-LIGAND FREE ENERGY PREDICTED BY IDOCK:   -3.39 KCAL/MOL
REMARK 924 INTRA-LIGAND FREE ENERGY PREDICTED BY IDOCK:    0.35 KCAL/MOL
REMARK 927      BINDING AFFINITY PREDICTED BY RF-SCORE:    0.00 PKD
ROOT
HETATM    1  C   UNL     1     -10.556  12.412  64.935  1.00  0.00    -0.294 C  
HETATM    2  N   UNL     1      -9.763  11.393  65.642  1.00  0.00    -0.224 N  
HETATM    3  O   UNL     1      -8.198  11.576  64.020  1.00  0.00     0.725 OA 
HETATM    4  C   UNL     1      -8.477  11.160  65.158  1.00  0.00     0.131 C  
ENDROOT
BRANCH   2   5
HETATM    5  C   UNL     1     -10.213  11.122  66.949  1.00  0.00    -0.222 A  
HETATM    6  C   UNL     1     -10.893  11.544  69.183  1.00  0.00    -0.241 A  
HETATM    7  C   UNL     1     -10.447   9.771  67.254  1.00  0.00    -0.261 A  
HETATM    8  C   UNL     1     -10.419  12.086  67.954  1.00  0.00    -0.221 A  
HETATM    9  C   UNL     1     -11.230  10.195  69.374  1.00  0.00    -0.215 A  
HETATM   10  N   UNL     1     -10.958   9.308  68.408  1.00  0.00    -0.062 NA 
BRANCH   9  11
HETATM   11  N   UNL     1     -11.870   9.748  70.512  1.00  0.00    -0.260 NA 
HETATM   12  C   UNL     1     -12.246   8.328  70.639  1.00  0.00     0.113 C  
HETATM   13  C   UNL     1     -13.906  10.388  71.803  1.00  0.00     0.149 C  
HETATM   14  C   UNL     1     -13.741   8.138  70.999  1.00  0.00     0.122 C  
HETATM   15  N   UNL     1     -14.257   8.985  72.099  1.00  0.00    -0.379 NA 
HETATM   16  C   UNL     1     -13.739   8.563  73.398  1.00  0.00     1.401 C  
HETATM   17  C   UNL     1     -12.405  10.655  71.534  1.00  0.00    -0.310 C  
ENDBRANCH   9  11
BRANCH   8  18
HETATM   18  C   UNL     1     -10.325  13.603  67.838  1.00  0.00    -0.249 A  
HETATM   19  C   UNL     1     -11.615  15.738  67.958  1.00  0.00    -0.213 A  
HETATM   20  C   UNL     1     -10.485  16.478  67.683  1.00  0.00    -0.305 A  
HETATM   21  C   UNL     1     -11.535  14.340  68.007  1.00  0.00    -0.342 A  
HETATM   22  C   UNL     1      -9.284  15.812  67.488  1.00  0.00    -0.207 A  
HETATM   23  C   UNL     1      -9.177  14.398  67.594  1.00  0.00    -0.196 A  
HETATM   24  C   UNL     1      -7.779  13.885  67.412  1.00  0.00    -0.165 C  
ENDBRANCH   8  18
ENDBRANCH   2   5
BRANCH   4  25
HETATM   25  C   UNL     1      -7.316  10.465  65.979  1.00  0.00    -0.134 C  
HETATM   26  C   UNL     1      -7.481  11.071  67.397  1.00  0.00    -0.106 C  
HETATM   27  C   UNL     1      -5.845  10.660  65.594  1.00  0.00    -0.133 C  
BRANCH  25  28
HETATM   28  C   UNL     1      -7.529   8.926  65.975  1.00  0.00    -0.090 A  
HETATM   29  C   UNL     1      -7.666   6.813  64.728  1.00  0.00    -0.111 A  
HETATM   30  C   UNL     1      -7.481   8.203  64.768  1.00  0.00    -0.094 A  
HETATM   31  F   UNL     1      -8.312   4.730  68.302  1.00  0.00    -0.090 F  
HETATM   32  C   UNL     1      -7.665   6.071  63.412  1.00  0.00    -0.096 C  
HETATM   33  F   UNL     1      -9.150   6.540  69.166  1.00  0.00    -0.134 F  
HETATM   34  C   UNL     1      -7.869   6.119  65.930  1.00  0.00    -0.107 A  
HETATM   35  F   UNL     1      -6.701   5.112  63.355  1.00  0.00    -0.030 F  
HETATM   36  F   UNL     1      -7.451   6.877  62.333  1.00  0.00    -0.058 F  
HETATM   37  F   UNL     1      -7.013   6.167  69.287  1.00  0.00    -0.055 F  
HETATM   38  C   UNL     1      -8.089   6.064  68.459  1.00  0.00    -0.107 C  
HETATM   39  C   UNL     1      -7.885   6.800  67.155  1.00  0.00    -0.112 A  
HETATM   40  F   UNL     1      -8.843   5.433  63.173  1.00  0.00    -0.112 F  
HETATM   41  C   UNL     1      -7.709   8.196  67.164  1.00  0.00    -0.097 A  
ENDBRANCH  25  28
ENDBRANCH   4  25
TORSDOF 5
ENDMDL
MODEL      210
REMARK 921   NORMALIZED FREE ENERGY PREDICTED BY IDOCK:   -1.06 KCAL/MOL
REMARK 922        TOTAL FREE ENERGY PREDICTED BY IDOCK:   -3.00 KCAL/MOL
REMARK 923 INTER-LIGAND FREE ENERGY PREDICTED BY IDOCK:   -4.94 KCAL/MOL
REMARK 924 INTRA-LIGAND FREE ENERGY PREDICTED BY IDOCK:    1.94 KCAL/MOL
REMARK 927      BINDING AFFINITY PREDICTED BY RF-SCORE:    0.00 PKD
ROOT
HETATM    1  C   UNL     1     -10.643  12.084  64.408  1.00  0.00    -0.318 C  
HETATM    2  N   UNL     1      -9.525  12.325  65.335  1.00  0.00    -0.055 N  
HETATM    3  O   UNL     1      -9.897  14.544  65.105  1.00  0.00    -0.296 OA 
HETATM    4  C   UNL     1      -9.337  13.642  65.752  1.00  0.00     0.164 C  
ENDROOT
BRANCH   2   5
HETATM    5  C   UNL     1      -9.089  11.175  66.021  1.00  0.00    -0.203 A  
HETATM    6  C   UNL     1      -8.948   9.553  67.748  1.00  0.00    -0.126 A  
HETATM    7  C   UNL     1      -8.112  10.402  65.372  1.00  0.00    -0.152 A  
HETATM    8  C   UNL     1      -9.540  10.765  67.289  1.00  0.00    -0.182 A  
HETATM    9  C   UNL     1      -8.072   8.765  66.986  1.00  0.00    -0.099 A  
HETATM   10  N   UNL     1      -7.626   9.227  65.811  1.00  0.00    -0.097 NA 
BRANCH   9  11
HETATM   11  N   UNL     1      -7.677   7.504  67.385  1.00  0.00    -0.115 NA 
HETATM   12  C   UNL     1      -8.161   6.314  66.663  1.00  0.00    -0.110 C  
HETATM   13  C   UNL     1      -7.692   6.202  69.512  1.00  0.00    -0.099 C  
HETATM   14  C   UNL     1      -8.796   5.262  67.607  1.00  0.00    -0.105 C  
HETATM   15  N   UNL     1      -8.027   4.937  68.829  1.00  0.00    -0.080 NA 
HETATM   16  C   UNL     1      -6.830   4.156  68.525  1.00  0.00    -0.047 C  
HETATM   17  C   UNL     1      -6.963   7.254  68.642  1.00  0.00    -0.082 C  
ENDBRANCH   9  11
BRANCH   8  18
HETATM   18  C   UNL     1     -10.648  11.377  68.139  1.00  0.00    -0.220 A  
HETATM   19  C   UNL     1     -12.502  13.050  68.169  1.00  0.00     0.452 A  
HETATM   20  C   UNL     1     -12.815  12.732  69.474  1.00  0.00     0.905 A  
HETATM   21  C   UNL     1     -11.432  12.405  67.536  1.00  0.00    -0.410 A  
HETATM   22  C   UNL     1     -12.072  11.755  70.118  1.00  0.00    -0.398 A  
HETATM   23  C   UNL     1     -11.022  11.051  69.467  1.00  0.00    -0.297 A  
HETATM   24  C   UNL     1     -10.388   9.991  70.319  1.00  0.00    -0.301 C  
ENDBRANCH   8  18
ENDBRANCH   2   5
BRANCH   4  25
HETATM   25  C   UNL     1      -8.520  14.075  67.036  1.00  0.00    -0.168 C  
HETATM   26  C   UNL     1      -7.152  13.372  66.832  1.00  0.00     0.725 C  
HETATM   27  C   UNL     1      -8.994  13.697  68.444  1.00  0.00    -0.160 C  
BRANCH  25  28
HETATM   28  C   UNL     1      -8.381  15.623  67.064  1.00  0.00    -0.261 A  
HETATM   29  C   UNL     1      -7.159  17.648  66.399  1.00  0.00    -0.310 A  
HETATM   30  C   UNL     1      -7.314  16.253  66.398  1.00  0.00     0.026 A  
HETATM   31  F   UNL     1      -9.987  20.019  68.378  1.00  0.00    -0.459 F  
HETATM   32  C   UNL     1      -5.972  18.294  65.724  1.00  0.00    -0.227 C  
HETATM   33  F   UNL     1     -10.414  18.347  69.700  1.00  0.00    -0.154 F  
HETATM   34  C   UNL     1      -8.117  18.437  67.053  1.00  0.00    -0.239 A  
HETATM   35  F   UNL     1      -6.340  19.166  64.746  1.00  0.00    -0.296 F  
HETATM   36  F   UNL     1      -5.132  17.401  65.129  1.00  0.00    -0.046 F  
HETATM   37  F   UNL     1     -11.493  18.552  67.825  1.00  0.00    -0.119 F  
HETATM   38  C   UNL     1     -10.262  18.685  68.390  1.00  0.00    -0.371 C  
HETATM   39  C   UNL     1      -9.215  17.846  67.694  1.00  0.00    -0.258 A  
HETATM   40  F   UNL     1      -5.204  19.007  66.593  1.00  0.00    -0.140 F  
HETATM   41  C   UNL     1      -9.337  16.445  67.687  1.00  0.00    -0.212 A  
ENDBRANCH  25  28
ENDBRANCH   4  25
TORSDOF 5
ENDMDL
MODEL      211
REMARK 921   NORMALIZED FREE ENERGY PREDICTED BY IDOCK:   -1.04 KCAL/MOL
REMARK 922        TOTAL FREE ENERGY PREDICTED BY IDOCK:   -2.98 KCAL/MOL
REMARK 923 INTER-LIGAND FREE ENERGY PREDICTED BY IDOCK:   -2.14 KCAL/MOL
REMARK 924 INTRA-LIGAND FREE ENERGY PREDICTED BY IDOCK:   -0.84 KCAL/MOL
REMARK 927      BINDING AFFINITY PREDICTED BY RF-SCORE:    0.00 PKD
ROOT
HETATM    1  C   UNL     1     -11.728  19.506  66.833  1.00  0.00     1.358 C  
HETATM    2  N   UNL     1     -10.441  18.931  67.256  1.00  0.00    -0.416 N  
HETATM    3  O   UNL     1     -10.316  20.536  68.843  1.00  0.00    -0.124 OA 
HETATM    4  C   UNL     1      -9.879  19.452  68.421  1.00  0.00    -0.428 C  
ENDROOT
BRANCH   2   5
HETATM    5  C   UNL     1     -10.173  17.659  66.711  1.00  0.00    -0.335 A  
HETATM    6  C   UNL     1      -8.970  15.938  65.605  1.00  0.00     0.133 A  
HETATM    7  C   UNL     1     -11.195  16.705  66.841  1.00  0.00     0.337 A  
HETATM    8  C   UNL     1      -8.989  17.294  66.045  1.00  0.00    -0.111 A  
HETATM    9  C   UNL     1      -9.978  15.003  65.886  1.00  0.00    -0.326 A  
HETATM   10  N   UNL     1     -11.111  15.415  66.469  1.00  0.00    -0.276 NA 
BRANCH   9  11
HETATM   11  N   UNL     1      -9.833  13.658  65.616  1.00  0.00    -0.223 NA 
HETATM   12  C   UNL     1      -9.793  13.184  64.221  1.00  0.00     0.212 C  
HETATM   13  C   UNL     1     -10.992  11.552  66.283  1.00  0.00    -0.275 C  
HETATM   14  C   UNL     1     -10.814  12.051  63.947  1.00  0.00    -0.399 C  
HETATM   15  N   UNL     1     -10.848  10.954  64.941  1.00  0.00    -0.168 NA 
HETATM   16  C   UNL     1      -9.662  10.105  64.855  1.00  0.00    -0.324 C  
HETATM   17  C   UNL     1      -9.936  12.622  66.650  1.00  0.00    -0.242 C  
ENDBRANCH   9  11
BRANCH   8  18
HETATM   18  C   UNL     1      -7.717  18.114  65.864  1.00  0.00    -0.122 A  
HETATM   19  C   UNL     1      -6.804  20.319  65.127  1.00  0.00    -0.300 A  
HETATM   20  C   UNL     1      -5.514  19.917  65.404  1.00  0.00    -0.189 A  
HETATM   21  C   UNL     1      -7.866  19.429  65.330  1.00  0.00     0.429 A  
HETATM   22  C   UNL     1      -5.307  18.641  65.904  1.00  0.00    -0.188 A  
HETATM   23  C   UNL     1      -6.382  17.749  66.171  1.00  0.00    -0.278 A  
HETATM   24  C   UNL     1      -5.948  16.444  66.770  1.00  0.00     0.106 C  
ENDBRANCH   8  18
ENDBRANCH   2   5
BRANCH   4  25
HETATM   25  C   UNL     1      -8.772  18.730  69.291  1.00  0.00     0.131 C  
HETATM   26  C   UNL     1      -8.846  19.485  70.645  1.00  0.00     2.109 C  
HETATM   27  C   UNL     1      -7.298  18.742  68.870  1.00  0.00    -0.325 C  
BRANCH  25  28
HETATM   28  C   UNL     1      -9.132  17.226  69.442  1.00  0.00     0.311 A  
HETATM   29  C   UNL     1     -10.770  15.492  70.034  1.00  0.00    -0.331 A  
HETATM   30  C   UNL     1     -10.409  16.841  69.889  1.00  0.00     0.039 A  
HETATM   31  F   UNL     1      -7.997  12.516  69.046  1.00  0.00    -0.042 F  
HETATM   32  C   UNL     1     -12.129  15.110  70.570  1.00  0.00    -0.343 C  
HETATM   33  F   UNL     1      -6.391  13.912  69.490  1.00  0.00    -0.096 F  
HETATM   34  C   UNL     1      -9.841  14.500  69.689  1.00  0.00     0.257 A  
HETATM   35  F   UNL     1     -12.839  14.346  69.694  1.00  0.00    -0.287 F  
HETATM   36  F   UNL     1     -12.923  16.181  70.856  1.00  0.00    -0.407 F  
HETATM   37  F   UNL     1      -7.244  13.837  67.492  1.00  0.00    -0.138 F  
HETATM   38  C   UNL     1      -7.566  13.787  68.815  1.00  0.00    -0.099 C  
HETATM   39  C   UNL     1      -8.572  14.845  69.204  1.00  0.00    -0.148 A  
HETATM   40  F   UNL     1     -12.051  14.386  71.720  1.00  0.00    -0.374 F  
HETATM   41  C   UNL     1      -8.234  16.206  69.080  1.00  0.00    -0.244 A  
ENDBRANCH  25  28
ENDBRANCH   4  25
TORSDOF 5
ENDMDL
MODEL      212
REMARK 921   NORMALIZED FREE ENERGY PREDICTED BY IDOCK:   -1.01 KCAL/MOL
REMARK 922        TOTAL FREE ENERGY PREDICTED BY IDOCK:   -2.94 KCAL/MOL
REMARK 923 INTER-LIGAND FREE ENERGY PREDICTED BY IDOCK:   -3.46 KCAL/MOL
REMARK 924 INTRA-LIGAND FREE ENERGY PREDICTED BY IDOCK:    0.52 KCAL/MOL
REMARK 927      BINDING AFFINITY PREDICTED BY RF-SCORE:    0.00 PKD
ROOT
HETATM    1  C   UNL     1      -7.592  11.801  65.193  1.00  0.00     1.865 C  
HETATM    2  N   UNL     1      -8.586  11.994  66.261  1.00  0.00    -0.045 N  
HETATM    3  O   UNL     1      -9.842  13.170  64.794  1.00  0.00    -0.154 OA 
HETATM    4  C   UNL     1      -9.794  12.582  65.888  1.00  0.00    -0.247 C  
ENDROOT
BRANCH   2   5
HETATM    5  C   UNL     1      -8.384  11.174  67.389  1.00  0.00    -0.135 A  
HETATM    6  C   UNL     1      -7.957   9.201  68.637  1.00  0.00    -0.101 A  
HETATM    7  C   UNL     1      -8.450  11.813  68.637  1.00  0.00    -0.068 A  
HETATM    8  C   UNL     1      -8.145   9.788  67.352  1.00  0.00    -0.114 A  
HETATM    9  C   UNL     1      -7.908   9.927  69.837  1.00  0.00    -0.173 A  
HETATM   10  N   UNL     1      -8.202  11.234  69.826  1.00  0.00     0.680 NA 
BRANCH   9  11
HETATM   11  N   UNL     1      -7.530   9.352  71.033  1.00  0.00    -0.302 NA 
HETATM   12  C   UNL     1      -6.101   9.181  71.352  1.00  0.00    -0.072 C  
HETATM   13  C   UNL     1      -8.042   7.240  72.257  1.00  0.00    -0.100 C  
HETATM   14  C   UNL     1      -5.751   7.726  71.755  1.00  0.00    -0.035 C  
HETATM   15  N   UNL     1      -6.655   7.090  72.740  1.00  0.00    -0.060 NA 
HETATM   16  C   UNL     1      -6.487   7.656  74.077  1.00  0.00    -0.083 C  
HETATM   17  C   UNL     1      -8.480   8.689  71.933  1.00  0.00    -0.143 C  
ENDBRANCH   9  11
BRANCH   8  18
HETATM   18  C   UNL     1      -7.937   8.898  66.132  1.00  0.00    -0.106 A  
HETATM   19  C   UNL     1      -9.090   7.680  64.281  1.00  0.00     1.266 A  
HETATM   20  C   UNL     1      -7.888   7.218  63.789  1.00  0.00    -0.109 A  
HETATM   21  C   UNL     1      -9.108   8.476  65.433  1.00  0.00    -0.103 A  
HETATM   22  C   UNL     1      -6.718   7.578  64.440  1.00  0.00    -0.048 A  
HETATM   23  C   UNL     1      -6.718   8.434  65.576  1.00  0.00    -0.059 A  
HETATM   24  C   UNL     1      -5.345   8.753  66.090  1.00  0.00    -0.034 C  
ENDBRANCH   8  18
ENDBRANCH   2   5
BRANCH   4  25
HETATM   25  C   UNL     1     -11.136  12.496  66.722  1.00  0.00    -0.323 C  
HETATM   26  C   UNL     1     -11.003  11.135  67.456  1.00  0.00    -0.331 C  
HETATM   27  C   UNL     1     -12.502  12.482  66.029  1.00  0.00     0.151 C  
BRANCH  25  28
HETATM   28  C   UNL     1     -11.204  13.689  67.716  1.00  0.00    -0.310 A  
HETATM   29  C   UNL     1     -12.076  14.659  69.798  1.00  0.00    -0.371 A  
HETATM   30  C   UNL     1     -11.993  13.603  68.878  1.00  0.00    -0.392 A  
HETATM   31  F   UNL     1      -9.863  18.147  69.115  1.00  0.00    -0.323 F  
HETATM   32  C   UNL     1     -12.975  14.560  71.008  1.00  0.00    -0.358 C  
HETATM   33  F   UNL     1      -9.929  17.731  66.983  1.00  0.00    -0.279 F  
HETATM   34  C   UNL     1     -11.322  15.819  69.570  1.00  0.00    -0.328 A  
HETATM   35  F   UNL     1     -12.291  14.691  72.178  1.00  0.00    -0.352 F  
HETATM   36  F   UNL     1     -13.640  13.373  71.097  1.00  0.00    -0.258 F  
HETATM   37  F   UNL     1      -8.330  16.906  68.201  1.00  0.00    -0.189 F  
HETATM   38  C   UNL     1      -9.667  17.165  68.192  1.00  0.00    -0.276 C  
HETATM   39  C   UNL     1     -10.496  15.926  68.443  1.00  0.00    -0.254 A  
HETATM   40  F   UNL     1     -13.934  15.526  71.024  1.00  0.00    -0.537 F  
HETATM   41  C   UNL     1     -10.442  14.856  67.531  1.00  0.00    -0.254 A  
ENDBRANCH  25  28
ENDBRANCH   4  25
TORSDOF 5
ENDMDL
MODEL      213
REMARK 921   NORMALIZED FREE ENERGY PREDICTED BY IDOCK:   -0.96 KCAL/MOL
REMARK 922        TOTAL FREE ENERGY PREDICTED BY IDOCK:   -2.88 KCAL/MOL
REMARK 923 INTER-LIGAND FREE ENERGY PREDICTED BY IDOCK:   -6.48 KCAL/MOL
REMARK 924 INTRA-LIGAND FREE ENERGY PREDICTED BY IDOCK:    3.61 KCAL/MOL
REMARK 927      BINDING AFFINITY PREDICTED BY RF-SCORE:    0.00 PKD
ROOT
HETATM    1  C   UNL     1     -12.799   7.510  70.669  1.00  0.00     0.226 C  
HETATM    2  N   UNL     1     -11.364   7.829  70.752  1.00  0.00    -0.279 N  
HETATM    3  O   UNL     1     -11.361   6.979  72.848  1.00  0.00    -0.256 OA 
HETATM    4  C   UNL     1     -10.685   7.354  71.873  1.00  0.00    -0.216 C  
ENDROOT
BRANCH   2   5
HETATM    5  C   UNL     1     -10.778   8.162  69.515  1.00  0.00    -0.175 A  
HETATM    6  C   UNL     1     -10.175   9.489  67.642  1.00  0.00    -0.273 A  
HETATM    7  C   UNL     1     -10.057   7.138  68.878  1.00  0.00    -0.177 A  
HETATM    8  C   UNL     1     -10.878   9.413  68.879  1.00  0.00    -0.151 A  
HETATM    9  C   UNL     1      -9.366   8.463  67.130  1.00  0.00    -0.153 A  
HETATM   10  N   UNL     1      -9.353   7.271  67.740  1.00  0.00    -0.128 NA 
BRANCH   9  11
HETATM   11  N   UNL     1      -8.548   8.646  66.033  1.00  0.00    -0.145 NA 
HETATM   12  C   UNL     1      -7.091   8.459  66.159  1.00  0.00    -0.076 C  
HETATM   13  C   UNL     1      -8.158  10.453  64.359  1.00  0.00    -0.107 C  
HETATM   14  C   UNL     1      -6.288   9.677  65.637  1.00  0.00    -0.069 C  
HETATM   15  N   UNL     1      -6.702  10.214  64.321  1.00  0.00    -0.127 NA 
HETATM   16  C   UNL     1      -6.332   9.317  63.228  1.00  0.00    -0.091 C  
HETATM   17  C   UNL     1      -9.021   9.238  64.777  1.00  0.00    -0.168 C  
ENDBRANCH   9  11
BRANCH   8  18
HETATM   18  C   UNL     1     -11.517  10.691  69.409  1.00  0.00    -0.356 A  
HETATM   19  C   UNL     1     -11.797  13.142  69.016  1.00  0.00    -0.358 A  
HETATM   20  C   UNL     1     -12.579  13.269  70.145  1.00  0.00    -0.112 A  
HETATM   21  C   UNL     1     -11.265  11.891  68.679  1.00  0.00    -0.311 A  
HETATM   22  C   UNL     1     -12.840  12.140  70.906  1.00  0.00    -0.190 A  
HETATM   23  C   UNL     1     -12.355  10.854  70.542  1.00  0.00    -0.463 A  
HETATM   24  C   UNL     1     -12.804   9.758  71.462  1.00  0.00    -0.502 C  
ENDBRANCH   8  18
ENDBRANCH   2   5
BRANCH   4  25
HETATM   25  C   UNL     1      -9.116   7.188  71.976  1.00  0.00    -0.142 C  
HETATM   26  C   UNL     1      -8.819   7.581  73.447  1.00  0.00    -0.241 C  
HETATM   27  C   UNL     1      -8.170   8.023  71.106  1.00  0.00    -0.111 C  
BRANCH  25  28
HETATM   28  C   UNL     1      -8.732   5.711  71.678  1.00  0.00    -0.136 A  
HETATM   29  C   UNL     1      -8.701   3.805  70.128  1.00  0.00    -0.119 A  
HETATM   30  C   UNL     1      -9.036   5.134  70.432  1.00  0.00    -0.173 A  
HETATM   31  F   UNL     1      -6.676   1.503  72.978  1.00  0.00    -0.012 F  
HETATM   32  C   UNL     1      -9.091   3.194  68.803  1.00  0.00    -0.150 C  
HETATM   33  F   UNL     1      -7.556   2.727  74.544  1.00  0.00    -0.046 F  
HETATM   34  C   UNL     1      -8.011   3.043  71.082  1.00  0.00    -0.059 A  
HETATM   35  F   UNL     1      -8.015   2.755  68.094  1.00  0.00    -0.058 F  
HETATM   36  F   UNL     1      -9.752   4.056  67.979  1.00  0.00    -0.210 F  
HETATM   37  F   UNL     1      -5.677   3.321  73.628  1.00  0.00     0.000 F  
HETATM   38  C   UNL     1      -6.901   2.792  73.353  1.00  0.00    -0.027 C  
HETATM   39  C   UNL     1      -7.657   3.597  72.321  1.00  0.00    -0.058 A  
HETATM   40  F   UNL     1      -9.910   2.116  68.947  1.00  0.00    -0.190 F  
HETATM   41  C   UNL     1      -8.017   4.928  72.602  1.00  0.00    -0.094 A  
ENDBRANCH  25  28
ENDBRANCH   4  25
TORSDOF 5
ENDMDL
MODEL      214
REMARK 921   NORMALIZED FREE ENERGY PREDICTED BY IDOCK:   -0.95 KCAL/MOL
REMARK 922        TOTAL FREE ENERGY PREDICTED BY IDOCK:   -2.86 KCAL/MOL
REMARK 923 INTER-LIGAND FREE ENERGY PREDICTED BY IDOCK:   -2.55 KCAL/MOL
REMARK 924 INTRA-LIGAND FREE ENERGY PREDICTED BY IDOCK:   -0.32 KCAL/MOL
REMARK 927      BINDING AFFINITY PREDICTED BY RF-SCORE:    0.00 PKD
ROOT
HETATM    1  C   UNL     1     -11.553  19.787  66.629  1.00  0.00     1.104 C  
HETATM    2  N   UNL     1     -10.295  19.206  67.125  1.00  0.00    -0.391 N  
HETATM    3  O   UNL     1     -10.133  20.944  68.563  1.00  0.00     0.202 OA 
HETATM    4  C   UNL     1      -9.731  19.810  68.248  1.00  0.00    -0.395 C  
ENDROOT
BRANCH   2   5
HETATM    5  C   UNL     1     -10.067  17.882  66.702  1.00  0.00    -0.362 A  
HETATM    6  C   UNL     1      -8.913  16.025  65.778  1.00  0.00    -0.097 A  
HETATM    7  C   UNL     1     -11.126  16.980  66.898  1.00  0.00     0.273 A  
HETATM    8  C   UNL     1      -8.888  17.415  66.093  1.00  0.00    -0.180 A  
HETATM    9  C   UNL     1      -9.959  15.157  66.124  1.00  0.00    -0.295 A  
HETATM   10  N   UNL     1     -11.085  15.660  66.646  1.00  0.00    -0.217 NA 
BRANCH   9  11
HETATM   11  N   UNL     1      -9.861  13.788  65.979  1.00  0.00    -0.298 NA 
HETATM   12  C   UNL     1      -9.720  13.195  64.636  1.00  0.00     0.174 C  
HETATM   13  C   UNL     1     -11.185  11.801  66.702  1.00  0.00    -0.323 C  
HETATM   14  C   UNL     1     -10.770  12.089  64.361  1.00  0.00    -0.323 C  
HETATM   15  N   UNL     1     -10.951  11.084  65.432  1.00  0.00    -0.094 NA 
HETATM   16  C   UNL     1      -9.808  10.179  65.528  1.00  0.00    -0.298 C  
HETATM   17  C   UNL     1     -10.111  12.850  67.079  1.00  0.00    -0.245 C  
ENDBRANCH   9  11
BRANCH   8  18
HETATM   18  C   UNL     1      -7.583  18.169  65.863  1.00  0.00    -0.166 A  
HETATM   19  C   UNL     1      -6.589  20.345  65.146  1.00  0.00    -0.327 A  
HETATM   20  C   UNL     1      -5.310  19.861  65.329  1.00  0.00    -0.189 A  
HETATM   21  C   UNL     1      -7.687  19.509  65.383  1.00  0.00     0.252 A  
HETATM   22  C   UNL     1      -5.148  18.558  65.774  1.00  0.00    -0.188 A  
HETATM   23  C   UNL     1      -6.256  17.718  66.076  1.00  0.00    -0.263 A  
HETATM   24  C   UNL     1      -5.863  16.370  66.603  1.00  0.00     0.306 C  
ENDBRANCH   8  18
ENDBRANCH   2   5
BRANCH   4  25
HETATM   25  C   UNL     1      -8.665  19.132  69.199  1.00  0.00    -0.136 C  
HETATM   26  C   UNL     1      -8.819  19.929  70.522  1.00  0.00     1.629 C  
HETATM   27  C   UNL     1      -7.171  19.148  68.858  1.00  0.00    -0.376 C  
BRANCH  25  28
HETATM   28  C   UNL     1      -9.016  17.628  69.381  1.00  0.00     0.433 A  
HETATM   29  C   UNL     1      -8.313  15.274  69.359  1.00  0.00    -0.232 A  
HETATM   30  C   UNL     1      -8.032  16.640  69.200  1.00  0.00    -0.154 A  
HETATM   31  F   UNL     1     -12.174  14.096  70.471  1.00  0.00    -0.335 F  
HETATM   32  C   UNL     1      -7.250  14.232  69.104  1.00  0.00    -0.104 C  
HETATM   33  F   UNL     1     -12.954  15.905  69.552  1.00  0.00    -0.027 F  
HETATM   34  C   UNL     1      -9.604  14.887  69.745  1.00  0.00     0.121 A  
HETATM   35  F   UNL     1      -7.003  13.460  70.198  1.00  0.00     0.117 F  
HETATM   36  F   UNL     1      -6.046  14.759  68.741  1.00  0.00    -0.081 F  
HETATM   37  F   UNL     1     -12.319  15.930  71.630  1.00  0.00    -0.394 F  
HETATM   38  C   UNL     1     -11.994  15.445  70.400  1.00  0.00    -0.354 C  
HETATM   39  C   UNL     1     -10.602  15.846  69.971  1.00  0.00    -0.320 A  
HETATM   40  F   UNL     1      -7.594  13.371  68.107  1.00  0.00    -0.098 F  
HETATM   41  C   UNL     1     -10.294  17.207  69.792  1.00  0.00     0.099 A  
ENDBRANCH  25  28
ENDBRANCH   4  25
TORSDOF 5
ENDMDL
MODEL      215
REMARK 921   NORMALIZED FREE ENERGY PREDICTED BY IDOCK:   -0.84 KCAL/MOL
REMARK 922        TOTAL FREE ENERGY PREDICTED BY IDOCK:   -2.72 KCAL/MOL
REMARK 923 INTER-LIGAND FREE ENERGY PREDICTED BY IDOCK:   -1.46 KCAL/MOL
REMARK 924 INTRA-LIGAND FREE ENERGY PREDICTED BY IDOCK:   -1.27 KCAL/MOL
REMARK 927      BINDING AFFINITY PREDICTED BY RF-SCORE:    0.00 PKD
ROOT
HETATM    1  C   UNL     1     -12.075  10.706  68.589  1.00  0.00     0.202 C  
HETATM    2  N   UNL     1     -10.673  11.013  68.915  1.00  0.00    -0.199 N  
HETATM    3  O   UNL     1     -10.291   8.791  69.088  1.00  0.00    -0.210 OA 
HETATM    4  C   UNL     1      -9.799   9.929  68.991  1.00  0.00    -0.190 C  
ENDROOT
BRANCH   2   5
HETATM    5  C   UNL     1     -10.305  12.350  68.663  1.00  0.00    -0.182 A  
HETATM    6  C   UNL     1      -9.971  14.357  67.441  1.00  0.00    -0.242 A  
HETATM    7  C   UNL     1      -9.793  13.066  69.758  1.00  0.00     1.844 A  
HETATM    8  C   UNL     1     -10.394  12.996  67.417  1.00  0.00    -0.234 A  
HETATM    9  C   UNL     1      -9.594  15.045  68.604  1.00  0.00    -0.219 A  
HETATM   10  N   UNL     1      -9.466  14.370  69.754  1.00  0.00     0.526 NA 
BRANCH   9  11
HETATM   11  N   UNL     1      -9.381  16.409  68.619  1.00  0.00    -0.224 NA 
HETATM   12  C   UNL     1      -9.783  17.206  69.792  1.00  0.00     0.544 C  
HETATM   13  C   UNL     1      -9.940  18.334  67.135  1.00  0.00    -0.337 C  
HETATM   14  C   UNL     1     -10.677  18.414  69.413  1.00  0.00     0.978 C  
HETATM   15  N   UNL     1     -10.210  19.236  68.273  1.00  0.00    -0.412 NA 
HETATM   16  C   UNL     1      -9.034  20.029  68.621  1.00  0.00     0.015 C  
HETATM   17  C   UNL     1      -8.971  17.164  67.430  1.00  0.00    -0.220 C  
ENDBRANCH   9  11
BRANCH   8  18
HETATM   18  C   UNL     1     -10.995  12.466  66.120  1.00  0.00    -0.321 A  
HETATM   19  C   UNL     1     -10.795  10.716  64.350  1.00  0.00     0.229 A  
HETATM   20  C   UNL     1     -11.885  11.224  63.674  1.00  0.00     0.228 A  
HETATM   21  C   UNL     1     -10.354  11.339  65.524  1.00  0.00    -0.321 A  
HETATM   22  C   UNL     1     -12.534  12.332  64.196  1.00  0.00    -0.530 A  
HETATM   23  C   UNL     1     -12.133  12.938  65.419  1.00  0.00    -0.501 A  
HETATM   24  C   UNL     1     -13.007  14.083  65.839  1.00  0.00    -0.223 C  
ENDBRANCH   8  18
ENDBRANCH   2   5
BRANCH   4  25
HETATM   25  C   UNL     1      -8.224  10.030  68.892  1.00  0.00    -0.121 C  
HETATM   26  C   UNL     1      -7.758   9.627  70.316  1.00  0.00    -0.184 C  
HETATM   27  C   UNL     1      -7.531  11.359  68.571  1.00  0.00    -0.113 C  
BRANCH  25  28
HETATM   28  C   UNL     1      -7.709   9.040  67.810  1.00  0.00    -0.097 A  
HETATM   29  C   UNL     1      -7.138   8.580  65.465  1.00  0.00    -0.082 A  
HETATM   30  C   UNL     1      -7.601   9.446  66.467  1.00  0.00    -0.093 A  
HETATM   31  F   UNL     1      -5.976   4.692  66.496  1.00  0.00    -0.023 F  
HETATM   32  C   UNL     1      -7.085   9.027  64.022  1.00  0.00    -0.095 C  
HETATM   33  F   UNL     1      -7.335   4.772  68.190  1.00  0.00    -0.062 F  
HETATM   34  C   UNL     1      -6.738   7.284  65.818  1.00  0.00    -0.052 A  
HETATM   35  F   UNL     1      -5.828   8.963  63.503  1.00  0.00    -0.073 F  
HETATM   36  F   UNL     1      -7.500  10.311  63.834  1.00  0.00    -0.143 F  
HETATM   37  F   UNL     1      -5.293   5.482  68.402  1.00  0.00    -0.003 F  
HETATM   38  C   UNL     1      -6.355   5.466  67.550  1.00  0.00    -0.039 C  
HETATM   39  C   UNL     1      -6.796   6.855  67.152  1.00  0.00    -0.072 A  
HETATM   40  F   UNL     1      -7.865   8.261  63.212  1.00  0.00    -0.118 F  
HETATM   41  C   UNL     1      -7.276   7.742  68.134  1.00  0.00    -0.090 A  
ENDBRANCH  25  28
ENDBRANCH   4  25
TORSDOF 5
ENDMDL
MODEL      216
REMARK 921   NORMALIZED FREE ENERGY PREDICTED BY IDOCK:   -0.83 KCAL/MOL
REMARK 922        TOTAL FREE ENERGY PREDICTED BY IDOCK:   -2.71 KCAL/MOL
REMARK 923 INTER-LIGAND FREE ENERGY PREDICTED BY IDOCK:   -6.36 KCAL/MOL
REMARK 924 INTRA-LIGAND FREE ENERGY PREDICTED BY IDOCK:    3.65 KCAL/MOL
REMARK 927      BINDING AFFINITY PREDICTED BY RF-SCORE:    0.00 PKD
ROOT
HETATM    1  C   UNL     1      -7.390   7.820  68.585  1.00  0.00    -0.087 C  
HETATM    2  N   UNL     1      -7.323   8.867  67.553  1.00  0.00    -0.081 N  
HETATM    3  O   UNL     1      -7.906   7.308  66.023  1.00  0.00    -0.098 OA 
HETATM    4  C   UNL     1      -7.774   8.517  66.281  1.00  0.00    -0.094 C  
ENDROOT
BRANCH   2   5
HETATM    5  C   UNL     1      -7.247  10.177  68.068  1.00  0.00    -0.085 A  
HETATM    6  C   UNL     1      -7.262  11.923  69.675  1.00  0.00     0.322 A  
HETATM    7  C   UNL     1      -7.016  11.196  67.130  1.00  0.00    -0.112 A  
HETATM    8  C   UNL     1      -7.402  10.527  69.422  1.00  0.00    -0.133 A  
HETATM    9  C   UNL     1      -6.901  12.869  68.704  1.00  0.00    -0.099 A  
HETATM   10  N   UNL     1      -6.825  12.496  67.420  1.00  0.00    -0.149 NA 
BRANCH   9  11
HETATM   11  N   UNL     1      -6.584  14.173  69.026  1.00  0.00    -0.098 NA 
HETATM   12  C   UNL     1      -7.620  15.077  69.555  1.00  0.00    -0.181 C  
HETATM   13  C   UNL     1      -5.513  16.104  67.865  1.00  0.00    -0.125 C  
HETATM   14  C   UNL     1      -7.711  16.407  68.766  1.00  0.00    -0.214 C  
HETATM   15  N   UNL     1      -6.425  17.085  68.485  1.00  0.00    -0.159 NA 
HETATM   16  C   UNL     1      -5.846  17.672  69.691  1.00  0.00    -0.242 C  
HETATM   17  C   UNL     1      -5.305  14.794  68.663  1.00  0.00    -0.095 C  
ENDBRANCH   9  11
BRANCH   8  18
HETATM   18  C   UNL     1      -7.564   9.603  70.623  1.00  0.00    -0.104 A  
HETATM   19  C   UNL     1      -9.193   8.674  72.272  1.00  0.00    -0.297 A  
HETATM   20  C   UNL     1      -8.202   7.942  72.892  1.00  0.00    -0.195 A  
HETATM   21  C   UNL     1      -8.870   9.497  71.186  1.00  0.00     0.218 A  
HETATM   22  C   UNL     1      -6.908   8.023  72.401  1.00  0.00    -0.085 A  
HETATM   23  C   UNL     1      -6.578   8.809  71.262  1.00  0.00    -0.075 A  
HETATM   24  C   UNL     1      -5.138   8.707  70.857  1.00  0.00    -0.024 C  
ENDBRANCH   8  18
ENDBRANCH   2   5
BRANCH   4  25
HETATM   25  C   UNL     1      -8.202   9.547  65.160  1.00  0.00    -0.134 C  
HETATM   26  C   UNL     1      -8.653   8.627  63.995  1.00  0.00    -0.026 C  
HETATM   27  C   UNL     1      -7.195  10.537  64.564  1.00  0.00     0.086 C  
BRANCH  25  28
HETATM   28  C   UNL     1      -9.367  10.432  65.687  1.00  0.00    -0.244 A  
HETATM   29  C   UNL     1     -10.919  11.026  67.496  1.00  0.00    -0.338 A  
HETATM   30  C   UNL     1      -9.871  10.243  66.986  1.00  0.00    -0.238 A  
HETATM   31  F   UNL     1     -12.555  14.056  65.115  1.00  0.00    -0.413 F  
HETATM   32  C   UNL     1     -11.479  10.764  68.875  1.00  0.00    -0.293 C  
HETATM   33  F   UNL     1     -11.960  12.942  63.347  1.00  0.00    -0.508 F  
HETATM   34  C   UNL     1     -11.454  12.048  66.699  1.00  0.00    -0.411 A  
HETATM   35  F   UNL     1     -11.378  11.847  69.693  1.00  0.00    -0.297 F  
HETATM   36  F   UNL     1     -10.856   9.744  69.531  1.00  0.00    -0.211 F  
HETATM   37  F   UNL     1     -10.578  14.349  64.260  1.00  0.00    -0.346 F  
HETATM   38  C   UNL     1     -11.508  13.396  64.547  1.00  0.00    -0.372 C  
HETATM   39  C   UNL     1     -10.951  12.290  65.412  1.00  0.00    -0.341 A  
HETATM   40  F   UNL     1     -12.800  10.437  68.847  1.00  0.00     0.308 F  
HETATM   41  C   UNL     1      -9.908  11.482  64.923  1.00  0.00    -0.289 A  
ENDBRANCH  25  28
ENDBRANCH   4  25
TORSDOF 5
ENDMDL
MODEL      217
REMARK 921   NORMALIZED FREE ENERGY PREDICTED BY IDOCK:   -0.78 KCAL/MOL
REMARK 922        TOTAL FREE ENERGY PREDICTED BY IDOCK:   -2.64 KCAL/MOL
REMARK 923 INTER-LIGAND FREE ENERGY PREDICTED BY IDOCK:   -2.77 KCAL/MOL
REMARK 924 INTRA-LIGAND FREE ENERGY PREDICTED BY IDOCK:    0.13 KCAL/MOL
REMARK 927      BINDING AFFINITY PREDICTED BY RF-SCORE:    0.00 PKD
ROOT
HETATM    1  C   UNL     1      -7.990  10.289  69.817  1.00  0.00    -0.126 C  
HETATM    2  N   UNL     1      -8.800  11.265  69.071  1.00  0.00    -0.037 N  
HETATM    3  O   UNL     1     -10.636  10.063  69.616  1.00  0.00    -0.217 OA 
HETATM    4  C   UNL     1     -10.184  11.135  69.176  1.00  0.00    -0.141 C  
ENDROOT
BRANCH   2   5
HETATM    5  C   UNL     1      -8.109  12.444  68.730  1.00  0.00     0.074 A  
HETATM    6  C   UNL     1      -6.574  13.855  67.596  1.00  0.00    -0.178 A  
HETATM    7  C   UNL     1      -8.462  13.597  69.449  1.00  0.00     0.824 A  
HETATM    8  C   UNL     1      -7.098  12.540  67.755  1.00  0.00    -0.126 A  
HETATM    9  C   UNL     1      -7.069  14.988  68.260  1.00  0.00    -0.114 A  
HETATM   10  N   UNL     1      -7.988  14.835  69.222  1.00  0.00    -0.138 NA 
BRANCH   9  11
HETATM   11  N   UNL     1      -6.670  16.268  67.934  1.00  0.00    -0.127 NA 
HETATM   12  C   UNL     1      -7.024  17.398  68.812  1.00  0.00    -0.236 C  
HETATM   13  C   UNL     1      -6.866  17.766  65.949  1.00  0.00    -0.255 C  
HETATM   14  C   UNL     1      -7.716  18.553  68.045  1.00  0.00    -0.265 C  
HETATM   15  N   UNL     1      -7.073  18.970  66.778  1.00  0.00    -0.203 NA 
HETATM   16  C   UNL     1      -5.820  19.683  67.014  1.00  0.00    -0.173 C  
HETATM   17  C   UNL     1      -6.089  16.615  66.632  1.00  0.00     0.028 C  
ENDBRANCH   9  11
BRANCH   8  18
HETATM   18  C   UNL     1      -6.612  11.463  66.792  1.00  0.00    -0.136 A  
HETATM   19  C   UNL     1      -6.629  10.702  64.413  1.00  0.00     0.179 A  
HETATM   20  C   UNL     1      -5.861   9.600  64.723  1.00  0.00    -0.080 A  
HETATM   21  C   UNL     1      -7.010  11.590  65.427  1.00  0.00     1.180 A  
HETATM   22  C   UNL     1      -5.463   9.414  66.038  1.00  0.00    -0.040 A  
HETATM   23  C   UNL     1      -5.793  10.339  67.067  1.00  0.00    -0.050 A  
HETATM   24  C   UNL     1      -5.212   9.987  68.403  1.00  0.00    -0.035 C  
ENDBRANCH   8  18
ENDBRANCH   2   5
BRANCH   4  25
HETATM   25  C   UNL     1     -11.227  12.277  68.845  1.00  0.00    -0.323 C  
HETATM   26  C   UNL     1     -10.949  13.333  69.948  1.00  0.00     0.335 C  
HETATM   27  C   UNL     1     -12.736  12.009  68.874  1.00  0.00     1.174 C  
BRANCH  25  28
HETATM   28  C   UNL     1     -10.948  12.835  67.421  1.00  0.00    -0.285 A  
HETATM   29  C   UNL     1     -10.361  14.729  65.970  1.00  0.00    -0.318 A  
HETATM   30  C   UNL     1     -10.622  14.192  67.240  1.00  0.00    -0.277 A  
HETATM   31  F   UNL     1     -10.484  12.218  62.622  1.00  0.00    -0.100 F  
HETATM   32  C   UNL     1     -10.069  16.201  65.799  1.00  0.00    -0.363 C  
HETATM   33  F   UNL     1     -11.884  10.934  63.678  1.00  0.00     0.072 F  
HETATM   34  C   UNL     1     -10.391  13.880  64.854  1.00  0.00    -0.430 A  
HETATM   35  F   UNL     1      -8.851  16.429  65.233  1.00  0.00     0.124 F  
HETATM   36  F   UNL     1     -10.069  16.896  66.971  1.00  0.00    -0.259 F  
HETATM   37  F   UNL     1      -9.745  10.614  63.890  1.00  0.00    -0.254 F  
HETATM   38  C   UNL     1     -10.696  11.585  63.809  1.00  0.00    -0.408 C  
HETATM   39  C   UNL     1     -10.674  12.514  65.000  1.00  0.00    -0.326 A  
HETATM   40  F   UNL     1     -10.976  16.822  64.997  1.00  0.00    -0.403 F  
HETATM   41  C   UNL     1     -10.944  12.007  66.285  1.00  0.00    -0.340 A  
ENDBRANCH  25  28
ENDBRANCH   4  25
TORSDOF 5
ENDMDL
MODEL      218
REMARK 921   NORMALIZED FREE ENERGY PREDICTED BY IDOCK:   -0.67 KCAL/MOL
REMARK 922        TOTAL FREE ENERGY PREDICTED BY IDOCK:   -2.51 KCAL/MOL
REMARK 923 INTER-LIGAND FREE ENERGY PREDICTED BY IDOCK:   -2.18 KCAL/MOL
REMARK 924 INTRA-LIGAND FREE ENERGY PREDICTED BY IDOCK:   -0.33 KCAL/MOL
REMARK 927      BINDING AFFINITY PREDICTED BY RF-SCORE:    0.00 PKD
ROOT
HETATM    1  C   UNL     1      -5.996   7.237  68.833  1.00  0.00    -0.026 C  
HETATM    2  N   UNL     1      -6.696   8.531  68.895  1.00  0.00    -0.053 N  
HETATM    3  O   UNL     1      -5.159   9.360  67.457  1.00  0.00    -0.036 OA 
HETATM    4  C   UNL     1      -6.264   9.515  68.007  1.00  0.00    -0.056 C  
ENDROOT
BRANCH   2   5
HETATM    5  C   UNL     1      -7.967   8.468  69.498  1.00  0.00    -0.106 A  
HETATM    6  C   UNL     1     -10.146   7.660  69.979  1.00  0.00    -0.204 A  
HETATM    7  C   UNL     1      -8.254   9.469  70.441  1.00  0.00    -0.190 A  
HETATM    8  C   UNL     1      -8.954   7.506  69.214  1.00  0.00    -0.136 A  
HETATM    9  C   UNL     1     -10.312   8.609  71.000  1.00  0.00    -0.217 A  
HETATM   10  N   UNL     1      -9.369   9.540  71.189  1.00  0.00    -0.202 NA 
BRANCH   9  11
HETATM   11  N   UNL     1     -11.402   8.599  71.847  1.00  0.00    -0.323 NA 
HETATM   12  C   UNL     1     -12.191   7.366  72.021  1.00  0.00    -0.280 C  
HETATM   13  C   UNL     1     -13.479   9.952  72.125  1.00  0.00    -0.356 C  
HETATM   14  C   UNL     1     -13.707   7.592  71.789  1.00  0.00    -0.330 C  
HETATM   15  N   UNL     1     -14.299   8.771  72.460  1.00  0.00    -0.584 NA 
HETATM   16  C   UNL     1     -14.400   8.579  73.905  1.00  0.00     3.281 C  
HETATM   17  C   UNL     1     -11.967   9.820  72.432  1.00  0.00     0.630 C  
ENDBRANCH   9  11
BRANCH   8  18
HETATM   18  C   UNL     1      -8.845   6.282  68.312  1.00  0.00    -0.114 A  
HETATM   19  C   UNL     1      -9.044   5.461  65.962  1.00  0.00    -0.159 A  
HETATM   20  C   UNL     1      -8.727   4.176  66.346  1.00  0.00    -0.115 A  
HETATM   21  C   UNL     1      -9.123   6.474  66.926  1.00  0.00    -0.144 A  
HETATM   22  C   UNL     1      -8.468   3.925  67.685  1.00  0.00    -0.102 A  
HETATM   23  C   UNL     1      -8.487   4.956  68.665  1.00  0.00    -0.089 A  
HETATM   24  C   UNL     1      -8.116   4.487  70.040  1.00  0.00    -0.067 C  
ENDBRANCH   8  18
ENDBRANCH   2   5
BRANCH   4  25
HETATM   25  C   UNL     1      -7.107  10.786  67.587  1.00  0.00    -0.091 C  
HETATM   26  C   UNL     1      -6.024  11.884  67.419  1.00  0.00    -0.116 C  
HETATM   27  C   UNL     1      -8.176  11.372  68.515  1.00  0.00    -0.153 C  
BRANCH  25  28
HETATM   28  C   UNL     1      -7.852  10.494  66.254  1.00  0.00    -0.141 A  
HETATM   29  C   UNL     1      -8.294   8.988  64.364  1.00  0.00    -0.183 A  
HETATM   30  C   UNL     1      -7.636   9.286  65.567  1.00  0.00    -0.091 A  
HETATM   31  F   UNL     1     -11.033  11.739  62.795  1.00  0.00    -0.190 F  
HETATM   32  C   UNL     1      -8.000   7.707  63.619  1.00  0.00    -0.089 C  
HETATM   33  F   UNL     1      -9.956  13.335  63.803  1.00  0.00    -0.251 F  
HETATM   34  C   UNL     1      -9.220   9.908  63.850  1.00  0.00    -0.295 A  
HETATM   35  F   UNL     1      -9.109   6.935  63.453  1.00  0.00     0.635 F  
HETATM   36  F   UNL     1      -7.084   6.913  64.242  1.00  0.00    -0.048 F  
HETATM   37  F   UNL     1     -11.549  12.277  64.837  1.00  0.00    -0.350 F  
HETATM   38  C   UNL     1     -10.495  12.100  63.993  1.00  0.00    -0.386 C  
HETATM   39  C   UNL     1      -9.490  11.106  64.527  1.00  0.00    -0.254 A  
HETATM   40  F   UNL     1      -7.510   7.932  62.369  1.00  0.00    -0.088 F  
HETATM   41  C   UNL     1      -8.806  11.383  65.725  1.00  0.00    -0.115 A  
ENDBRANCH  25  28
ENDBRANCH   4  25
TORSDOF 5
ENDMDL
MODEL      219
REMARK 921   NORMALIZED FREE ENERGY PREDICTED BY IDOCK:   -0.64 KCAL/MOL
REMARK 922        TOTAL FREE ENERGY PREDICTED BY IDOCK:   -2.47 KCAL/MOL
REMARK 923 INTER-LIGAND FREE ENERGY PREDICTED BY IDOCK:   -4.72 KCAL/MOL
REMARK 924 INTRA-LIGAND FREE ENERGY PREDICTED BY IDOCK:    2.25 KCAL/MOL
REMARK 927      BINDING AFFINITY PREDICTED BY RF-SCORE:    0.00 PKD
ROOT
HETATM    1  C   UNL     1      -9.236   6.651  65.723  1.00  0.00     0.106 C  
HETATM    2  N   UNL     1      -9.994   7.428  66.718  1.00  0.00    -0.231 N  
HETATM    3  O   UNL     1     -10.197   5.540  67.946  1.00  0.00    -0.165 OA 
HETATM    4  C   UNL     1     -10.299   6.779  67.913  1.00  0.00    -0.194 C  
ENDROOT
BRANCH   2   5
HETATM    5  C   UNL     1      -9.918   8.823  66.535  1.00  0.00    -0.290 A  
HETATM    6  C   UNL     1      -9.049  10.914  65.825  1.00  0.00    -0.214 A  
HETATM    7  C   UNL     1     -10.978   9.574  67.068  1.00  0.00     0.084 A  
HETATM    8  C   UNL     1      -8.869   9.502  65.888  1.00  0.00    -0.193 A  
HETATM    9  C   UNL     1     -10.200  11.583  66.266  1.00  0.00    -0.230 A  
HETATM   10  N   UNL     1     -11.143  10.901  66.930  1.00  0.00    -0.242 NA 
BRANCH   9  11
HETATM   11  N   UNL     1     -10.420  12.922  66.010  1.00  0.00    -0.272 NA 
HETATM   12  C   UNL     1     -11.298  13.709  66.894  1.00  0.00    -0.327 C  
HETATM   13  C   UNL     1     -11.187  14.280  64.063  1.00  0.00     0.204 C  
HETATM   14  C   UNL     1     -12.406  14.463  66.116  1.00  0.00    -0.314 C  
HETATM   15  N   UNL     1     -11.966  15.203  64.912  1.00  0.00    -0.244 NA 
HETATM   16  C   UNL     1     -11.195  16.395  65.259  1.00  0.00     0.006 C  
HETATM   17  C   UNL     1     -10.001  13.574  64.764  1.00  0.00    -0.125 C  
ENDBRANCH   9  11
BRANCH   8  18
HETATM   18  C   UNL     1      -7.672   8.908  65.155  1.00  0.00    -0.102 A  
HETATM   19  C   UNL     1      -5.364   7.994  65.431  1.00  0.00    -0.029 A  
HETATM   20  C   UNL     1      -5.254   7.767  64.075  1.00  0.00    -0.036 A  
HETATM   21  C   UNL     1      -6.532   8.571  65.945  1.00  0.00    -0.053 A  
HETATM   22  C   UNL     1      -6.322   8.095  63.256  1.00  0.00    -0.080 A  
HETATM   23  C   UNL     1      -7.537   8.626  63.772  1.00  0.00    -0.127 A  
HETATM   24  C   UNL     1      -8.589   8.850  62.726  1.00  0.00    -0.167 C  
ENDBRANCH   8  18
ENDBRANCH   2   5
BRANCH   4  25
HETATM   25  C   UNL     1     -10.700   7.506  69.259  1.00  0.00    -0.185 C  
HETATM   26  C   UNL     1     -12.128   6.965  69.536  1.00  0.00     0.489 C  
HETATM   27  C   UNL     1     -10.794   9.034  69.339  1.00  0.00    -0.152 C  
BRANCH  25  28
HETATM   28  C   UNL     1      -9.700   7.108  70.380  1.00  0.00    -0.176 A  
HETATM   29  C   UNL     1      -7.602   7.527  71.589  1.00  0.00    -0.084 A  
HETATM   30  C   UNL     1      -8.526   7.856  70.584  1.00  0.00    -0.125 A  
HETATM   31  F   UNL     1      -8.383   4.271  74.101  1.00  0.00    -0.092 F  
HETATM   32  C   UNL     1      -6.322   8.314  71.749  1.00  0.00    -0.052 C  
HETATM   33  F   UNL     1      -9.574   3.377  72.517  1.00  0.00    -0.144 F  
HETATM   34  C   UNL     1      -7.876   6.443  72.435  1.00  0.00    -0.102 A  
HETATM   35  F   UNL     1      -6.208   8.879  72.982  1.00  0.00    -0.104 F  
HETATM   36  F   UNL     1      -6.198   9.339  70.858  1.00  0.00    -0.042 F  
HETATM   37  F   UNL     1     -10.498   4.743  73.932  1.00  0.00    -0.196 F  
HETATM   38  C   UNL     1      -9.369   4.537  73.200  1.00  0.00    -0.121 C  
HETATM   39  C   UNL     1      -9.054   5.698  72.286  1.00  0.00    -0.144 A  
HETATM   40  F   UNL     1      -5.213   7.542  71.586  1.00  0.00    -0.033 F  
HETATM   41  C   UNL     1      -9.956   6.044  71.263  1.00  0.00    -0.223 A  
ENDBRANCH  25  28
ENDBRANCH   4  25
TORSDOF 5
ENDMDL
MODEL      220
REMARK 921   NORMALIZED FREE ENERGY PREDICTED BY IDOCK:   -0.63 KCAL/MOL
REMARK 922        TOTAL FREE ENERGY PREDICTED BY IDOCK:   -2.45 KCAL/MOL
REMARK 923 INTER-LIGAND FREE ENERGY PREDICTED BY IDOCK:   -2.14 KCAL/MOL
REMARK 924 INTRA-LIGAND FREE ENERGY PREDICTED BY IDOCK:   -0.31 KCAL/MOL
REMARK 927      BINDING AFFINITY PREDICTED BY RF-SCORE:    0.00 PKD
ROOT
HETATM    1  C   UNL     1     -12.354   9.689  70.200  1.00  0.00     0.262 C  
HETATM    2  N   UNL     1     -11.001   9.472  69.663  1.00  0.00    -0.232 N  
HETATM    3  O   UNL     1     -11.268  11.337  68.412  1.00  0.00    -0.218 OA 
HETATM    4  C   UNL     1     -10.479  10.488  68.864  1.00  0.00    -0.206 C  
ENDROOT
BRANCH   2   5
HETATM    5  C   UNL     1     -10.249   8.514  70.370  1.00  0.00    -0.195 A  
HETATM    6  C   UNL     1      -9.175   6.447  70.827  1.00  0.00    -0.161 A  
HETATM    7  C   UNL     1      -9.763   8.913  71.626  1.00  0.00    -0.309 A  
HETATM    8  C   UNL     1      -9.974   7.207  69.924  1.00  0.00    -0.184 A  
HETATM    9  C   UNL     1      -8.615   6.958  72.008  1.00  0.00    -0.121 A  
HETATM   10  N   UNL     1      -8.957   8.186  72.419  1.00  0.00    -0.180 NA 
BRANCH   9  11
HETATM   11  N   UNL     1      -7.690   6.253  72.752  1.00  0.00    -0.104 NA 
HETATM   12  C   UNL     1      -6.249   6.490  72.555  1.00  0.00    -0.050 C  
HETATM   13  C   UNL     1      -7.216   3.851  73.227  1.00  0.00    -0.067 C  
HETATM   14  C   UNL     1      -5.461   5.183  72.288  1.00  0.00    -0.012 C  
HETATM   15  N   UNL     1      -5.754   4.051  73.197  1.00  0.00    -0.003 NA 
HETATM   16  C   UNL     1      -5.213   4.276  74.536  1.00  0.00    -0.004 C  
HETATM   17  C   UNL     1      -8.051   5.104  73.589  1.00  0.00    -0.110 C  
ENDBRANCH   9  11
BRANCH   8  18
HETATM   18  C   UNL     1     -10.307   6.581  68.575  1.00  0.00    -0.219 A  
HETATM   19  C   UNL     1     -11.517   6.920  66.417  1.00  0.00     1.727 A  
HETATM   20  C   UNL     1     -11.118   5.683  65.958  1.00  0.00     0.430 A  
HETATM   21  C   UNL     1     -11.140   7.340  67.699  1.00  0.00    -0.071 A  
HETATM   22  C   UNL     1     -10.325   4.893  66.776  1.00  0.00    -0.264 A  
HETATM   23  C   UNL     1      -9.885   5.331  68.056  1.00  0.00    -0.193 A  
HETATM   24  C   UNL     1      -8.984   4.354  68.750  1.00  0.00    -0.152 C  
ENDBRANCH   8  18
ENDBRANCH   2   5
BRANCH   4  25
HETATM   25  C   UNL     1      -8.943  10.688  68.545  1.00  0.00    -0.156 C  
HETATM   26  C   UNL     1      -8.245  10.028  69.764  1.00  0.00    -0.191 C  
HETATM   27  C   UNL     1      -8.335  12.088  68.404  1.00  0.00    -0.151 C  
BRANCH  25  28
HETATM   28  C   UNL     1      -8.594   9.965  67.213  1.00  0.00    -0.125 A  
HETATM   29  C   UNL     1      -8.767   9.843  64.765  1.00  0.00    -0.210 A  
HETATM   30  C   UNL     1      -9.065  10.467  65.986  1.00  0.00    -0.191 A  
HETATM   31  F   UNL     1      -6.346   6.427  64.752  1.00  0.00    -0.031 F  
HETATM   32  C   UNL     1      -9.333  10.372  63.468  1.00  0.00    -0.297 C  
HETATM   33  F   UNL     1      -7.008   5.991  66.776  1.00  0.00    -0.060 F  
HETATM   34  C   UNL     1      -7.945   8.707  64.766  1.00  0.00    -0.141 A  
HETATM   35  F   UNL     1      -8.363  10.719  62.579  1.00  0.00    -0.168 F  
HETATM   36  F   UNL     1     -10.109  11.482  63.625  1.00  0.00    -0.272 F  
HETATM   37  F   UNL     1      -5.280   7.267  66.449  1.00  0.00    -0.020 F  
HETATM   38  C   UNL     1      -6.527   6.985  65.981  1.00  0.00    -0.051 C  
HETATM   39  C   UNL     1      -7.425   8.200  65.966  1.00  0.00    -0.080 A  
HETATM   40  F   UNL     1     -10.116   9.458  62.831  1.00  0.00     0.732 F  
HETATM   41  C   UNL     1      -7.751   8.840  67.176  1.00  0.00    -0.096 A  
ENDBRANCH  25  28
ENDBRANCH   4  25
TORSDOF 5
ENDMDL
MODEL      221
REMARK 921   NORMALIZED FREE ENERGY PREDICTED BY IDOCK:   -0.24 KCAL/MOL
REMARK 922        TOTAL FREE ENERGY PREDICTED BY IDOCK:   -1.95 KCAL/MOL
REMARK 923 INTER-LIGAND FREE ENERGY PREDICTED BY IDOCK:   -6.37 KCAL/MOL
REMARK 924 INTRA-LIGAND FREE ENERGY PREDICTED BY IDOCK:    4.41 KCAL/MOL
REMARK 927      BINDING AFFINITY PREDICTED BY RF-SCORE:    0.00 PKD
ROOT
HETATM    1  C   UNL     1     -12.957  11.203  69.905  1.00  0.00     0.285 C  
HETATM    2  N   UNL     1     -11.748  10.364  69.944  1.00  0.00    -0.267 N  
HETATM    3  O   UNL     1     -12.410   9.613  71.972  1.00  0.00    -0.361 OA 
HETATM    4  C   UNL     1     -11.656   9.454  70.996  1.00  0.00    -0.330 C  
ENDROOT
BRANCH   2   5
HETATM    5  C   UNL     1     -11.079  10.263  68.708  1.00  0.00    -0.228 A  
HETATM    6  C   UNL     1      -9.873  10.958  66.786  1.00  0.00    -0.231 A  
HETATM    7  C   UNL     1     -11.010   8.978  68.146  1.00  0.00     0.076 A  
HETATM    8  C   UNL     1     -10.505  11.338  68.005  1.00  0.00    -0.215 A  
HETATM    9  C   UNL     1      -9.731   9.631  66.351  1.00  0.00    -0.224 A  
HETATM   10  N   UNL     1     -10.347   8.650  67.023  1.00  0.00    -0.293 NA 
BRANCH   9  11
HETATM   11  N   UNL     1      -8.944   9.289  65.270  1.00  0.00    -0.204 NA 
HETATM   12  C   UNL     1      -8.508   7.894  65.085  1.00  0.00    -0.079 C  
HETATM   13  C   UNL     1      -6.790  10.077  64.289  1.00  0.00    -0.126 C  
HETATM   14  C   UNL     1      -6.975   7.768  64.897  1.00  0.00    -0.055 C  
HETATM   15  N   UNL     1      -6.359   8.710  63.935  1.00  0.00    -0.072 NA 
HETATM   16  C   UNL     1      -6.702   8.378  62.554  1.00  0.00    -0.091 C  
HETATM   17  C   UNL     1      -8.321  10.285  64.391  1.00  0.00    -0.166 C  
ENDBRANCH   9  11
BRANCH   8  18
HETATM   18  C   UNL     1     -10.370  12.790  68.449  1.00  0.00    -0.248 A  
HETATM   19  C   UNL     1     -11.286  14.548  69.968  1.00  0.00    -0.274 A  
HETATM   20  C   UNL     1     -10.379  15.476  69.499  1.00  0.00    -0.271 A  
HETATM   21  C   UNL     1     -11.291  13.253  69.435  1.00  0.00    -0.280 A  
HETATM   22  C   UNL     1      -9.474  15.088  68.524  1.00  0.00    -0.203 A  
HETATM   23  C   UNL     1      -9.429  13.760  68.017  1.00  0.00    -0.207 A  
HETATM   24  C   UNL     1      -8.335  13.532  67.017  1.00  0.00    -0.096 C  
ENDBRANCH   8  18
ENDBRANCH   2   5
BRANCH   4  25
HETATM   25  C   UNL     1     -10.710   8.186  71.014  1.00  0.00    -0.248 C  
HETATM   26  C   UNL     1     -10.965   7.542  69.626  1.00  0.00    -0.164 C  
HETATM   27  C   UNL     1     -10.895   7.071  72.049  1.00  0.00    -0.253 C  
BRANCH  25  28
HETATM   28  C   UNL     1      -9.234   8.644  71.181  1.00  0.00    -0.269 A  
HETATM   29  C   UNL     1      -7.144   8.618  72.473  1.00  0.00    -0.012 A  
HETATM   30  C   UNL     1      -8.480   8.227  72.293  1.00  0.00    -0.248 A  
HETATM   31  F   UNL     1      -5.316  11.044  69.592  1.00  0.00    -0.040 F  
HETATM   32  C   UNL     1      -6.377   8.200  73.706  1.00  0.00    -0.110 C  
HETATM   33  F   UNL     1      -7.271  11.834  69.066  1.00  0.00    -0.099 F  
HETATM   34  C   UNL     1      -6.534   9.420  71.498  1.00  0.00     0.042 A  
HETATM   35  F   UNL     1      -5.259   7.484  73.405  1.00  0.00    -0.040 F  
HETATM   36  F   UNL     1      -7.100   7.421  74.559  1.00  0.00    -0.101 F  
HETATM   37  F   UNL     1      -6.525  10.042  68.089  1.00  0.00    -0.053 F  
HETATM   38  C   UNL     1      -6.592  10.676  69.292  1.00  0.00    -0.068 C  
HETATM   39  C   UNL     1      -7.241   9.824  70.358  1.00  0.00    -0.149 A  
HETATM   40  F   UNL     1      -5.954   9.264  74.441  1.00  0.00    -0.138 F  
HETATM   41  C   UNL     1      -8.583   9.426  70.209  1.00  0.00    -0.249 A  
ENDBRANCH  25  28
ENDBRANCH   4  25
TORSDOF 5
ENDMDL
MODEL      222
REMARK 921   NORMALIZED FREE ENERGY PREDICTED BY IDOCK:   -0.22 KCAL/MOL
REMARK 922        TOTAL FREE ENERGY PREDICTED BY IDOCK:   -1.93 KCAL/MOL
REMARK 923 INTER-LIGAND FREE ENERGY PREDICTED BY IDOCK:   -3.95 KCAL/MOL
REMARK 924 INTRA-LIGAND FREE ENERGY PREDICTED BY IDOCK:    2.02 KCAL/MOL
REMARK 927      BINDING AFFINITY PREDICTED BY RF-SCORE:    0.00 PKD
ROOT
HETATM    1  C   UNL     1     -12.747  12.262  68.491  1.00  0.00     1.596 C  
HETATM    2  N   UNL     1     -11.576  11.420  68.786  1.00  0.00    -0.284 N  
HETATM    3  O   UNL     1     -12.242  11.360  70.946  1.00  0.00    -0.370 OA 
HETATM    4  C   UNL     1     -11.509  10.874  70.068  1.00  0.00    -0.329 C  
ENDROOT
BRANCH   2   5
HETATM    5  C   UNL     1     -10.929  10.914  67.642  1.00  0.00    -0.293 A  
HETATM    6  C   UNL     1      -9.857  10.923  65.524  1.00  0.00    -0.298 A  
HETATM    7  C   UNL     1     -10.728   9.524  67.610  1.00  0.00    -0.250 A  
HETATM    8  C   UNL     1     -10.499  11.683  66.545  1.00  0.00    -0.276 A  
HETATM    9  C   UNL     1      -9.575   9.552  65.621  1.00  0.00    -0.277 A  
HETATM   10  N   UNL     1     -10.059   8.853  66.656  1.00  0.00    -0.279 NA 
BRANCH   9  11
HETATM   11  N   UNL     1      -8.780   8.895  64.703  1.00  0.00    -0.147 NA 
HETATM   12  C   UNL     1      -7.787   7.907  65.159  1.00  0.00    -0.114 C  
HETATM   13  C   UNL     1      -7.250   9.556  62.847  1.00  0.00    -0.104 C  
HETATM   14  C   UNL     1      -6.368   8.188  64.604  1.00  0.00    -0.056 C  
HETATM   15  N   UNL     1      -6.283   8.484  63.156  1.00  0.00    -0.085 NA 
HETATM   16  C   UNL     1      -6.523   7.293  62.344  1.00  0.00    -0.061 C  
HETATM   17  C   UNL     1      -8.708   9.283  63.290  1.00  0.00    -0.176 C  
ENDBRANCH   9  11
BRANCH   8  18
HETATM   18  C   UNL     1     -10.520  13.199  66.390  1.00  0.00    -0.287 A  
HETATM   19  C   UNL     1      -9.457  15.336  67.126  1.00  0.00    -0.223 A  
HETATM   20  C   UNL     1     -10.303  16.074  66.326  1.00  0.00    -0.330 A  
HETATM   21  C   UNL     1      -9.584  13.942  67.170  1.00  0.00    -0.247 A  
HETATM   22  C   UNL     1     -11.248  15.406  65.562  1.00  0.00    -0.234 A  
HETATM   23  C   UNL     1     -11.349  13.988  65.552  1.00  0.00    -0.313 A  
HETATM   24  C   UNL     1     -12.391  13.464  64.610  1.00  0.00    -0.433 C  
ENDBRANCH   8  18
ENDBRANCH   2   5
BRANCH   4  25
HETATM   25  C   UNL     1     -10.620   9.631  70.474  1.00  0.00    -0.369 C  
HETATM   26  C   UNL     1     -11.363   8.440  69.813  1.00  0.00     0.134 C  
HETATM   27  C   UNL     1     -10.414   9.248  71.944  1.00  0.00    -0.125 C  
BRANCH  25  28
HETATM   28  C   UNL     1      -9.186   9.812  69.904  1.00  0.00    -0.263 A  
HETATM   29  C   UNL     1      -7.273  11.275  69.415  1.00  0.00    -0.063 A  
HETATM   30  C   UNL     1      -8.568  11.075  69.918  1.00  0.00     0.975 A  
HETATM   31  F   UNL     1      -5.149   8.008  67.884  1.00  0.00    -0.027 F  
HETATM   32  C   UNL     1      -6.657  12.654  69.392  1.00  0.00    -0.067 C  
HETATM   33  F   UNL     1      -7.038   7.046  67.405  1.00  0.00    -0.075 F  
HETATM   34  C   UNL     1      -6.562  10.174  68.916  1.00  0.00    -0.049 A  
HETATM   35  F   UNL     1      -5.496  12.717  70.101  1.00  0.00    -0.085 F  
HETATM   36  F   UNL     1      -7.465  13.620  69.914  1.00  0.00     0.255 F  
HETATM   37  F   UNL     1      -6.142   6.763  69.364  1.00  0.00    -0.022 F  
HETATM   38  C   UNL     1      -6.371   7.695  68.398  1.00  0.00    -0.041 C  
HETATM   39  C   UNL     1      -7.130   8.892  68.919  1.00  0.00    -0.066 A  
HETATM   40  F   UNL     1      -6.350  13.066  68.132  1.00  0.00    -0.068 F  
HETATM   41  C   UNL     1      -8.435   8.725  69.420  1.00  0.00    -0.125 A  
ENDBRANCH  25  28
ENDBRANCH   4  25
TORSDOF 5
ENDMDL
MODEL      223
REMARK 921   NORMALIZED FREE ENERGY PREDICTED BY IDOCK:   -0.04 KCAL/MOL
REMARK 922        TOTAL FREE ENERGY PREDICTED BY IDOCK:   -1.69 KCAL/MOL
REMARK 923 INTER-LIGAND FREE ENERGY PREDICTED BY IDOCK:   -6.01 KCAL/MOL
REMARK 924 INTRA-LIGAND FREE ENERGY PREDICTED BY IDOCK:    4.33 KCAL/MOL
REMARK 927      BINDING AFFINITY PREDICTED BY RF-SCORE:    0.00 PKD
ROOT
HETATM    1  C   UNL     1      -8.322   7.508  69.195  1.00  0.00    -0.135 C  
HETATM    2  N   UNL     1      -8.033   8.419  68.076  1.00  0.00    -0.117 N  
HETATM    3  O   UNL     1      -8.918   6.879  66.677  1.00  0.00    -0.133 OA 
HETATM    4  C   UNL     1      -8.540   8.053  66.830  1.00  0.00    -0.130 C  
ENDROOT
BRANCH   2   5
HETATM    5  C   UNL     1      -7.690   9.726  68.473  1.00  0.00    -0.081 A  
HETATM    6  C   UNL     1      -7.121  11.517  69.923  1.00  0.00     0.301 A  
HETATM    7  C   UNL     1      -7.582  10.676  67.444  1.00  0.00    -0.095 A  
HETATM    8  C   UNL     1      -7.472  10.141  69.800  1.00  0.00    -0.166 A  
HETATM    9  C   UNL     1      -6.904  12.376  68.836  1.00  0.00    -0.099 A  
HETATM   10  N   UNL     1      -7.183  11.951  67.597  1.00  0.00    -0.103 NA 
BRANCH   9  11
HETATM   11  N   UNL     1      -6.375  13.642  68.989  1.00  0.00    -0.096 NA 
HETATM   12  C   UNL     1      -6.972  14.580  69.957  1.00  0.00    -0.019 C  
HETATM   13  C   UNL     1      -5.829  15.559  67.489  1.00  0.00    -0.048 C  
HETATM   14  C   UNL     1      -7.320  15.950  69.321  1.00  0.00    -0.221 C  
HETATM   15  N   UNL     1      -6.268  16.562  68.479  1.00  0.00    -0.127 NA 
HETATM   16  C   UNL     1      -5.149  17.054  69.280  1.00  0.00    -0.133 C  
HETATM   17  C   UNL     1      -5.371  14.202  68.077  1.00  0.00    -0.109 C  
ENDBRANCH   9  11
BRANCH   8  18
HETATM   18  C   UNL     1      -7.439   9.287  71.062  1.00  0.00    -0.091 A  
HETATM   19  C   UNL     1      -5.949   8.127  72.697  1.00  0.00    -0.059 A  
HETATM   20  C   UNL     1      -7.034   7.674  73.418  1.00  0.00    -0.096 A  
HETATM   21  C   UNL     1      -6.155   8.890  71.540  1.00  0.00    -0.063 A  
HETATM   22  C   UNL     1      -8.308   8.011  72.987  1.00  0.00    -0.243 A  
HETATM   23  C   UNL     1      -8.529   8.834  71.848  1.00  0.00    -0.151 A  
HETATM   24  C   UNL     1      -9.976   9.132  71.592  1.00  0.00    -0.319 C  
ENDBRANCH   8  18
ENDBRANCH   2   5
BRANCH   4  25
HETATM   25  C   UNL     1      -8.738   9.041  65.610  1.00  0.00    -0.205 C  
HETATM   26  C   UNL     1      -9.259   8.107  64.486  1.00  0.00     1.010 C  
HETATM   27  C   UNL     1      -7.557   9.816  65.015  1.00  0.00    -0.127 C  
BRANCH  25  28
HETATM   28  C   UNL     1      -9.779  10.130  65.991  1.00  0.00    -0.285 A  
HETATM   29  C   UNL     1     -11.240  11.987  65.316  1.00  0.00    -0.374 A  
HETATM   30  C   UNL     1     -10.297  10.994  65.009  1.00  0.00    -0.360 A  
HETATM   31  F   UNL     1     -12.614  12.355  69.254  1.00  0.00    -0.081 F  
HETATM   32  C   UNL     1     -11.737  12.937  64.252  1.00  0.00    -0.386 C  
HETATM   33  F   UNL     1     -10.738  11.506  69.952  1.00  0.00    -0.142 F  
HETATM   34  C   UNL     1     -11.706  12.096  66.634  1.00  0.00    -0.385 A  
HETATM   35  F   UNL     1     -13.086  12.873  64.085  1.00  0.00    -0.219 F  
HETATM   36  F   UNL     1     -11.199  12.705  63.021  1.00  0.00    -0.481 F  
HETATM   37  F   UNL     1     -12.401  10.200  69.451  1.00  0.00    -0.110 F  
HETATM   38  C   UNL     1     -11.745  11.325  69.054  1.00  0.00    -0.342 C  
HETATM   39  C   UNL     1     -11.241  11.228  67.632  1.00  0.00    -0.357 A  
HETATM   40  F   UNL     1     -11.456  14.237  64.542  1.00  0.00    -0.353 F  
HETATM   41  C   UNL     1     -10.286  10.250  67.297  1.00  0.00    -0.284 A  
ENDBRANCH  25  28
ENDBRANCH   4  25
TORSDOF 5
ENDMDL
MODEL      224
REMARK 921   NORMALIZED FREE ENERGY PREDICTED BY IDOCK:   -0.01 KCAL/MOL
REMARK 922        TOTAL FREE ENERGY PREDICTED BY IDOCK:   -1.65 KCAL/MOL
REMARK 923 INTER-LIGAND FREE ENERGY PREDICTED BY IDOCK:   -6.71 KCAL/MOL
REMARK 924 INTRA-LIGAND FREE ENERGY PREDICTED BY IDOCK:    5.05 KCAL/MOL
REMARK 927      BINDING AFFINITY PREDICTED BY RF-SCORE:    0.00 PKD
ROOT
HETATM    1  C   UNL     1     -12.104  12.014  68.429  1.00  0.00    -0.027 C  
HETATM    2  N   UNL     1     -11.077  11.032  68.815  1.00  0.00    -0.217 N  
HETATM    3  O   UNL     1     -11.790  11.219  70.952  1.00  0.00    -0.280 OA 
HETATM    4  C   UNL     1     -11.119  10.571  70.130  1.00  0.00    -0.298 C  
ENDROOT
BRANCH   2   5
HETATM    5  C   UNL     1     -10.490  10.358  67.726  1.00  0.00    -0.226 A  
HETATM    6  C   UNL     1      -9.465  10.058  65.606  1.00  0.00    -0.278 A  
HETATM    7  C   UNL     1     -10.380   8.963  67.849  1.00  0.00    -0.230 A  
HETATM    8  C   UNL     1     -10.034  10.969  66.543  1.00  0.00    -0.253 A  
HETATM    9  C   UNL     1      -9.270   8.691  65.853  1.00  0.00    -0.202 A  
HETATM   10  N   UNL     1      -9.776   8.146  66.968  1.00  0.00    -0.192 NA 
BRANCH   9  11
HETATM   11  N   UNL     1      -8.540   7.884  65.004  1.00  0.00    -0.053 NA 
HETATM   12  C   UNL     1      -8.143   6.530  65.431  1.00  0.00    -0.129 C  
HETATM   13  C   UNL     1      -6.414   8.084  63.714  1.00  0.00    -0.067 C  
HETATM   14  C   UNL     1      -6.623   6.276  65.270  1.00  0.00    -0.043 C  
HETATM   15  N   UNL     1      -6.030   6.684  63.976  1.00  0.00    -0.034 NA 
HETATM   16  C   UNL     1      -6.441   5.800  62.888  1.00  0.00    -0.028 C  
HETATM   17  C   UNL     1      -7.934   8.376  63.762  1.00  0.00    -0.159 C  
ENDBRANCH   9  11
BRANCH   8  18
HETATM   18  C   UNL     1      -9.960  12.456  66.218  1.00  0.00    -0.259 A  
HETATM   19  C   UNL     1      -9.139  14.676  67.015  1.00  0.00    -0.254 A  
HETATM   20  C   UNL     1      -9.653  15.306  65.901  1.00  0.00    -0.377 A  
HETATM   21  C   UNL     1      -9.313  13.295  67.173  1.00  0.00    -0.240 A  
HETATM   22  C   UNL     1     -10.312  14.543  64.949  1.00  0.00    -0.401 A  
HETATM   23  C   UNL     1     -10.444  13.132  65.069  1.00  0.00    -0.358 A  
HETATM   24  C   UNL     1     -11.132  12.490  63.901  1.00  0.00    -0.476 C  
ENDBRANCH   8  18
ENDBRANCH   2   5
BRANCH   4  25
HETATM   25  C   UNL     1     -10.434   9.241  70.644  1.00  0.00    -0.325 C  
HETATM   26  C   UNL     1     -11.397   8.135  70.137  1.00  0.00    -0.071 C  
HETATM   27  C   UNL     1     -10.225   8.981  72.140  1.00  0.00    -0.155 C  
BRANCH  25  28
HETATM   28  C   UNL     1      -9.018   9.113  70.015  1.00  0.00    -0.201 A  
HETATM   29  C   UNL     1      -7.051   7.734  69.497  1.00  0.00    -0.063 A  
HETATM   30  C   UNL     1      -8.329   7.887  70.057  1.00  0.00    -0.121 A  
HETATM   31  F   UNL     1      -5.253  10.996  67.584  1.00  0.00    -0.039 F  
HETATM   32  C   UNL     1      -6.312   6.422  69.606  1.00  0.00    -0.038 C  
HETATM   33  F   UNL     1      -6.418  12.332  68.841  1.00  0.00    -0.066 F  
HETATM   34  C   UNL     1      -6.460   8.827  68.846  1.00  0.00    -0.049 A  
HETATM   35  F   UNL     1      -6.001   5.896  68.390  1.00  0.00    -0.016 F  
HETATM   36  F   UNL     1      -7.014   5.454  70.261  1.00  0.00    -0.051 F  
HETATM   37  F   UNL     1      -7.236  11.625  66.956  1.00  0.00    -0.116 F  
HETATM   38  C   UNL     1      -6.513  11.235  68.041  1.00  0.00    -0.057 C  
HETATM   39  C   UNL     1      -7.132  10.054  68.752  1.00  0.00    -0.071 A  
HETATM   40  F   UNL     1      -5.132   6.542  70.275  1.00  0.00    -0.012 F  
HETATM   41  C   UNL     1      -8.407  10.181  69.333  1.00  0.00    -0.174 A  
ENDBRANCH  25  28
ENDBRANCH   4  25
TORSDOF 5
ENDMDL
MODEL      225
REMARK 921   NORMALIZED FREE ENERGY PREDICTED BY IDOCK:    0.01 KCAL/MOL
REMARK 922        TOTAL FREE ENERGY PREDICTED BY IDOCK:   -1.63 KCAL/MOL
REMARK 923 INTER-LIGAND FREE ENERGY PREDICTED BY IDOCK:   -1.21 KCAL/MOL
REMARK 924 INTRA-LIGAND FREE ENERGY PREDICTED BY IDOCK:   -0.41 KCAL/MOL
REMARK 927      BINDING AFFINITY PREDICTED BY RF-SCORE:    0.00 PKD
ROOT
HETATM    1  C   UNL     1      -8.688  13.100  64.868  1.00  0.00     2.683 C  
HETATM    2  N   UNL     1      -8.332  12.406  66.116  1.00  0.00     0.343 N  
HETATM    3  O   UNL     1      -7.832  14.418  67.019  1.00  0.00    -0.135 OA 
HETATM    4  C   UNL     1      -8.059  13.212  67.220  1.00  0.00    -0.146 C  
ENDROOT
BRANCH   2   5
HETATM    5  C   UNL     1      -8.745  11.060  66.163  1.00  0.00    -0.184 A  
HETATM    6  C   UNL     1     -10.137   9.164  65.843  1.00  0.00    -0.118 A  
HETATM    7  C   UNL     1      -7.844  10.157  66.750  1.00  0.00    -0.108 A  
HETATM    8  C   UNL     1      -9.978  10.572  65.690  1.00  0.00    -0.332 A  
HETATM    9  C   UNL     1      -9.137   8.304  66.322  1.00  0.00    -0.188 A  
HETATM   10  N   UNL     1      -8.006   8.824  66.816  1.00  0.00    -0.097 NA 
BRANCH   9  11
HETATM   11  N   UNL     1      -9.258   6.930  66.271  1.00  0.00    -0.149 NA 
HETATM   12  C   UNL     1     -10.365   6.259  66.975  1.00  0.00    -0.240 C  
HETATM   13  C   UNL     1      -7.786   4.974  66.752  1.00  0.00    -0.100 C  
HETATM   14  C   UNL     1      -9.876   5.125  67.910  1.00  0.00    -0.155 C  
HETATM   15  N   UNL     1      -8.890   4.185  67.331  1.00  0.00    -0.111 NA 
HETATM   16  C   UNL     1      -9.500   3.302  66.339  1.00  0.00    -0.082 C  
HETATM   17  C   UNL     1      -8.209   6.058  65.730  1.00  0.00    -0.136 C  
ENDBRANCH   9  11
BRANCH   8  18
HETATM   18  C   UNL     1     -11.066  11.329  64.938  1.00  0.00    -0.183 A  
HETATM   19  C   UNL     1     -12.185  11.620  62.724  1.00  0.00     0.601 A  
HETATM   20  C   UNL     1     -13.028  12.583  63.237  1.00  0.00     0.086 A  
HETATM   21  C   UNL     1     -11.219  11.033  63.550  1.00  0.00     0.236 A  
HETATM   22  C   UNL     1     -12.910  12.928  64.575  1.00  0.00    -0.273 A  
HETATM   23  C   UNL     1     -11.973  12.297  65.439  1.00  0.00    -0.395 A  
HETATM   24  C   UNL     1     -12.052  12.768  66.861  1.00  0.00    -0.267 C  
ENDBRANCH   8  18
ENDBRANCH   2   5
BRANCH   4  25
HETATM   25  C   UNL     1      -8.085  12.723  68.724  1.00  0.00     0.090 C  
HETATM   26  C   UNL     1      -7.132  13.723  69.432  1.00  0.00     0.052 C  
HETATM   27  C   UNL     1      -7.605  11.320  69.112  1.00  0.00    -0.070 C  
BRANCH  25  28
HETATM   28  C   UNL     1      -9.536  12.814  69.273  1.00  0.00     0.788 A  
HETATM   29  C   UNL     1     -11.545  11.693  70.136  1.00  0.00    -0.303 A  
HETATM   30  C   UNL     1     -10.235  11.648  69.635  1.00  0.00     0.574 A  
HETATM   31  F   UNL     1     -13.416  15.405  70.639  1.00  0.00    -0.439 F  
HETATM   32  C   UNL     1     -12.291  10.421  70.464  1.00  0.00    -0.322 C  
HETATM   33  F   UNL     1     -12.165  16.212  69.056  1.00  0.00    -0.320 F  
HETATM   34  C   UNL     1     -12.161  12.940  70.315  1.00  0.00    -0.362 A  
HETATM   35  F   UNL     1     -12.678  10.365  71.768  1.00  0.00    -0.445 F  
HETATM   36  F   UNL     1     -11.562   9.290  70.244  1.00  0.00    -0.272 F  
HETATM   37  F   UNL     1     -11.466  16.240  71.113  1.00  0.00    -0.399 F  
HETATM   38  C   UNL     1     -12.129  15.477  70.201  1.00  0.00    -0.378 C  
HETATM   39  C   UNL     1     -11.483  14.126  70.000  1.00  0.00    -0.258 A  
HETATM   40  F   UNL     1     -13.428  10.281  69.729  1.00  0.00     0.007 F  
HETATM   41  C   UNL     1     -10.174  14.049  69.488  1.00  0.00     0.294 A  
ENDBRANCH  25  28
ENDBRANCH   4  25
TORSDOF 5
ENDMDL
MODEL      226
REMARK 921   NORMALIZED FREE ENERGY PREDICTED BY IDOCK:    0.05 KCAL/MOL
REMARK 922        TOTAL FREE ENERGY PREDICTED BY IDOCK:   -1.57 KCAL/MOL
REMARK 923 INTER-LIGAND FREE ENERGY PREDICTED BY IDOCK:    0.45 KCAL/MOL
REMARK 924 INTRA-LIGAND FREE ENERGY PREDICTED BY IDOCK:   -2.02 KCAL/MOL
REMARK 927      BINDING AFFINITY PREDICTED BY RF-SCORE:    0.00 PKD
ROOT
HETATM    1  C   UNL     1     -11.422   8.199  72.789  1.00  0.00    -0.329 C  
HETATM    2  N   UNL     1     -10.696   7.877  71.550  1.00  0.00    -0.224 N  
HETATM    3  O   UNL     1     -11.986   6.031  71.349  1.00  0.00    -0.133 OA 
HETATM    4  C   UNL     1     -11.190   6.812  70.799  1.00  0.00    -0.304 C  
ENDROOT
BRANCH   2   5
HETATM    5  C   UNL     1      -9.902   8.932  71.058  1.00  0.00    -0.253 A  
HETATM    6  C   UNL     1      -7.959  10.236  70.664  1.00  0.00     0.913 A  
HETATM    7  C   UNL     1     -10.569   9.902  70.292  1.00  0.00    -0.301 A  
HETATM    8  C   UNL     1      -8.523   9.089  71.292  1.00  0.00    -0.196 A  
HETATM    9  C   UNL     1      -8.663  11.092  69.803  1.00  0.00     0.781 A  
HETATM   10  N   UNL     1      -9.986  10.937  69.662  1.00  0.00     0.014 NA 
BRANCH   9  11
HETATM   11  N   UNL     1      -8.037  12.073  69.062  1.00  0.00     0.114 NA 
HETATM   12  C   UNL     1      -6.646  12.453  69.365  1.00  0.00    -0.072 C  
HETATM   13  C   UNL     1      -8.527  14.433  68.419  1.00  0.00    -0.165 C  
HETATM   14  C   UNL     1      -6.477  13.980  69.570  1.00  0.00    -0.122 C  
HETATM   15  N   UNL     1      -7.117  14.847  68.555  1.00  0.00    -0.103 NA 
HETATM   16  C   UNL     1      -6.414  14.794  67.275  1.00  0.00     0.262 C  
HETATM   17  C   UNL     1      -8.752  12.932  68.112  1.00  0.00    -0.190 C  
ENDBRANCH   9  11
BRANCH   8  18
HETATM   18  C   UNL     1      -7.573   8.132  72.004  1.00  0.00    -0.129 A  
HETATM   19  C   UNL     1      -7.386   6.414  73.807  1.00  0.00    -0.085 A  
HETATM   20  C   UNL     1      -6.044   6.234  73.545  1.00  0.00    -0.063 A  
HETATM   21  C   UNL     1      -8.117   7.355  73.070  1.00  0.00    -0.128 A  
HETATM   22  C   UNL     1      -5.457   6.978  72.534  1.00  0.00    -0.038 A  
HETATM   23  C   UNL     1      -6.200   7.894  71.739  1.00  0.00    -0.040 A  
HETATM   24  C   UNL     1      -5.392   8.548  70.658  1.00  0.00    -0.028 C  
ENDBRANCH   8  18
ENDBRANCH   2   5
BRANCH   4  25
HETATM   25  C   UNL     1     -10.871   6.560  69.270  1.00  0.00    -0.361 C  
HETATM   26  C   UNL     1     -11.386   7.855  68.588  1.00  0.00     0.680 C  
HETATM   27  C   UNL     1     -11.503   5.389  68.509  1.00  0.00     1.781 C  
BRANCH  25  28
HETATM   28  C   UNL     1      -9.338   6.375  69.085  1.00  0.00    -0.132 A  
HETATM   29  C   UNL     1      -7.270   5.176  69.651  1.00  0.00    -0.056 A  
HETATM   30  C   UNL     1      -8.652   5.373  69.796  1.00  0.00    -0.100 A  
HETATM   31  F   UNL     1      -5.127   7.587  66.981  1.00  0.00    -0.016 F  
HETATM   32  C   UNL     1      -6.549   4.130  70.469  1.00  0.00    -0.032 C  
HETATM   33  F   UNL     1      -6.609   9.153  67.258  1.00  0.00    -0.061 F  
HETATM   34  C   UNL     1      -6.560   5.978  68.746  1.00  0.00    -0.055 A  
HETATM   35  F   UNL     1      -5.924   3.202  69.693  1.00  0.00    -0.020 F  
HETATM   36  F   UNL     1      -7.370   3.428  71.300  1.00  0.00    -0.032 F  
HETATM   37  F   UNL     1      -6.900   7.641  65.724  1.00  0.00    -0.050 F  
HETATM   38  C   UNL     1      -6.468   7.823  67.003  1.00  0.00    -0.055 C  
HETATM   39  C   UNL     1      -7.217   6.961  67.992  1.00  0.00    -0.091 A  
HETATM   40  F   UNL     1      -5.583   4.665  71.264  1.00  0.00    -0.009 F  
HETATM   41  C   UNL     1      -8.601   7.144  68.167  1.00  0.00    -0.129 A  
ENDBRANCH  25  28
ENDBRANCH   4  25
TORSDOF 5
ENDMDL
MODEL      227
REMARK 921   NORMALIZED FREE ENERGY PREDICTED BY IDOCK:    0.09 KCAL/MOL
REMARK 922        TOTAL FREE ENERGY PREDICTED BY IDOCK:   -1.53 KCAL/MOL
REMARK 923 INTER-LIGAND FREE ENERGY PREDICTED BY IDOCK:   -4.27 KCAL/MOL
REMARK 924 INTRA-LIGAND FREE ENERGY PREDICTED BY IDOCK:    2.75 KCAL/MOL
REMARK 927      BINDING AFFINITY PREDICTED BY RF-SCORE:    0.00 PKD
ROOT
HETATM    1  C   UNL     1      -9.203  11.035  65.464  1.00  0.00    -0.213 C  
HETATM    2  N   UNL     1      -8.474   9.782  65.718  1.00  0.00    -0.130 N  
HETATM    3  O   UNL     1      -8.168   9.582  63.486  1.00  0.00    -0.142 OA 
HETATM    4  C   UNL     1      -7.837   9.200  64.622  1.00  0.00    -0.118 C  
ENDROOT
BRANCH   2   5
HETATM    5  C   UNL     1      -8.134   9.579  67.070  1.00  0.00    -0.113 A  
HETATM    6  C   UNL     1      -7.485  10.114  69.289  1.00  0.00    -0.111 A  
HETATM    7  C   UNL     1      -8.158   8.248  67.519  1.00  0.00    -0.122 A  
HETATM    8  C   UNL     1      -7.762  10.590  67.975  1.00  0.00    -0.092 A  
HETATM    9  C   UNL     1      -7.657   8.783  69.699  1.00  0.00    -0.076 A  
HETATM   10  N   UNL     1      -7.953   7.848  68.787  1.00  0.00    -0.122 NA 
BRANCH   9  11
HETATM   11  N   UNL     1      -7.568   8.401  71.022  1.00  0.00    -0.076 NA 
HETATM   12  C   UNL     1      -6.530   8.982  71.891  1.00  0.00    -0.002 C  
HETATM   13  C   UNL     1      -7.381   6.246  72.265  1.00  0.00    -0.092 C  
HETATM   14  C   UNL     1      -5.690   7.903  72.620  1.00  0.00    -0.041 C  
HETATM   15  N   UNL     1      -6.453   6.811  73.264  1.00  0.00    -0.063 NA 
HETATM   16  C   UNL     1      -7.162   7.272  74.456  1.00  0.00    -0.110 C  
HETATM   17  C   UNL     1      -8.318   7.267  71.576  1.00  0.00    -0.109 C  
ENDBRANCH   9  11
BRANCH   8  18
HETATM   18  C   UNL     1      -7.753  12.098  67.752  1.00  0.00    -0.139 A  
HETATM   19  C   UNL     1      -9.185  14.132  67.532  1.00  0.00    -0.192 A  
HETATM   20  C   UNL     1      -8.079  14.934  67.348  1.00  0.00    -0.218 A  
HETATM   21  C   UNL     1      -9.020  12.752  67.703  1.00  0.00    -0.191 A  
HETATM   22  C   UNL     1      -6.822  14.350  67.365  1.00  0.00    -0.052 A  
HETATM   23  C   UNL     1      -6.637  12.959  67.597  1.00  0.00    -0.155 A  
HETATM   24  C   UNL     1      -5.197  12.541  67.639  1.00  0.00    -0.107 C  
ENDBRANCH   8  18
ENDBRANCH   2   5
BRANCH   4  25
HETATM   25  C   UNL     1      -6.670   8.137  64.715  1.00  0.00    -0.066 C  
HETATM   26  C   UNL     1      -5.913   8.562  66.002  1.00  0.00    -0.048 C  
HETATM   27  C   UNL     1      -5.613   8.018  63.612  1.00  0.00    -0.054 C  
BRANCH  25  28
HETATM   28  C   UNL     1      -7.277   6.712  64.841  1.00  0.00    -0.074 A  
HETATM   29  C   UNL     1      -9.184   5.267  65.400  1.00  0.00    -0.091 A  
HETATM   30  C   UNL     1      -8.603   6.539  65.278  1.00  0.00    -0.036 A  
HETATM   31  F   UNL     1      -6.941   1.885  64.373  1.00  0.00    -0.037 F  
HETATM   32  C   UNL     1     -10.592   5.109  65.926  1.00  0.00    -0.112 C  
HETATM   33  F   UNL     1      -5.127   2.986  64.844  1.00  0.00    -0.007 F  
HETATM   34  C   UNL     1      -8.432   4.139  65.042  1.00  0.00    -0.115 A  
HETATM   35  F   UNL     1     -11.414   4.488  65.035  1.00  0.00    -0.342 F  
HETATM   36  F   UNL     1     -11.197   6.292  66.227  1.00  0.00    -0.229 F  
HETATM   37  F   UNL     1      -5.969   3.086  62.843  1.00  0.00    -0.011 F  
HETATM   38  C   UNL     1      -6.303   3.069  64.164  1.00  0.00    -0.023 C  
HETATM   39  C   UNL     1      -7.120   4.275  64.567  1.00  0.00    -0.051 A  
HETATM   40  F   UNL     1     -10.642   4.364  67.064  1.00  0.00    -0.149 F  
HETATM   41  C   UNL     1      -6.559   5.561  64.466  1.00  0.00    -0.042 A  
ENDBRANCH  25  28
ENDBRANCH   4  25
TORSDOF 5
ENDMDL
MODEL      228
REMARK 921   NORMALIZED FREE ENERGY PREDICTED BY IDOCK:    0.10 KCAL/MOL
REMARK 922        TOTAL FREE ENERGY PREDICTED BY IDOCK:   -1.51 KCAL/MOL
REMARK 923 INTER-LIGAND FREE ENERGY PREDICTED BY IDOCK:   -4.59 KCAL/MOL
REMARK 924 INTRA-LIGAND FREE ENERGY PREDICTED BY IDOCK:    3.09 KCAL/MOL
REMARK 927      BINDING AFFINITY PREDICTED BY RF-SCORE:    0.00 PKD
ROOT
HETATM    1  C   UNL     1     -10.778   5.319  65.445  1.00  0.00     0.504 C  
HETATM    2  N   UNL     1      -9.666   5.992  66.136  1.00  0.00    -0.077 N  
HETATM    3  O   UNL     1      -8.238   4.639  65.021  1.00  0.00    -0.108 OA 
HETATM    4  C   UNL     1      -8.380   5.665  65.709  1.00  0.00    -0.132 C  
ENDROOT
BRANCH   2   5
HETATM    5  C   UNL     1     -10.036   7.179  66.799  1.00  0.00    -0.208 A  
HETATM    6  C   UNL     1     -10.684   8.602  68.584  1.00  0.00    -0.092 A  
HETATM    7  C   UNL     1     -10.095   8.337  66.006  1.00  0.00     0.312 A  
HETATM    8  C   UNL     1     -10.361   7.279  68.164  1.00  0.00    -0.234 A  
HETATM    9  C   UNL     1     -10.595   9.735  67.761  1.00  0.00    -0.266 A  
HETATM   10  N   UNL     1     -10.341   9.580  66.455  1.00  0.00    -0.224 NA 
BRANCH   9  11
HETATM   11  N   UNL     1     -10.724  11.018  68.254  1.00  0.00    -0.182 NA 
HETATM   12  C   UNL     1     -11.281  11.240  69.600  1.00  0.00    -0.251 C  
HETATM   13  C   UNL     1     -11.777  13.145  67.485  1.00  0.00    -0.366 C  
HETATM   14  C   UNL     1     -12.453  12.253  69.601  1.00  0.00     0.179 C  
HETATM   15  N   UNL     1     -12.231  13.504  68.842  1.00  0.00    -0.260 NA 
HETATM   16  C   UNL     1     -11.278  14.385  69.514  1.00  0.00    -0.254 C  
HETATM   17  C   UNL     1     -10.542  12.213  67.422  1.00  0.00    -0.226 C  
ENDBRANCH   9  11
BRANCH   8  18
HETATM   18  C   UNL     1     -10.280   6.198  69.235  1.00  0.00    -0.251 A  
HETATM   19  C   UNL     1      -9.572   3.849  69.707  1.00  0.00    -0.271 A  
HETATM   20  C   UNL     1      -9.989   3.950  71.017  1.00  0.00    -0.149 A  
HETATM   21  C   UNL     1      -9.739   4.937  68.840  1.00  0.00    -0.242 A  
HETATM   22  C   UNL     1     -10.543   5.144  71.450  1.00  0.00    -0.207 A  
HETATM   23  C   UNL     1     -10.664   6.276  70.598  1.00  0.00    -0.321 A  
HETATM   24  C   UNL     1     -11.228   7.487  71.279  1.00  0.00    -0.274 C  
ENDBRANCH   8  18
ENDBRANCH   2   5
BRANCH   4  25
HETATM   25  C   UNL     1      -7.090   6.541  65.975  1.00  0.00    -0.063 C  
HETATM   26  C   UNL     1      -7.364   7.825  65.148  1.00  0.00    -0.071 C  
HETATM   27  C   UNL     1      -5.697   6.051  65.562  1.00  0.00    -0.024 C  
BRANCH  25  28
HETATM   28  C   UNL     1      -6.973   6.842  67.495  1.00  0.00    -0.083 A  
HETATM   29  C   UNL     1      -6.912   6.029  69.813  1.00  0.00    -0.067 A  
HETATM   30  C   UNL     1      -7.018   5.795  68.434  1.00  0.00    -0.068 A  
HETATM   31  F   UNL     1      -6.378   9.948  71.187  1.00  0.00    -0.087 F  
HETATM   32  C   UNL     1      -7.020   4.891  70.801  1.00  0.00    -0.041 C  
HETATM   33  F   UNL     1      -7.385  10.675  69.404  1.00  0.00    -0.084 F  
HETATM   34  C   UNL     1      -6.720   7.342  70.266  1.00  0.00    -0.047 A  
HETATM   35  F   UNL     1      -5.908   4.767  71.576  1.00  0.00    -0.010 F  
HETATM   36  F   UNL     1      -7.201   3.675  70.212  1.00  0.00    -0.039 F  
HETATM   37  F   UNL     1      -5.237  10.347  69.381  1.00  0.00    -0.039 F  
HETATM   38  C   UNL     1      -6.412   9.825  69.831  1.00  0.00    -0.062 C  
HETATM   39  C   UNL     1      -6.632   8.407  69.359  1.00  0.00    -0.041 A  
HETATM   40  F   UNL     1      -8.062   5.046  71.662  1.00  0.00    -0.102 F  
HETATM   41  C   UNL     1      -6.754   8.143  67.982  1.00  0.00    -0.065 A  
ENDBRANCH  25  28
ENDBRANCH   4  25
TORSDOF 5
ENDMDL
MODEL      229
REMARK 921   NORMALIZED FREE ENERGY PREDICTED BY IDOCK:    0.11 KCAL/MOL
REMARK 922        TOTAL FREE ENERGY PREDICTED BY IDOCK:   -1.50 KCAL/MOL
REMARK 923 INTER-LIGAND FREE ENERGY PREDICTED BY IDOCK:   -2.46 KCAL/MOL
REMARK 924 INTRA-LIGAND FREE ENERGY PREDICTED BY IDOCK:    0.95 KCAL/MOL
REMARK 927      BINDING AFFINITY PREDICTED BY RF-SCORE:    0.00 PKD
ROOT
HETATM    1  C   UNL     1     -11.441  17.607  65.115  1.00  0.00     1.511 C  
HETATM    2  N   UNL     1     -10.344  17.793  66.079  1.00  0.00    -0.355 N  
HETATM    3  O   UNL     1     -11.295  19.753  66.686  1.00  0.00    -0.069 OA 
HETATM    4  C   UNL     1     -10.465  18.868  66.958  1.00  0.00    -0.428 C  
ENDROOT
BRANCH   2   5
HETATM    5  C   UNL     1      -9.565  16.639  66.292  1.00  0.00    -0.299 A  
HETATM    6  C   UNL     1      -7.621  15.295  66.505  1.00  0.00     0.580 A  
HETATM    7  C   UNL     1     -10.273  15.458  66.565  1.00  0.00    -0.280 A  
HETATM    8  C   UNL     1      -8.160  16.585  66.233  1.00  0.00    -0.341 A  
HETATM    9  C   UNL     1      -8.386  14.187  66.900  1.00  0.00    -0.034 A  
HETATM   10  N   UNL     1      -9.723  14.272  66.882  1.00  0.00    -0.255 NA 
BRANCH   9  11
HETATM   11  N   UNL     1      -7.812  13.013  67.344  1.00  0.00    -0.173 NA 
HETATM   12  C   UNL     1      -6.345  12.882  67.398  1.00  0.00    -0.113 C  
HETATM   13  C   UNL     1      -7.993  10.591  66.774  1.00  0.00    -0.121 C  
HETATM   14  C   UNL     1      -5.833  11.618  66.663  1.00  0.00    -0.108 C  
HETATM   15  N   UNL     1      -6.548  10.357  66.963  1.00  0.00    -0.073 NA 
HETATM   16  C   UNL     1      -6.253   9.872  68.309  1.00  0.00    -0.050 C  
HETATM   17  C   UNL     1      -8.582  11.784  67.566  1.00  0.00    -0.157 C  
ENDBRANCH   9  11
BRANCH   8  18
HETATM   18  C   UNL     1      -7.179  17.737  66.049  1.00  0.00    -0.322 A  
HETATM   19  C   UNL     1      -6.762  19.883  64.841  1.00  0.00    -0.201 A  
HETATM   20  C   UNL     1      -5.547  20.044  65.473  1.00  0.00    -0.196 A  
HETATM   21  C   UNL     1      -7.538  18.748  65.108  1.00  0.00     1.068 A  
HETATM   22  C   UNL     1      -5.137  19.081  66.383  1.00  0.00    -0.152 A  
HETATM   23  C   UNL     1      -5.942  17.955  66.707  1.00  0.00    -0.187 A  
HETATM   24  C   UNL     1      -5.344  17.070  67.761  1.00  0.00    -0.129 C  
ENDBRANCH   8  18
ENDBRANCH   2   5
BRANCH   4  25
HETATM   25  C   UNL     1      -9.673  19.014  68.320  1.00  0.00    -0.419 C  
HETATM   26  C   UNL     1     -10.571  19.974  69.145  1.00  0.00     0.216 C  
HETATM   27  C   UNL     1      -8.260  19.605  68.358  1.00  0.00    -0.350 C  
BRANCH  25  28
HETATM   28  C   UNL     1      -9.540  17.619  68.993  1.00  0.00    -0.140 A  
HETATM   29  C   UNL     1     -10.602  15.584  69.870  1.00  0.00    -0.322 A  
HETATM   30  C   UNL     1     -10.685  16.849  69.267  1.00  0.00    -0.288 A  
HETATM   31  F   UNL     1      -6.839  14.016  70.825  1.00  0.00     0.044 F  
HETATM   32  C   UNL     1     -11.852  14.804  70.204  1.00  0.00    -0.307 C  
HETATM   33  F   UNL     1      -6.075  16.044  70.996  1.00  0.00     0.117 F  
HETATM   34  C   UNL     1      -9.338  15.059  70.175  1.00  0.00     0.468 A  
HETATM   35  F   UNL     1     -11.890  13.591  69.587  1.00  0.00    -0.311 F  
HETATM   36  F   UNL     1     -13.003  15.440  69.844  1.00  0.00    -0.256 F  
HETATM   37  F   UNL     1      -6.053  15.034  69.072  1.00  0.00    -0.093 F  
HETATM   38  C   UNL     1      -6.804  15.222  70.193  1.00  0.00    -0.006 C  
HETATM   39  C   UNL     1      -8.173  15.781  69.882  1.00  0.00     0.334 A  
HETATM   40  F   UNL     1     -11.967  14.551  71.536  1.00  0.00    -0.365 F  
HETATM   41  C   UNL     1      -8.287  17.052  69.288  1.00  0.00     0.107 A  
ENDBRANCH  25  28
ENDBRANCH   4  25
TORSDOF 5
ENDMDL
MODEL      230
REMARK 921   NORMALIZED FREE ENERGY PREDICTED BY IDOCK:    0.11 KCAL/MOL
REMARK 922        TOTAL FREE ENERGY PREDICTED BY IDOCK:   -1.50 KCAL/MOL
REMARK 923 INTER-LIGAND FREE ENERGY PREDICTED BY IDOCK:   -6.22 KCAL/MOL
REMARK 924 INTRA-LIGAND FREE ENERGY PREDICTED BY IDOCK:    4.72 KCAL/MOL
REMARK 927      BINDING AFFINITY PREDICTED BY RF-SCORE:    0.00 PKD
ROOT
HETATM    1  C   UNL     1      -8.630   5.025  71.424  1.00  0.00    -0.126 C  
HETATM    2  N   UNL     1      -9.331   6.264  71.049  1.00  0.00    -0.160 N  
HETATM    3  O   UNL     1     -11.189   5.438  72.038  1.00  0.00    -0.196 OA 
HETATM    4  C   UNL     1     -10.614   6.435  71.568  1.00  0.00    -0.231 C  
ENDROOT
BRANCH   2   5
HETATM    5  C   UNL     1      -8.479   7.295  70.606  1.00  0.00    -0.140 A  
HETATM    6  C   UNL     1      -6.731   8.349  69.395  1.00  0.00    -0.045 A  
HETATM    7  C   UNL     1      -8.705   8.564  71.162  1.00  0.00    -0.174 A  
HETATM    8  C   UNL     1      -7.429   7.140  69.682  1.00  0.00    -0.098 A  
HETATM    9  C   UNL     1      -7.098   9.609  69.892  1.00  0.00    -0.095 A  
HETATM   10  N   UNL     1      -8.064   9.695  70.815  1.00  0.00    -0.277 NA 
BRANCH   9  11
HETATM   11  N   UNL     1      -6.522  10.778  69.437  1.00  0.00    -0.065 NA 
HETATM   12  C   UNL     1      -5.551  11.500  70.279  1.00  0.00    -0.135 C  
HETATM   13  C   UNL     1      -7.339  12.956  68.536  1.00  0.00    -0.115 C  
HETATM   14  C   UNL     1      -5.918  12.994  70.464  1.00  0.00    -0.084 C  
HETATM   15  N   UNL     1      -6.292  13.728  69.234  1.00  0.00    -0.104 NA 
HETATM   16  C   UNL     1      -5.136  13.967  68.372  1.00  0.00    -0.103 C  
HETATM   17  C   UNL     1      -6.986  11.479  68.235  1.00  0.00    -0.073 C  
ENDBRANCH   9  11
BRANCH   8  18
HETATM   18  C   UNL     1      -7.053   5.898  68.882  1.00  0.00    -0.073 A  
HETATM   19  C   UNL     1      -7.396   4.685  66.726  1.00  0.00    -0.081 A  
HETATM   20  C   UNL     1      -6.550   3.670  67.121  1.00  0.00    -0.042 A  
HETATM   21  C   UNL     1      -7.655   5.752  67.596  1.00  0.00    -0.089 A  
HETATM   22  C   UNL     1      -5.954   3.749  68.370  1.00  0.00    -0.027 A  
HETATM   23  C   UNL     1      -6.161   4.856  69.239  1.00  0.00    -0.025 A  
HETATM   24  C   UNL     1      -5.373   4.777  70.513  1.00  0.00    -0.004 C  
ENDBRANCH   8  18
ENDBRANCH   2   5
BRANCH   4  25
HETATM   25  C   UNL     1     -11.369   7.821  71.672  1.00  0.00    -0.291 C  
HETATM   26  C   UNL     1     -10.634   8.532  72.839  1.00  0.00     0.098 C  
HETATM   27  C   UNL     1     -12.865   7.889  71.997  1.00  0.00    -0.287 C  
BRANCH  25  28
HETATM   28  C   UNL     1     -11.217   8.594  70.331  1.00  0.00    -0.236 A  
HETATM   29  C   UNL     1     -11.378  10.699  69.074  1.00  0.00    -0.340 A  
HETATM   30  C   UNL     1     -11.507   9.969  70.266  1.00  0.00    -0.372 A  
HETATM   31  F   UNL     1     -10.027   8.754  65.621  1.00  0.00    -0.279 F  
HETATM   32  C   UNL     1     -11.750  12.162  69.020  1.00  0.00    -0.322 C  
HETATM   33  F   UNL     1     -10.818   6.887  66.403  1.00  0.00    -0.252 F  
HETATM   34  C   UNL     1     -10.913  10.045  67.924  1.00  0.00    -0.311 A  
HETATM   35  F   UNL     1     -10.707  12.951  68.644  1.00  0.00    -0.235 F  
HETATM   36  F   UNL     1     -12.181  12.659  70.214  1.00  0.00    -0.383 F  
HETATM   37  F   UNL     1      -8.794   7.501  66.899  1.00  0.00    -0.121 F  
HETATM   38  C   UNL     1     -10.062   7.969  66.733  1.00  0.00    -0.287 C  
HETATM   39  C   UNL     1     -10.578   8.684  67.960  1.00  0.00    -0.205 A  
HETATM   40  F   UNL     1     -12.749  12.412  68.130  1.00  0.00     0.284 F  
HETATM   41  C   UNL     1     -10.728   7.975  69.167  1.00  0.00    -0.121 A  
ENDBRANCH  25  28
ENDBRANCH   4  25
TORSDOF 5
ENDMDL
MODEL      231
REMARK 921   NORMALIZED FREE ENERGY PREDICTED BY IDOCK:    0.15 KCAL/MOL
REMARK 922        TOTAL FREE ENERGY PREDICTED BY IDOCK:   -1.45 KCAL/MOL
REMARK 923 INTER-LIGAND FREE ENERGY PREDICTED BY IDOCK:   -1.15 KCAL/MOL
REMARK 924 INTRA-LIGAND FREE ENERGY PREDICTED BY IDOCK:   -0.30 KCAL/MOL
REMARK 927      BINDING AFFINITY PREDICTED BY RF-SCORE:    0.00 PKD
ROOT
HETATM    1  C   UNL     1      -8.630  13.244  64.803  1.00  0.00     3.758 C  
HETATM    2  N   UNL     1      -8.435  12.903  66.221  1.00  0.00     0.347 N  
HETATM    3  O   UNL     1      -7.982  15.082  66.618  1.00  0.00    -0.069 OA 
HETATM    4  C   UNL     1      -8.263  13.971  67.100  1.00  0.00    -0.125 C  
ENDROOT
BRANCH   2   5
HETATM    5  C   UNL     1      -8.888  11.615  66.570  1.00  0.00    -0.188 A  
HETATM    6  C   UNL     1     -10.359   9.759  66.728  1.00  0.00    -0.289 A  
HETATM    7  C   UNL     1      -7.983  10.814  67.285  1.00  0.00    -0.117 A  
HETATM    8  C   UNL     1     -10.162  11.096  66.275  1.00  0.00    -0.286 A  
HETATM    9  C   UNL     1      -9.360   8.973  67.323  1.00  0.00    -0.139 A  
HETATM   10  N   UNL     1      -8.184   9.532  67.638  1.00  0.00    -0.120 NA 
BRANCH   9  11
HETATM   11  N   UNL     1      -9.529   7.625  67.567  1.00  0.00    -0.138 NA 
HETATM   12  C   UNL     1      -9.356   7.093  68.930  1.00  0.00    -0.139 C  
HETATM   13  C   UNL     1      -8.615   5.498  66.637  1.00  0.00    -0.116 C  
HETATM   14  C   UNL     1      -8.366   5.902  68.984  1.00  0.00    -0.106 C  
HETATM   15  N   UNL     1      -8.560   4.849  67.962  1.00  0.00    -0.102 NA 
HETATM   16  C   UNL     1      -9.759   4.054  68.221  1.00  0.00    -0.066 C  
HETATM   17  C   UNL     1      -9.660   6.632  66.495  1.00  0.00    -0.140 C  
ENDBRANCH   9  11
BRANCH   8  18
HETATM   18  C   UNL     1     -11.269  11.729  65.440  1.00  0.00    -0.310 A  
HETATM   19  C   UNL     1     -12.421  11.694  63.224  1.00  0.00    -0.262 A  
HETATM   20  C   UNL     1     -13.267  12.712  63.608  1.00  0.00     0.481 A  
HETATM   21  C   UNL     1     -11.437  11.238  64.111  1.00  0.00    -0.029 A  
HETATM   22  C   UNL     1     -13.135  13.243  64.882  1.00  0.00    -0.030 A  
HETATM   23  C   UNL     1     -12.180  12.750  65.812  1.00  0.00    -0.469 A  
HETATM   24  C   UNL     1     -12.246  13.417  67.154  1.00  0.00    -0.306 C  
ENDBRANCH   8  18
ENDBRANCH   2   5
BRANCH   4  25
HETATM   25  C   UNL     1      -8.471  13.895  68.667  1.00  0.00    -0.082 C  
HETATM   26  C   UNL     1      -7.064  14.241  69.222  1.00  0.00    -0.107 C  
HETATM   27  C   UNL     1      -8.896  12.590  69.349  1.00  0.00     1.251 C  
BRANCH  25  28
HETATM   28  C   UNL     1      -9.540  14.938  69.098  1.00  0.00    -0.172 A  
HETATM   29  C   UNL     1     -10.475  17.204  68.926  1.00  0.00    -0.346 A  
HETATM   30  C   UNL     1      -9.523  16.238  68.562  1.00  0.00    -0.219 A  
HETATM   31  F   UNL     1     -13.498  16.177  71.635  1.00  0.00    -0.411 F  
HETATM   32  C   UNL     1     -10.398  18.609  68.378  1.00  0.00    -0.311 C  
HETATM   33  F   UNL     1     -12.179  14.672  72.485  1.00  0.00    -0.385 F  
HETATM   34  C   UNL     1     -11.492  16.850  69.824  1.00  0.00     0.632 A  
HETATM   35  F   UNL     1     -11.520  18.962  67.692  1.00  0.00    -0.256 F  
HETATM   36  F   UNL     1      -9.360  18.801  67.515  1.00  0.00    -0.284 F  
HETATM   37  F   UNL     1     -13.459  14.169  70.802  1.00  0.00    -0.357 F  
HETATM   38  C   UNL     1     -12.663  15.152  71.306  1.00  0.00    -0.369 C  
HETATM   39  C   UNL     1     -11.564  15.552  70.350  1.00  0.00    -0.359 A  
HETATM   40  F   UNL     1     -10.247  19.542  69.357  1.00  0.00    -0.448 F  
HETATM   41  C   UNL     1     -10.589  14.608  69.975  1.00  0.00     0.036 A  
ENDBRANCH  25  28
ENDBRANCH   4  25
TORSDOF 5
ENDMDL
MODEL      232
REMARK 921   NORMALIZED FREE ENERGY PREDICTED BY IDOCK:    0.32 KCAL/MOL
REMARK 922        TOTAL FREE ENERGY PREDICTED BY IDOCK:   -1.22 KCAL/MOL
REMARK 923 INTER-LIGAND FREE ENERGY PREDICTED BY IDOCK:   -6.94 KCAL/MOL
REMARK 924 INTRA-LIGAND FREE ENERGY PREDICTED BY IDOCK:    5.72 KCAL/MOL
REMARK 927      BINDING AFFINITY PREDICTED BY RF-SCORE:    0.00 PKD
ROOT
HETATM    1  C   UNL     1     -10.100  10.843  69.382  1.00  0.00    -0.088 C  
HETATM    2  N   UNL     1     -10.552  12.221  69.131  1.00  0.00    -0.061 N  
HETATM    3  O   UNL     1     -12.389  11.778  70.372  1.00  0.00    -0.321 OA 
HETATM    4  C   UNL     1     -11.677  12.645  69.836  1.00  0.00    -0.250 C  
ENDROOT
BRANCH   2   5
HETATM    5  C   UNL     1      -9.561  13.059  68.581  1.00  0.00    -0.023 A  
HETATM    6  C   UNL     1      -7.827  13.768  67.125  1.00  0.00    -0.030 A  
HETATM    7  C   UNL     1      -9.392  14.306  69.205  1.00  0.00     0.128 A  
HETATM    8  C   UNL     1      -8.735  12.733  67.490  1.00  0.00    -0.185 A  
HETATM    9  C   UNL     1      -7.804  15.042  67.713  1.00  0.00    -0.148 A  
HETATM   10  N   UNL     1      -8.567  15.283  68.788  1.00  0.00    -0.177 NA 
BRANCH   9  11
HETATM   11  N   UNL     1      -7.048  16.078  67.202  1.00  0.00    -0.206 NA 
HETATM   12  C   UNL     1      -5.874  16.571  67.944  1.00  0.00    -0.128 C  
HETATM   13  C   UNL     1      -7.486  18.394  66.385  1.00  0.00    -0.247 C  
HETATM   14  C   UNL     1      -5.908  18.105  68.162  1.00  0.00    -0.172 C  
HETATM   15  N   UNL     1      -6.241  18.923  66.974  1.00  0.00    -0.184 NA 
HETATM   16  C   UNL     1      -5.150  18.939  66.002  1.00  0.00    -0.144 C  
HETATM   17  C   UNL     1      -7.474  16.882  66.051  1.00  0.00     0.006 C  
ENDBRANCH   9  11
BRANCH   8  18
HETATM   18  C   UNL     1      -8.792  11.496  66.601  1.00  0.00    -0.187 A  
HETATM   19  C   UNL     1     -10.194  10.218  64.977  1.00  0.00    -0.277 A  
HETATM   20  C   UNL     1      -9.215   9.259  64.831  1.00  0.00    -0.206 A  
HETATM   21  C   UNL     1      -9.991  11.289  65.857  1.00  0.00    -0.277 A  
HETATM   22  C   UNL     1      -8.036   9.397  65.547  1.00  0.00    -0.111 A  
HETATM   23  C   UNL     1      -7.793  10.510  66.398  1.00  0.00    -0.138 A  
HETATM   24  C   UNL     1      -6.432  10.501  67.028  1.00  0.00    -0.076 C  
ENDBRANCH   8  18
ENDBRANCH   2   5
BRANCH   4  25
HETATM   25  C   UNL     1     -12.081  14.157  70.068  1.00  0.00    -0.409 C  
HETATM   26  C   UNL     1     -11.198  14.572  71.274  1.00  0.00     0.276 C  
HETATM   27  C   UNL     1     -13.518  14.549  70.429  1.00  0.00     0.259 C  
BRANCH  25  28
HETATM   28  C   UNL     1     -11.750  14.982  68.793  1.00  0.00    -0.360 A  
HETATM   29  C   UNL     1     -11.042  17.101  67.770  1.00  0.00    -0.065 A  
HETATM   30  C   UNL     1     -11.351  16.327  68.899  1.00  0.00    -0.317 A  
HETATM   31  F   UNL     1     -11.242  15.350  63.972  1.00  0.00    -0.158 F  
HETATM   32  C   UNL     1     -10.670  18.559  67.911  1.00  0.00    -0.298 C  
HETATM   33  F   UNL     1     -12.724  13.953  64.732  1.00  0.00    -0.396 F  
HETATM   34  C   UNL     1     -11.098  16.505  66.502  1.00  0.00     0.221 A  
HETATM   35  F   UNL     1      -9.434  18.832  67.411  1.00  0.00    -0.287 F  
HETATM   36  F   UNL     1     -10.654  18.994  69.203  1.00  0.00    -0.185 F  
HETATM   37  F   UNL     1     -10.608  13.481  64.883  1.00  0.00    -0.310 F  
HETATM   38  C   UNL     1     -11.506  14.498  65.001  1.00  0.00    -0.382 C  
HETATM   39  C   UNL     1     -11.455  15.157  66.360  1.00  0.00    -0.160 A  
HETATM   40  F   UNL     1     -11.532  19.381  67.252  1.00  0.00    -0.456 F  
HETATM   41  C   UNL     1     -11.771  14.409  67.509  1.00  0.00    -0.416 A  
ENDBRANCH  25  28
ENDBRANCH   4  25
TORSDOF 5
ENDMDL
MODEL      233
REMARK 921   NORMALIZED FREE ENERGY PREDICTED BY IDOCK:    0.46 KCAL/MOL
REMARK 922        TOTAL FREE ENERGY PREDICTED BY IDOCK:   -1.05 KCAL/MOL
REMARK 923 INTER-LIGAND FREE ENERGY PREDICTED BY IDOCK:    0.46 KCAL/MOL
REMARK 924 INTRA-LIGAND FREE ENERGY PREDICTED BY IDOCK:   -1.51 KCAL/MOL
REMARK 927      BINDING AFFINITY PREDICTED BY RF-SCORE:    0.00 PKD
ROOT
HETATM    1  C   UNL     1     -12.041  13.129  64.846  1.00  0.00    -0.402 C  
HETATM    2  N   UNL     1     -10.817  12.808  65.599  1.00  0.00    -0.269 N  
HETATM    3  O   UNL     1     -10.091  14.910  65.192  1.00  0.00    -0.365 OA 
HETATM    4  C   UNL     1      -9.948  13.868  65.853  1.00  0.00    -0.300 C  
ENDROOT
BRANCH   2   5
HETATM    5  C   UNL     1     -10.895  11.612  66.339  1.00  0.00    -0.287 A  
HETATM    6  C   UNL     1     -10.437   9.370  66.968  1.00  0.00    -0.302 A  
HETATM    7  C   UNL     1     -11.772  11.621  67.436  1.00  0.00    -0.201 A  
HETATM    8  C   UNL     1     -10.188  10.430  66.050  1.00  0.00    -0.295 A  
HETATM    9  C   UNL     1     -11.228   9.494  68.121  1.00  0.00     0.131 A  
HETATM   10  N   UNL     1     -11.929  10.618  68.318  1.00  0.00    -0.399 NA 
BRANCH   9  11
HETATM   11  N   UNL     1     -11.286   8.509  69.086  1.00  0.00     0.362 NA 
HETATM   12  C   UNL     1     -11.002   8.837  70.494  1.00  0.00    -0.239 C  
HETATM   13  C   UNL     1     -10.272   6.254  69.421  1.00  0.00    -0.193 C  
HETATM   14  C   UNL     1      -9.927   7.910  71.117  1.00  0.00    -0.173 C  
HETATM   15  N   UNL     1     -10.100   6.460  70.873  1.00  0.00    -0.185 NA 
HETATM   16  C   UNL     1     -11.222   5.911  71.631  1.00  0.00    -0.237 C  
HETATM   17  C   UNL     1     -11.402   7.082  68.762  1.00  0.00     0.159 C  
ENDBRANCH   9  11
BRANCH   8  18
HETATM   18  C   UNL     1      -9.122  10.206  64.983  1.00  0.00    -0.245 A  
HETATM   19  C   UNL     1      -8.632  10.329  62.537  1.00  0.00    -0.217 A  
HETATM   20  C   UNL     1      -7.343   9.882  62.737  1.00  0.00    -0.126 A  
HETATM   21  C   UNL     1      -9.498  10.460  63.630  1.00  0.00    -0.353 A  
HETATM   22  C   UNL     1      -6.929   9.599  64.030  1.00  0.00    -0.113 A  
HETATM   23  C   UNL     1      -7.779   9.785  65.154  1.00  0.00    -0.124 A  
HETATM   24  C   UNL     1      -7.118   9.482  66.466  1.00  0.00    -0.085 C  
ENDBRANCH   8  18
ENDBRANCH   2   5
BRANCH   4  25
HETATM   25  C   UNL     1      -8.832  13.871  66.975  1.00  0.00    -0.231 C  
HETATM   26  C   UNL     1      -7.536  13.567  66.179  1.00  0.00     2.973 C  
HETATM   27  C   UNL     1      -8.871  12.872  68.137  1.00  0.00    -0.194 C  
BRANCH  25  28
HETATM   28  C   UNL     1      -8.785  15.269  67.654  1.00  0.00    -0.179 A  
HETATM   29  C   UNL     1      -9.827  16.946  69.117  1.00  0.00    -0.206 A  
HETATM   30  C   UNL     1      -9.838  15.692  68.486  1.00  0.00    -0.205 A  
HETATM   31  F   UNL     1      -6.542  19.483  68.569  1.00  0.00    -0.260 F  
HETATM   32  C   UNL     1     -10.996  17.397  69.960  1.00  0.00     0.912 C  
HETATM   33  F   UNL     1      -6.171  18.534  66.649  1.00  0.00    -0.172 F  
HETATM   34  C   UNL     1      -8.718  17.785  68.940  1.00  0.00    -0.118 A  
HETATM   35  F   UNL     1     -10.638  17.671  71.244  1.00  0.00     0.982 F  
HETATM   36  F   UNL     1     -11.996  16.473  70.043  1.00  0.00    -0.103 F  
HETATM   37  F   UNL     1      -5.287  17.712  68.456  1.00  0.00    -0.140 F  
HETATM   38  C   UNL     1      -6.425  18.271  67.960  1.00  0.00    -0.193 C  
HETATM   39  C   UNL     1      -7.633  17.382  68.148  1.00  0.00    -0.214 A  
HETATM   40  F   UNL     1     -11.576  18.531  69.481  1.00  0.00     2.440 F  
HETATM   41  C   UNL     1      -7.677  16.125  67.518  1.00  0.00    -0.170 A  
ENDBRANCH  25  28
ENDBRANCH   4  25
TORSDOF 5
ENDMDL
MODEL      234
REMARK 921   NORMALIZED FREE ENERGY PREDICTED BY IDOCK:    0.47 KCAL/MOL
REMARK 922        TOTAL FREE ENERGY PREDICTED BY IDOCK:   -1.04 KCAL/MOL
REMARK 923 INTER-LIGAND FREE ENERGY PREDICTED BY IDOCK:   -1.01 KCAL/MOL
REMARK 924 INTRA-LIGAND FREE ENERGY PREDICTED BY IDOCK:   -0.03 KCAL/MOL
REMARK 927      BINDING AFFINITY PREDICTED BY RF-SCORE:    0.00 PKD
ROOT
HETATM    1  C   UNL     1     -12.446   7.858  69.995  1.00  0.00     1.178 C  
HETATM    2  N   UNL     1     -11.102   7.311  70.242  1.00  0.00    -0.264 N  
HETATM    3  O   UNL     1     -12.064   5.668  71.462  1.00  0.00     0.337 OA 
HETATM    4  C   UNL     1     -11.042   6.073  70.881  1.00  0.00    -0.284 C  
ENDROOT
BRANCH   2   5
HETATM    5  C   UNL     1     -10.098   7.863  69.422  1.00  0.00    -0.196 A  
HETATM    6  C   UNL     1      -8.008   8.818  68.829  1.00  0.00    -0.106 A  
HETATM    7  C   UNL     1     -10.407   7.973  68.056  1.00  0.00    -0.206 A  
HETATM    8  C   UNL     1      -8.844   8.319  69.869  1.00  0.00    -0.138 A  
HETATM    9  C   UNL     1      -8.335   8.776  67.465  1.00  0.00    -0.109 A  
HETATM   10  N   UNL     1      -9.563   8.389  67.096  1.00  0.00    -0.167 NA 
BRANCH   9  11
HETATM   11  N   UNL     1      -7.422   9.085  66.477  1.00  0.00    -0.088 NA 
HETATM   12  C   UNL     1      -7.270  10.478  66.021  1.00  0.00    -0.137 C  
HETATM   13  C   UNL     1      -6.934   8.289  64.164  1.00  0.00    -0.077 C  
HETATM   14  C   UNL     1      -7.392  10.618  64.482  1.00  0.00     0.197 C  
HETATM   15  N   UNL     1      -6.617   9.646  63.678  1.00  0.00    -0.106 NA 
HETATM   16  C   UNL     1      -5.182   9.917  63.735  1.00  0.00    -0.082 C  
HETATM   17  C   UNL     1      -6.732   8.062  65.682  1.00  0.00    -0.048 C  
ENDBRANCH   9  11
BRANCH   8  18
HETATM   18  C   UNL     1      -8.250   8.221  71.269  1.00  0.00    -0.147 A  
HETATM   19  C   UNL     1      -8.763   8.327  73.711  1.00  0.00    -0.221 A  
HETATM   20  C   UNL     1      -7.442   8.096  74.035  1.00  0.00    -0.228 A  
HETATM   21  C   UNL     1      -9.143   8.411  72.366  1.00  0.00    -0.326 A  
HETATM   22  C   UNL     1      -6.525   7.925  73.009  1.00  0.00    -0.075 A  
HETATM   23  C   UNL     1      -6.908   7.949  71.640  1.00  0.00    -0.057 A  
HETATM   24  C   UNL     1      -5.777   7.679  70.693  1.00  0.00    -0.030 C  
ENDBRANCH   8  18
ENDBRANCH   2   5
BRANCH   4  25
HETATM   25  C   UNL     1      -9.789   5.108  70.863  1.00  0.00    -0.266 C  
HETATM   26  C   UNL     1     -10.392   3.747  71.303  1.00  0.00     0.254 C  
HETATM   27  C   UNL     1      -8.580   5.358  71.771  1.00  0.00    -0.131 C  
BRANCH  25  28
HETATM   28  C   UNL     1      -9.203   5.047  69.425  1.00  0.00    -0.156 A  
HETATM   29  C   UNL     1      -9.564   4.918  66.998  1.00  0.00    -0.173 A  
HETATM   30  C   UNL     1     -10.058   4.971  68.310  1.00  0.00    -0.170 A  
HETATM   31  F   UNL     1      -5.428   5.061  66.362  1.00  0.00    -0.013 F  
HETATM   32  C   UNL     1     -10.504   4.780  65.823  1.00  0.00    -0.238 C  
HETATM   33  F   UNL     1      -5.129   4.201  68.335  1.00  0.00    -0.005 F  
HETATM   34  C   UNL     1      -8.178   4.980  66.791  1.00  0.00    -0.107 A  
HETATM   35  F   UNL     1     -10.392   5.811  64.942  1.00  0.00     0.800 F  
HETATM   36  F   UNL     1     -11.819   4.738  66.180  1.00  0.00     0.920 F  
HETATM   37  F   UNL     1      -5.281   6.356  68.102  1.00  0.00    -0.006 F  
HETATM   38  C   UNL     1      -5.803   5.176  67.666  1.00  0.00    -0.018 C  
HETATM   39  C   UNL     1      -7.297   5.094  67.875  1.00  0.00    -0.075 A  
HETATM   40  F   UNL     1     -10.276   3.646  65.105  1.00  0.00    -0.159 F  
HETATM   41  C   UNL     1      -7.820   5.133  69.180  1.00  0.00    -0.081 A  
ENDBRANCH  25  28
ENDBRANCH   4  25
TORSDOF 5
ENDMDL
MODEL      235
REMARK 921   NORMALIZED FREE ENERGY PREDICTED BY IDOCK:    0.52 KCAL/MOL
REMARK 922        TOTAL FREE ENERGY PREDICTED BY IDOCK:   -0.97 KCAL/MOL
REMARK 923 INTER-LIGAND FREE ENERGY PREDICTED BY IDOCK:   -2.31 KCAL/MOL
REMARK 924 INTRA-LIGAND FREE ENERGY PREDICTED BY IDOCK:    1.34 KCAL/MOL
REMARK 927      BINDING AFFINITY PREDICTED BY RF-SCORE:    0.00 PKD
ROOT
HETATM    1  C   UNL     1      -6.339   7.642  67.835  1.00  0.00    -0.050 C  
HETATM    2  N   UNL     1      -7.473   8.578  67.764  1.00  0.00    -0.096 N  
HETATM    3  O   UNL     1      -8.841   6.801  67.475  1.00  0.00    -0.118 OA 
HETATM    4  C   UNL     1      -8.747   8.012  67.740  1.00  0.00    -0.127 C  
ENDROOT
BRANCH   2   5
HETATM    5  C   UNL     1      -7.162   9.889  68.178  1.00  0.00    -0.078 A  
HETATM    6  C   UNL     1      -6.440  11.641  69.607  1.00  0.00    -0.124 A  
HETATM    7  C   UNL     1      -7.365  10.902  67.227  1.00  0.00    -0.103 A  
HETATM    8  C   UNL     1      -6.692  10.247  69.455  1.00  0.00    -0.073 A  
HETATM    9  C   UNL     1      -6.543  12.579  68.568  1.00  0.00    -0.077 A  
HETATM   10  N   UNL     1      -7.052  12.200  67.389  1.00  0.00    -0.135 NA 
BRANCH   9  11
HETATM   11  N   UNL     1      -6.102  13.880  68.702  1.00  0.00    -0.083 NA 
HETATM   12  C   UNL     1      -6.427  14.649  69.916  1.00  0.00    -0.164 C  
HETATM   13  C   UNL     1      -6.240  15.975  67.355  1.00  0.00    -0.157 C  
HETATM   14  C   UNL     1      -7.079  16.018  69.597  1.00  0.00    -0.105 C  
HETATM   15  N   UNL     1      -6.416  16.825  68.548  1.00  0.00    -0.150 NA 
HETATM   16  C   UNL     1      -5.143  17.375  69.010  1.00  0.00    -0.152 C  
HETATM   17  C   UNL     1      -5.503  14.636  67.596  1.00  0.00     0.068 C  
ENDBRANCH   9  11
BRANCH   8  18
HETATM   18  C   UNL     1      -6.309   9.329  70.610  1.00  0.00    -0.068 A  
HETATM   19  C   UNL     1      -6.145   6.950  71.353  1.00  0.00    -0.037 A  
HETATM   20  C   UNL     1      -5.675   7.332  72.591  1.00  0.00    -0.041 A  
HETATM   21  C   UNL     1      -6.474   7.927  70.404  1.00  0.00    -0.037 A  
HETATM   22  C   UNL     1      -5.515   8.683  72.856  1.00  0.00    -0.066 A  
HETATM   23  C   UNL     1      -5.789   9.682  71.882  1.00  0.00     0.080 A  
HETATM   24  C   UNL     1      -5.489  11.076  72.347  1.00  0.00     0.685 C  
ENDBRANCH   8  18
ENDBRANCH   2   5
BRANCH   4  25
HETATM   25  C   UNL     1     -10.083   8.779  68.099  1.00  0.00    -0.228 C  
HETATM   26  C   UNL     1      -9.820   9.282  69.543  1.00  0.00    -0.188 C  
HETATM   27  C   UNL     1     -11.432   8.053  68.133  1.00  0.00     1.152 C  
BRANCH  25  28
HETATM   28  C   UNL     1     -10.288   9.954  67.101  1.00  0.00    -0.304 A  
HETATM   29  C   UNL     1     -10.408  10.765  64.785  1.00  0.00    -0.380 A  
HETATM   30  C   UNL     1     -10.224   9.729  65.714  1.00  0.00    -0.222 A  
HETATM   31  F   UNL     1     -11.237  14.629  66.167  1.00  0.00    -0.319 F  
HETATM   32  C   UNL     1     -10.278  10.506  63.303  1.00  0.00     0.072 C  
HETATM   33  F   UNL     1     -10.193  14.156  68.014  1.00  0.00    -0.217 F  
HETATM   34  C   UNL     1     -10.698  12.054  65.254  1.00  0.00    -0.331 A  
HETATM   35  F   UNL     1     -11.415  10.809  62.619  1.00  0.00     0.475 F  
HETATM   36  F   UNL     1      -9.998   9.206  63.000  1.00  0.00     0.904 F  
HETATM   37  F   UNL     1     -12.314  13.725  67.825  1.00  0.00    -0.378 F  
HETATM   38  C   UNL     1     -11.133  13.690  67.148  1.00  0.00    -0.297 C  
HETATM   39  C   UNL     1     -10.807  12.309  66.629  1.00  0.00    -0.296 A  
HETATM   40  F   UNL     1      -9.288  11.243  62.730  1.00  0.00    -0.289 F  
HETATM   41  C   UNL     1     -10.606  11.253  67.537  1.00  0.00    -0.257 A  
ENDBRANCH  25  28
ENDBRANCH   4  25
TORSDOF 5
ENDMDL
MODEL      236
REMARK 921   NORMALIZED FREE ENERGY PREDICTED BY IDOCK:    0.55 KCAL/MOL
REMARK 922        TOTAL FREE ENERGY PREDICTED BY IDOCK:   -0.93 KCAL/MOL
REMARK 923 INTER-LIGAND FREE ENERGY PREDICTED BY IDOCK:   -4.78 KCAL/MOL
REMARK 924 INTRA-LIGAND FREE ENERGY PREDICTED BY IDOCK:    3.85 KCAL/MOL
REMARK 927      BINDING AFFINITY PREDICTED BY RF-SCORE:    0.00 PKD
ROOT
HETATM    1  C   UNL     1      -8.826   9.796  64.540  1.00  0.00    -0.216 C  
HETATM    2  N   UNL     1      -8.425   9.885  65.953  1.00  0.00    -0.127 N  
HETATM    3  O   UNL     1      -8.492  12.137  65.765  1.00  0.00     0.315 OA 
HETATM    4  C   UNL     1      -8.444  11.156  66.526  1.00  0.00    -0.165 C  
ENDROOT
BRANCH   2   5
HETATM    5  C   UNL     1      -8.512   8.666  66.653  1.00  0.00    -0.112 A  
HETATM    6  C   UNL     1      -8.187   6.363  67.128  1.00  0.00    -0.113 A  
HETATM    7  C   UNL     1      -9.219   8.699  67.866  1.00  0.00    -0.139 A  
HETATM    8  C   UNL     1      -7.969   7.441  66.222  1.00  0.00    -0.109 A  
HETATM    9  C   UNL     1      -8.791   6.500  68.387  1.00  0.00    -0.123 A  
HETATM   10  N   UNL     1      -9.345   7.672  68.725  1.00  0.00    -0.149 NA 
BRANCH   9  11
HETATM   11  N   UNL     1      -8.806   5.478  69.314  1.00  0.00    -0.106 NA 
HETATM   12  C   UNL     1     -10.077   4.820  69.668  1.00  0.00    -0.205 C  
HETATM   13  C   UNL     1      -8.005   5.158  71.655  1.00  0.00    -0.114 C  
HETATM   14  C   UNL     1     -10.327   4.790  71.197  1.00  0.00    -0.118 C  
HETATM   15  N   UNL     1      -9.185   4.356  72.034  1.00  0.00    -0.125 NA 
HETATM   16  C   UNL     1      -8.928   2.924  71.901  1.00  0.00    -0.085 C  
HETATM   17  C   UNL     1      -7.647   5.142  70.149  1.00  0.00    -0.070 C  
ENDBRANCH   9  11
BRANCH   8  18
HETATM   18  C   UNL     1      -7.092   7.175  65.004  1.00  0.00    -0.064 A  
HETATM   19  C   UNL     1      -5.560   8.220  63.331  1.00  0.00    -0.067 A  
HETATM   20  C   UNL     1      -5.361   7.009  62.703  1.00  0.00    -0.033 A  
HETATM   21  C   UNL     1      -6.421   8.298  64.433  1.00  0.00    -0.066 A  
HETATM   22  C   UNL     1      -6.005   5.887  63.202  1.00  0.00    -0.021 A  
HETATM   23  C   UNL     1      -6.835   5.940  64.355  1.00  0.00    -0.050 A  
HETATM   24  C   UNL     1      -7.383   4.606  64.766  1.00  0.00    -0.071 C  
ENDBRANCH   8  18
ENDBRANCH   2   5
BRANCH   4  25
HETATM   25  C   UNL     1      -8.483  11.445  68.081  1.00  0.00    -0.152 C  
HETATM   26  C   UNL     1      -7.090  10.959  68.561  1.00  0.00    -0.076 C  
HETATM   27  C   UNL     1      -9.514  10.766  68.990  1.00  0.00    -0.179 C  
BRANCH  25  28
HETATM   28  C   UNL     1      -8.682  12.968  68.319  1.00  0.00    -0.173 A  
HETATM   29  C   UNL     1      -7.735  15.159  68.901  1.00  0.00    -0.159 A  
HETATM   30  C   UNL     1      -7.592  13.780  68.681  1.00  0.00    -0.125 A  
HETATM   31  F   UNL     1     -11.495  16.932  68.401  1.00  0.00    -0.309 F  
HETATM   32  C   UNL     1      -6.559  15.997  69.343  1.00  0.00    -0.182 C  
HETATM   33  F   UNL     1     -12.421  15.022  68.873  1.00  0.00    -0.206 F  
HETATM   34  C   UNL     1      -8.994  15.749  68.719  1.00  0.00    -0.214 A  
HETATM   35  F   UNL     1      -6.279  17.005  68.472  1.00  0.00    -0.136 F  
HETATM   36  F   UNL     1      -5.402  15.287  69.473  1.00  0.00    -0.093 F  
HETATM   37  F   UNL     1     -11.882  15.491  66.821  1.00  0.00    -0.100 F  
HETATM   38  C   UNL     1     -11.455  15.602  68.109  1.00  0.00    -0.322 C  
HETATM   39  C   UNL     1     -10.096  14.978  68.322  1.00  0.00    -0.222 A  
HETATM   40  F   UNL     1      -6.767  16.592  70.550  1.00  0.00     0.248 F  
HETATM   41  C   UNL     1      -9.925  13.596  68.121  1.00  0.00    -0.246 A  
ENDBRANCH  25  28
ENDBRANCH   4  25
TORSDOF 5
ENDMDL
MODEL      237
REMARK 921   NORMALIZED FREE ENERGY PREDICTED BY IDOCK:    0.57 KCAL/MOL
REMARK 922        TOTAL FREE ENERGY PREDICTED BY IDOCK:   -0.90 KCAL/MOL
REMARK 923 INTER-LIGAND FREE ENERGY PREDICTED BY IDOCK:   -1.12 KCAL/MOL
REMARK 924 INTRA-LIGAND FREE ENERGY PREDICTED BY IDOCK:    0.22 KCAL/MOL
REMARK 927      BINDING AFFINITY PREDICTED BY RF-SCORE:    0.00 PKD
ROOT
HETATM    1  C   UNL     1     -11.766   9.479  68.665  1.00  0.00     0.840 C  
HETATM    2  N   UNL     1     -10.571  10.180  68.166  1.00  0.00    -0.207 N  
HETATM    3  O   UNL     1     -10.207   8.436  66.774  1.00  0.00    -0.280 OA 
HETATM    4  C   UNL     1      -9.933   9.613  67.064  1.00  0.00    -0.206 C  
ENDROOT
BRANCH   2   5
HETATM    5  C   UNL     1     -10.493  11.531  68.558  1.00  0.00    -0.208 A  
HETATM    6  C   UNL     1      -9.558  13.521  69.452  1.00  0.00     0.797 A  
HETATM    7  C   UNL     1     -11.636  12.311  68.319  1.00  0.00    -0.331 A  
HETATM    8  C   UNL     1      -9.381  12.134  69.175  1.00  0.00     0.520 A  
HETATM    9  C   UNL     1     -10.682  14.266  69.066  1.00  0.00    -0.245 A  
HETATM   10  N   UNL     1     -11.738  13.634  68.537  1.00  0.00    -0.336 NA 
BRANCH   9  11
HETATM   11  N   UNL     1     -10.731  15.641  69.176  1.00  0.00    -0.228 NA 
HETATM   12  C   UNL     1     -11.612  16.422  68.290  1.00  0.00    -0.030 C  
HETATM   13  C   UNL     1      -9.077  17.508  69.157  1.00  0.00     0.069 C  
HETATM   14  C   UNL     1     -10.860  17.564  67.559  1.00  0.00    -0.203 C  
HETATM   15  N   UNL     1      -9.975  18.402  68.400  1.00  0.00    -0.362 NA 
HETATM   16  C   UNL     1     -10.738  19.276  69.288  1.00  0.00     0.941 C  
HETATM   17  C   UNL     1      -9.780  16.408  69.989  1.00  0.00     0.543 C  
ENDBRANCH   9  11
BRANCH   8  18
HETATM   18  C   UNL     1      -8.010  11.527  69.448  1.00  0.00     0.333 A  
HETATM   19  C   UNL     1      -6.806   9.473  70.204  1.00  0.00    -0.085 A  
HETATM   20  C   UNL     1      -5.583  10.094  70.058  1.00  0.00    -0.046 A  
HETATM   21  C   UNL     1      -7.981  10.184  69.929  1.00  0.00    -0.149 A  
HETATM   22  C   UNL     1      -5.551  11.407  69.615  1.00  0.00    -0.064 A  
HETATM   23  C   UNL     1      -6.733  12.120  69.276  1.00  0.00    -0.084 A  
HETATM   24  C   UNL     1      -6.475  13.504  68.757  1.00  0.00    -0.098 C  
ENDBRANCH   8  18
ENDBRANCH   2   5
BRANCH   4  25
HETATM   25  C   UNL     1      -8.934  10.380  66.106  1.00  0.00    -0.175 C  
HETATM   26  C   UNL     1      -8.899   9.477  64.845  1.00  0.00    -0.240 C  
HETATM   27  C   UNL     1      -7.474  10.619  66.507  1.00  0.00    -0.134 C  
BRANCH  25  28
HETATM   28  C   UNL     1      -9.499  11.794  65.794  1.00  0.00    -0.232 A  
HETATM   29  C   UNL     1     -11.311  13.200  64.911  1.00  0.00    -0.334 A  
HETATM   30  C   UNL     1     -10.768  11.939  65.203  1.00  0.00    -0.339 A  
HETATM   31  F   UNL     1      -9.132  16.640  65.883  1.00  0.00    -0.314 F  
HETATM   32  C   UNL     1     -12.651  13.323  64.225  1.00  0.00    -0.182 C  
HETATM   33  F   UNL     1      -7.298  15.488  65.707  1.00  0.00     1.328 F  
HETATM   34  C   UNL     1     -10.582  14.348  65.251  1.00  0.00    -0.398 A  
HETATM   35  F   UNL     1     -13.552  14.026  64.964  1.00  0.00    -0.007 F  
HETATM   36  F   UNL     1     -13.241  12.123  63.961  1.00  0.00    -0.500 F  
HETATM   37  F   UNL     1      -8.351  15.569  67.606  1.00  0.00    -0.139 F  
HETATM   38  C   UNL     1      -8.541  15.473  66.261  1.00  0.00    -0.173 C  
HETATM   39  C   UNL     1      -9.331  14.244  65.876  1.00  0.00    -0.063 A  
HETATM   40  F   UNL     1     -12.565  13.967  63.028  1.00  0.00    -0.362 F  
HETATM   41  C   UNL     1      -8.807  12.966  66.146  1.00  0.00     0.266 A  
ENDBRANCH  25  28
ENDBRANCH   4  25
TORSDOF 5
ENDMDL
MODEL      238
REMARK 921   NORMALIZED FREE ENERGY PREDICTED BY IDOCK:    0.59 KCAL/MOL
REMARK 922        TOTAL FREE ENERGY PREDICTED BY IDOCK:   -0.88 KCAL/MOL
REMARK 923 INTER-LIGAND FREE ENERGY PREDICTED BY IDOCK:   -4.62 KCAL/MOL
REMARK 924 INTRA-LIGAND FREE ENERGY PREDICTED BY IDOCK:    3.74 KCAL/MOL
REMARK 927      BINDING AFFINITY PREDICTED BY RF-SCORE:    0.00 PKD
ROOT
HETATM    1  C   UNL     1      -7.922  11.209  65.136  1.00  0.00     0.384 C  
HETATM    2  N   UNL     1      -7.772   9.776  65.437  1.00  0.00    -0.117 N  
HETATM    3  O   UNL     1      -7.871   9.364  63.216  1.00  0.00    -0.120 OA 
HETATM    4  C   UNL     1      -7.592   8.927  64.346  1.00  0.00    -0.114 C  
ENDROOT
BRANCH   2   5
HETATM    5  C   UNL     1      -7.380   9.506  66.763  1.00  0.00    -0.090 A  
HETATM    6  C   UNL     1      -7.395   9.604  69.134  1.00  0.00    -0.077 A  
HETATM    7  C   UNL     1      -6.297   8.626  66.920  1.00  0.00    -0.060 A  
HETATM    8  C   UNL     1      -7.973  10.058  67.914  1.00  0.00    -0.105 A  
HETATM    9  C   UNL     1      -6.397   8.621  69.218  1.00  0.00    -0.042 A  
HETATM   10  N   UNL     1      -5.824   8.171  68.094  1.00  0.00    -0.040 NA 
BRANCH   9  11
HETATM   11  N   UNL     1      -6.005   8.067  70.419  1.00  0.00    -0.029 NA 
HETATM   12  C   UNL     1      -5.577   6.658  70.479  1.00  0.00    -0.023 C  
HETATM   13  C   UNL     1      -6.976   7.855  72.707  1.00  0.00    -0.083 C  
HETATM   14  C   UNL     1      -6.335   5.851  71.563  1.00  0.00    -0.048 C  
HETATM   15  N   UNL     1      -6.443   6.491  72.893  1.00  0.00    -0.066 NA 
HETATM   16  C   UNL     1      -5.160   6.506  73.594  1.00  0.00    -0.040 C  
HETATM   17  C   UNL     1      -6.196   8.743  71.708  1.00  0.00    -0.073 C  
ENDBRANCH   9  11
BRANCH   8  18
HETATM   18  C   UNL     1      -9.205  10.951  68.003  1.00  0.00    -0.156 A  
HETATM   19  C   UNL     1     -11.699  10.973  68.126  1.00  0.00    -0.277 A  
HETATM   20  C   UNL     1     -11.721  12.351  68.169  1.00  0.00    -0.408 A  
HETATM   21  C   UNL     1     -10.475  10.301  68.021  1.00  0.00    -0.234 A  
HETATM   22  C   UNL     1     -10.517  13.037  68.133  1.00  0.00    -0.252 A  
HETATM   23  C   UNL     1      -9.264  12.366  68.086  1.00  0.00    -0.205 A  
HETATM   24  C   UNL     1      -8.083  13.290  68.120  1.00  0.00    -0.159 C  
ENDBRANCH   8  18
ENDBRANCH   2   5
BRANCH   4  25
HETATM   25  C   UNL     1      -6.988   7.467  64.428  1.00  0.00    -0.059 C  
HETATM   26  C   UNL     1      -5.696   7.670  65.262  1.00  0.00    -0.037 C  
HETATM   27  C   UNL     1      -6.572   6.707  63.163  1.00  0.00    -0.038 C  
BRANCH  25  28
HETATM   28  C   UNL     1      -8.001   6.528  65.142  1.00  0.00    -0.123 A  
HETATM   29  C   UNL     1      -8.964   4.287  65.432  1.00  0.00    -0.134 A  
HETATM   30  C   UNL     1      -8.065   5.164  64.806  1.00  0.00    -0.117 A  
HETATM   31  F   UNL     1     -11.486   5.746  68.439  1.00  0.00    -0.192 F  
HETATM   32  C   UNL     1      -9.051   2.838  65.012  1.00  0.00    -0.140 C  
HETATM   33  F   UNL     1     -11.377   7.716  67.528  1.00  0.00    -0.106 F  
HETATM   34  C   UNL     1      -9.797   4.779  66.448  1.00  0.00    -0.236 A  
HETATM   35  F   UNL     1      -8.789   1.981  66.037  1.00  0.00    -0.107 F  
HETATM   36  F   UNL     1      -8.178   2.507  64.018  1.00  0.00    -0.078 F  
HETATM   37  F   UNL     1      -9.897   7.118  69.003  1.00  0.00    -0.151 F  
HETATM   38  C   UNL     1     -10.615   6.665  67.938  1.00  0.00    -0.247 C  
HETATM   39  C   UNL     1      -9.734   6.124  66.836  1.00  0.00    -0.178 A  
HETATM   40  F   UNL     1     -10.286   2.503  64.549  1.00  0.00    -0.076 F  
HETATM   41  C   UNL     1      -8.831   6.983  66.182  1.00  0.00    -0.165 A  
ENDBRANCH  25  28
ENDBRANCH   4  25
TORSDOF 5
ENDMDL
MODEL      239
REMARK 921   NORMALIZED FREE ENERGY PREDICTED BY IDOCK:    0.80 KCAL/MOL
REMARK 922        TOTAL FREE ENERGY PREDICTED BY IDOCK:   -0.61 KCAL/MOL
REMARK 923 INTER-LIGAND FREE ENERGY PREDICTED BY IDOCK:   -1.99 KCAL/MOL
REMARK 924 INTRA-LIGAND FREE ENERGY PREDICTED BY IDOCK:    1.38 KCAL/MOL
REMARK 927      BINDING AFFINITY PREDICTED BY RF-SCORE:    0.00 PKD
ROOT
HETATM    1  C   UNL     1     -11.531  17.910  65.275  1.00  0.00     1.736 C  
HETATM    2  N   UNL     1     -10.443  17.938  66.266  1.00  0.00    -0.354 N  
HETATM    3  O   UNL     1     -11.340  19.837  67.104  1.00  0.00    -0.139 OA 
HETATM    4  C   UNL     1     -10.543  18.898  67.272  1.00  0.00    -0.456 C  
ENDROOT
BRANCH   2   5
HETATM    5  C   UNL     1      -9.704  16.741  66.341  1.00  0.00    -0.290 A  
HETATM    6  C   UNL     1      -7.809  15.312  66.360  1.00  0.00     0.541 A  
HETATM    7  C   UNL     1     -10.450  15.565  66.523  1.00  0.00    -0.300 A  
HETATM    8  C   UNL     1      -8.304  16.642  66.230  1.00  0.00    -0.360 A  
HETATM    9  C   UNL     1      -8.605  14.200  66.672  1.00  0.00     0.035 A  
HETATM   10  N   UNL     1      -9.937  14.335  66.706  1.00  0.00    -0.258 NA 
BRANCH   9  11
HETATM   11  N   UNL     1      -8.064  12.969  66.982  1.00  0.00    -0.095 NA 
HETATM   12  C   UNL     1      -8.933  11.882  67.469  1.00  0.00    -0.171 C  
HETATM   13  C   UNL     1      -6.220  12.127  68.436  1.00  0.00    -0.052 C  
HETATM   14  C   UNL     1      -8.424  11.260  68.794  1.00  0.00    -0.112 C  
HETATM   15  N   UNL     1      -6.982  10.930  68.845  1.00  0.00    -0.076 NA 
HETATM   16  C   UNL     1      -6.659   9.775  68.010  1.00  0.00    -0.061 C  
HETATM   17  C   UNL     1      -6.619  12.732  67.068  1.00  0.00     0.244 C  
ENDBRANCH   9  11
BRANCH   8  18
HETATM   18  C   UNL     1      -7.285  17.770  66.125  1.00  0.00    -0.346 A  
HETATM   19  C   UNL     1      -6.901  20.098  65.305  1.00  0.00    -0.334 A  
HETATM   20  C   UNL     1      -5.601  20.083  65.764  1.00  0.00    -0.192 A  
HETATM   21  C   UNL     1      -7.705  18.962  65.463  1.00  0.00     0.313 A  
HETATM   22  C   UNL     1      -5.131  18.942  66.396  1.00  0.00    -0.151 A  
HETATM   23  C   UNL     1      -5.955  17.804  66.616  1.00  0.00    -0.204 A  
HETATM   24  C   UNL     1      -5.274  16.704  67.375  1.00  0.00    -0.164 C  
ENDBRANCH   8  18
ENDBRANCH   2   5
BRANCH   4  25
HETATM   25  C   UNL     1      -9.768  18.846  68.650  1.00  0.00    -0.454 C  
HETATM   26  C   UNL     1     -10.654  19.714  69.582  1.00  0.00     0.679 C  
HETATM   27  C   UNL     1      -8.341  19.391  68.780  1.00  0.00    -0.379 C  
BRANCH  25  28
HETATM   28  C   UNL     1      -9.678  17.373  69.138  1.00  0.00    -0.110 A  
HETATM   29  C   UNL     1      -8.320  15.491  69.944  1.00  0.00     0.194 A  
HETATM   30  C   UNL     1      -8.437  16.816  69.496  1.00  0.00     0.412 A  
HETATM   31  F   UNL     1     -11.765  13.137  70.295  1.00  0.00    -0.361 F  
HETATM   32  C   UNL     1      -6.967  14.901  70.267  1.00  0.00     0.081 C  
HETATM   33  F   UNL     1     -12.704  14.340  68.747  1.00  0.00    -0.161 F  
HETATM   34  C   UNL     1      -9.479  14.712  70.071  1.00  0.00     0.648 A  
HETATM   35  F   UNL     1      -6.881  14.470  71.555  1.00  0.00     0.268 F  
HETATM   36  F   UNL     1      -5.937  15.779  70.099  1.00  0.00    -0.151 F  
HETATM   37  F   UNL     1     -12.853  14.942  70.830  1.00  0.00    -0.348 F  
HETATM   38  C   UNL     1     -11.996  14.422  69.907  1.00  0.00    -0.335 C  
HETATM   39  C   UNL     1     -10.738  15.245  69.760  1.00  0.00    -0.295 A  
HETATM   40  F   UNL     1      -6.669  13.824  69.490  1.00  0.00    -0.108 F  
HETATM   41  C   UNL     1     -10.823  16.573  69.303  1.00  0.00    -0.326 A  
ENDBRANCH  25  28
ENDBRANCH   4  25
TORSDOF 5
ENDMDL
MODEL      240
REMARK 921   NORMALIZED FREE ENERGY PREDICTED BY IDOCK:    0.82 KCAL/MOL
REMARK 922        TOTAL FREE ENERGY PREDICTED BY IDOCK:   -0.59 KCAL/MOL
REMARK 923 INTER-LIGAND FREE ENERGY PREDICTED BY IDOCK:   -2.58 KCAL/MOL
REMARK 924 INTRA-LIGAND FREE ENERGY PREDICTED BY IDOCK:    2.00 KCAL/MOL
REMARK 927      BINDING AFFINITY PREDICTED BY RF-SCORE:    0.00 PKD
ROOT
HETATM    1  C   UNL     1      -8.155   9.770  70.616  1.00  0.00     0.118 C  
HETATM    2  N   UNL     1      -8.976  10.453  69.603  1.00  0.00    -0.109 N  
HETATM    3  O   UNL     1     -10.757   9.270  70.339  1.00  0.00    -0.218 OA 
HETATM    4  C   UNL     1     -10.352  10.232  69.665  1.00  0.00    -0.248 C  
ENDROOT
BRANCH   2   5
HETATM    5  C   UNL     1      -8.348  11.565  69.009  1.00  0.00     0.093 A  
HETATM    6  C   UNL     1      -6.777  12.783  67.712  1.00  0.00    -0.134 A  
HETATM    7  C   UNL     1      -8.925  12.817  69.278  1.00  0.00     0.997 A  
HETATM    8  C   UNL     1      -7.198  11.512  68.200  1.00  0.00    -0.080 A  
HETATM    9  C   UNL     1      -7.481  13.979  67.916  1.00  0.00    -0.149 A  
HETATM   10  N   UNL     1      -8.535  13.988  68.743  1.00  0.00    -0.095 NA 
BRANCH   9  11
HETATM   11  N   UNL     1      -7.151  15.151  67.265  1.00  0.00    -0.199 NA 
HETATM   12  C   UNL     1      -6.025  15.971  67.746  1.00  0.00    -0.142 C  
HETATM   13  C   UNL     1      -8.350  17.226  66.575  1.00  0.00    -0.277 C  
HETATM   14  C   UNL     1      -6.423  17.451  67.978  1.00  0.00    -0.159 C  
HETATM   15  N   UNL     1      -7.198  18.093  66.893  1.00  0.00    -0.199 NA 
HETATM   16  C   UNL     1      -6.374  18.347  65.713  1.00  0.00    -0.260 C  
HETATM   17  C   UNL     1      -8.002  15.757  66.235  1.00  0.00     0.203 C  
ENDBRANCH   9  11
BRANCH   8  18
HETATM   18  C   UNL     1      -6.456  10.280  67.696  1.00  0.00    -0.058 A  
HETATM   19  C   UNL     1      -5.756   7.951  68.264  1.00  0.00    -0.033 A  
HETATM   20  C   UNL     1      -5.129   7.804  67.044  1.00  0.00    -0.026 A  
HETATM   21  C   UNL     1      -6.377   9.165  68.582  1.00  0.00    -0.049 A  
HETATM   22  C   UNL     1      -5.154   8.863  66.151  1.00  0.00    -0.029 A  
HETATM   23  C   UNL     1      -5.832  10.080  66.438  1.00  0.00    -0.060 A  
HETATM   24  C   UNL     1      -5.794  11.071  65.313  1.00  0.00     0.143 C  
ENDBRANCH   8  18
ENDBRANCH   2   5
BRANCH   4  25
HETATM   25  C   UNL     1     -11.446  11.160  68.998  1.00  0.00    -0.364 C  
HETATM   26  C   UNL     1     -11.337  12.473  69.817  1.00  0.00    -0.111 C  
HETATM   27  C   UNL     1     -12.928  10.770  69.004  1.00  0.00     1.671 C  
BRANCH  25  28
HETATM   28  C   UNL     1     -11.096  11.377  67.499  1.00  0.00    -0.339 A  
HETATM   29  C   UNL     1     -11.104  12.826  65.515  1.00  0.00    -0.318 A  
HETATM   30  C   UNL     1     -11.409  12.593  66.865  1.00  0.00    -0.373 A  
HETATM   31  F   UNL     1      -9.150   9.846  63.316  1.00  0.00    -0.211 F  
HETATM   32  C   UNL     1     -11.502  14.120  64.845  1.00  0.00    -0.366 C  
HETATM   33  F   UNL     1     -10.008   8.352  64.641  1.00  0.00     1.118 F  
HETATM   34  C   UNL     1     -10.438  11.829  64.787  1.00  0.00    -0.341 A  
HETATM   35  F   UNL     1     -10.433  14.798  64.344  1.00  0.00    -0.346 F  
HETATM   36  F   UNL     1     -12.138  14.992  65.678  1.00  0.00    -0.241 F  
HETATM   37  F   UNL     1      -8.111   9.286  65.142  1.00  0.00    -0.108 F  
HETATM   38  C   UNL     1      -9.346   9.541  64.629  1.00  0.00    -0.134 C  
HETATM   39  C   UNL     1     -10.077  10.619  65.396  1.00  0.00    -0.356 A  
HETATM   40  F   UNL     1     -12.347  13.925  63.796  1.00  0.00    -0.498 F  
HETATM   41  C   UNL     1     -10.405  10.409  66.748  1.00  0.00    -0.294 A  
ENDBRANCH  25  28
ENDBRANCH   4  25
TORSDOF 5
ENDMDL
MODEL      241
REMARK 921   NORMALIZED FREE ENERGY PREDICTED BY IDOCK:    0.85 KCAL/MOL
REMARK 922        TOTAL FREE ENERGY PREDICTED BY IDOCK:   -0.55 KCAL/MOL
REMARK 923 INTER-LIGAND FREE ENERGY PREDICTED BY IDOCK:   -3.82 KCAL/MOL
REMARK 924 INTRA-LIGAND FREE ENERGY PREDICTED BY IDOCK:    3.27 KCAL/MOL
REMARK 927      BINDING AFFINITY PREDICTED BY RF-SCORE:    0.00 PKD
ROOT
HETATM    1  C   UNL     1      -8.657  11.878  66.399  1.00  0.00    -0.077 C  
HETATM    2  N   UNL     1      -8.155  10.494  66.428  1.00  0.00    -0.129 N  
HETATM    3  O   UNL     1      -8.039  10.555  64.170  1.00  0.00    -0.129 OA 
HETATM    4  C   UNL     1      -7.710   9.968  65.216  1.00  0.00    -0.139 C  
ENDROOT
BRANCH   2   5
HETATM    5  C   UNL     1      -7.770  10.050  67.708  1.00  0.00    -0.090 A  
HETATM    6  C   UNL     1      -7.930   9.613  70.036  1.00  0.00    -0.182 A  
HETATM    7  C   UNL     1      -6.493   9.474  67.804  1.00  0.00    -0.058 A  
HETATM    8  C   UNL     1      -8.551  10.158  68.874  1.00  0.00    -0.141 A  
HETATM    9  C   UNL     1      -6.702   8.935  70.029  1.00  0.00    -0.043 A  
HETATM   10  N   UNL     1      -5.970   8.912  68.908  1.00  0.00    -0.043 NA 
BRANCH   9  11
HETATM   11  N   UNL     1      -6.230   8.252  71.132  1.00  0.00    -0.034 NA 
HETATM   12  C   UNL     1      -6.941   7.058  71.623  1.00  0.00    -0.069 C  
HETATM   13  C   UNL     1      -5.612   8.831  73.479  1.00  0.00    -0.104 C  
HETATM   14  C   UNL     1      -7.275   7.142  73.134  1.00  0.00    -0.072 C  
HETATM   15  N   UNL     1      -6.171   7.576  74.020  1.00  0.00    -0.075 NA 
HETATM   16  C   UNL     1      -5.146   6.544  74.155  1.00  0.00    -0.041 C  
HETATM   17  C   UNL     1      -5.167   8.775  71.997  1.00  0.00    -0.044 C  
ENDBRANCH   9  11
BRANCH   8  18
HETATM   18  C   UNL     1      -9.987  10.652  69.005  1.00  0.00    -0.226 A  
HETATM   19  C   UNL     1     -11.533  12.560  68.551  1.00  0.00    -0.346 A  
HETATM   20  C   UNL     1     -12.595  11.877  69.105  1.00  0.00     0.546 A  
HETATM   21  C   UNL     1     -10.264  11.968  68.528  1.00  0.00    -0.218 A  
HETATM   22  C   UNL     1     -12.380  10.602  69.604  1.00  0.00    -0.209 A  
HETATM   23  C   UNL     1     -11.110   9.966  69.534  1.00  0.00    -0.255 A  
HETATM   24  C   UNL     1     -11.106   8.566  70.071  1.00  0.00    -0.152 C  
ENDBRANCH   8  18
ENDBRANCH   2   5
BRANCH   4  25
HETATM   25  C   UNL     1      -6.754   8.717  65.071  1.00  0.00    -0.068 C  
HETATM   26  C   UNL     1      -5.433   9.210  65.720  1.00  0.00    -0.041 C  
HETATM   27  C   UNL     1      -6.376   8.160  63.694  1.00  0.00    -0.072 C  
BRANCH  25  28
HETATM   28  C   UNL     1      -7.363   7.509  65.837  1.00  0.00    -0.074 A  
HETATM   29  C   UNL     1      -9.340   6.328  66.693  1.00  0.00    -0.167 A  
HETATM   30  C   UNL     1      -8.756   7.406  66.011  1.00  0.00    -0.171 A  
HETATM   31  F   UNL     1      -6.888   3.288  68.201  1.00  0.00    -0.045 F  
HETATM   32  C   UNL     1     -10.834   6.272  66.914  1.00  0.00    -0.354 C  
HETATM   33  F   UNL     1      -5.259   4.720  68.346  1.00  0.00    -0.005 F  
HETATM   34  C   UNL     1      -8.515   5.306  67.184  1.00  0.00    -0.106 A  
HETATM   35  F   UNL     1     -11.400   5.160  66.370  1.00  0.00    -0.124 F  
HETATM   36  F   UNL     1     -11.504   7.331  66.377  1.00  0.00     0.256 F  
HETATM   37  F   UNL     1      -5.569   3.612  66.503  1.00  0.00    -0.015 F  
HETATM   38  C   UNL     1      -6.225   4.255  67.508  1.00  0.00    -0.036 C  
HETATM   39  C   UNL     1      -7.126   5.356  66.997  1.00  0.00    -0.070 A  
HETATM   40  F   UNL     1     -11.164   6.254  68.234  1.00  0.00    -0.348 F  
HETATM   41  C   UNL     1      -6.567   6.455  66.319  1.00  0.00    -0.048 A  
ENDBRANCH  25  28
ENDBRANCH   4  25
TORSDOF 5
ENDMDL
MODEL      242
REMARK 921   NORMALIZED FREE ENERGY PREDICTED BY IDOCK:    0.91 KCAL/MOL
REMARK 922        TOTAL FREE ENERGY PREDICTED BY IDOCK:   -0.46 KCAL/MOL
REMARK 923 INTER-LIGAND FREE ENERGY PREDICTED BY IDOCK:   -1.22 KCAL/MOL
REMARK 924 INTRA-LIGAND FREE ENERGY PREDICTED BY IDOCK:    0.76 KCAL/MOL
REMARK 927      BINDING AFFINITY PREDICTED BY RF-SCORE:    0.00 PKD
ROOT
HETATM    1  C   UNL     1     -12.436   7.852  70.002  1.00  0.00     1.178 C  
HETATM    2  N   UNL     1     -11.097   7.301  70.266  1.00  0.00    -0.264 N  
HETATM    3  O   UNL     1     -12.075   5.697  71.524  1.00  0.00     0.337 OA 
HETATM    4  C   UNL     1     -11.048   6.080  70.936  1.00  0.00    -0.284 C  
ENDROOT
BRANCH   2   5
HETATM    5  C   UNL     1     -10.086   7.825  69.436  1.00  0.00    -0.195 A  
HETATM    6  C   UNL     1      -7.988   8.753  68.827  1.00  0.00    -0.106 A  
HETATM    7  C   UNL     1     -10.387   7.896  68.066  1.00  0.00    -0.209 A  
HETATM    8  C   UNL     1      -8.832   8.289  69.877  1.00  0.00    -0.138 A  
HETATM    9  C   UNL     1      -8.308   8.672  67.463  1.00  0.00    -0.120 A  
HETATM   10  N   UNL     1      -9.536   8.281  67.099  1.00  0.00    -0.151 NA 
BRANCH   9  11
HETATM   11  N   UNL     1      -7.388   8.948  66.472  1.00  0.00    -0.084 NA 
HETATM   12  C   UNL     1      -7.229  10.327  65.975  1.00  0.00    -0.128 C  
HETATM   13  C   UNL     1      -6.890   8.082  64.186  1.00  0.00    -0.066 C  
HETATM   14  C   UNL     1      -7.342  10.421  64.432  1.00  0.00    -0.002 C  
HETATM   15  N   UNL     1      -6.565   9.423  63.662  1.00  0.00    -0.093 NA 
HETATM   16  C   UNL     1      -5.130   9.690  63.719  1.00  0.00    -0.062 C  
HETATM   17  C   UNL     1      -6.698   7.901  65.711  1.00  0.00    -0.045 C  
ENDBRANCH   9  11
BRANCH   8  18
HETATM   18  C   UNL     1      -8.245   8.228  71.282  1.00  0.00    -0.147 A  
HETATM   19  C   UNL     1      -8.689   8.693  73.696  1.00  0.00     0.231 A  
HETATM   20  C   UNL     1      -7.433   8.248  74.049  1.00  0.00    -0.223 A  
HETATM   21  C   UNL     1      -9.068   8.704  72.347  1.00  0.00    -0.228 A  
HETATM   22  C   UNL     1      -6.582   7.795  73.053  1.00  0.00    -0.072 A  
HETATM   23  C   UNL     1      -6.976   7.744  71.687  1.00  0.00    -0.063 A  
HETATM   24  C   UNL     1      -5.932   7.161  70.781  1.00  0.00    -0.031 C  
ENDBRANCH   8  18
ENDBRANCH   2   5
BRANCH   4  25
HETATM   25  C   UNL     1      -9.803   5.104  70.947  1.00  0.00    -0.266 C  
HETATM   26  C   UNL     1     -10.410   3.770  71.457  1.00  0.00     0.121 C  
HETATM   27  C   UNL     1      -8.579   5.386  71.825  1.00  0.00    -0.131 C  
BRANCH  25  28
HETATM   28  C   UNL     1      -9.237   4.972  69.505  1.00  0.00    -0.167 A  
HETATM   29  C   UNL     1      -7.326   4.584  68.010  1.00  0.00    -0.065 A  
HETATM   30  C   UNL     1      -7.871   4.712  69.297  1.00  0.00    -0.063 A  
HETATM   31  F   UNL     1      -9.845   4.914  64.682  1.00  0.00    -0.073 F  
HETATM   32  C   UNL     1      -5.845   4.361  67.816  1.00  0.00    -0.023 C  
HETATM   33  F   UNL     1     -11.176   6.169  65.856  1.00  0.00     0.192 F  
HETATM   34  C   UNL     1      -8.177   4.682  66.900  1.00  0.00    -0.106 A  
HETATM   35  F   UNL     1      -5.575   3.207  67.145  1.00  0.00    -0.018 F  
HETATM   36  F   UNL     1      -5.148   4.282  68.986  1.00  0.00     0.000 F  
HETATM   37  F   UNL     1     -11.419   4.009  65.877  1.00  0.00     0.885 F  
HETATM   38  C   UNL     1     -10.483   4.998  65.882  1.00  0.00    -0.186 C  
HETATM   39  C   UNL     1      -9.552   4.903  67.069  1.00  0.00    -0.173 A  
HETATM   40  F   UNL     1      -5.258   5.357  67.099  1.00  0.00    -0.004 F  
HETATM   41  C   UNL     1     -10.067   5.040  68.371  1.00  0.00    -0.176 A  
ENDBRANCH  25  28
ENDBRANCH   4  25
TORSDOF 5
ENDMDL
MODEL      243
REMARK 921   NORMALIZED FREE ENERGY PREDICTED BY IDOCK:    0.93 KCAL/MOL
REMARK 922        TOTAL FREE ENERGY PREDICTED BY IDOCK:   -0.43 KCAL/MOL
REMARK 923 INTER-LIGAND FREE ENERGY PREDICTED BY IDOCK:   -1.63 KCAL/MOL
REMARK 924 INTRA-LIGAND FREE ENERGY PREDICTED BY IDOCK:    1.20 KCAL/MOL
REMARK 927      BINDING AFFINITY PREDICTED BY RF-SCORE:    0.00 PKD
ROOT
HETATM    1  C   UNL     1     -11.616   9.967  69.604  1.00  0.00    -0.039 C  
HETATM    2  N   UNL     1     -10.481  10.498  68.832  1.00  0.00    -0.193 N  
HETATM    3  O   UNL     1     -10.482   8.582  67.632  1.00  0.00    -0.244 OA 
HETATM    4  C   UNL     1     -10.082   9.755  67.721  1.00  0.00    -0.180 C  
ENDROOT
BRANCH   2   5
HETATM    5  C   UNL     1     -10.244  11.872  69.031  1.00  0.00     0.009 A  
HETATM    6  C   UNL     1      -9.025  13.867  69.441  1.00  0.00     0.708 A  
HETATM    7  C   UNL     1     -11.371  12.708  68.972  1.00  0.00    -0.292 A  
HETATM    8  C   UNL     1      -8.989  12.450  69.298  1.00  0.00     0.920 A  
HETATM    9  C   UNL     1     -10.171  14.652  69.239  1.00  0.00    -0.147 A  
HETATM   10  N   UNL     1     -11.353  14.051  69.048  1.00  0.00    -0.265 NA 
BRANCH   9  11
HETATM   11  N   UNL     1     -10.123  16.030  69.193  1.00  0.00    -0.227 NA 
HETATM   12  C   UNL     1     -11.298  16.795  68.738  1.00  0.00    -0.038 C  
HETATM   13  C   UNL     1      -8.628  17.747  68.174  1.00  0.00    -0.262 C  
HETATM   14  C   UNL     1     -10.954  17.799  67.609  1.00  0.00    -0.088 C  
HETATM   15  N   UNL     1      -9.753  18.637  67.826  1.00  0.00    -0.305 NA 
HETATM   16  C   UNL     1      -9.977  19.649  68.857  1.00  0.00    -0.438 C  
HETATM   17  C   UNL     1      -8.880  16.790  69.364  1.00  0.00     0.168 C  
ENDBRANCH   9  11
BRANCH   8  18
HETATM   18  C   UNL     1      -7.624  11.772  69.317  1.00  0.00     0.166 A  
HETATM   19  C   UNL     1      -6.407   9.660  69.863  1.00  0.00    -0.054 A  
HETATM   20  C   UNL     1      -5.203  10.213  69.480  1.00  0.00    -0.038 A  
HETATM   21  C   UNL     1      -7.575  10.431  69.804  1.00  0.00    -0.141 A  
HETATM   22  C   UNL     1      -5.187  11.520  69.020  1.00  0.00    -0.043 A  
HETATM   23  C   UNL     1      -6.374  12.295  68.898  1.00  0.00    -0.084 A  
HETATM   24  C   UNL     1      -6.146  13.659  68.319  1.00  0.00    -0.108 C  
ENDBRANCH   8  18
ENDBRANCH   2   5
BRANCH   4  25
HETATM   25  C   UNL     1      -9.214  10.317  66.524  1.00  0.00    -0.179 C  
HETATM   26  C   UNL     1      -9.043   9.077  65.606  1.00  0.00    -0.278 C  
HETATM   27  C   UNL     1      -7.808  10.879  66.757  1.00  0.00    -0.141 C  
BRANCH  25  28
HETATM   28  C   UNL     1      -9.990  11.463  65.816  1.00  0.00    -0.271 A  
HETATM   29  C   UNL     1     -10.250  13.858  65.334  1.00  0.00    -0.356 A  
HETATM   30  C   UNL     1      -9.575  12.799  65.961  1.00  0.00    -0.182 A  
HETATM   31  F   UNL     1     -13.553  13.024  62.900  1.00  0.00     1.072 F  
HETATM   32  C   UNL     1      -9.816  15.288  65.553  1.00  0.00    -0.326 C  
HETATM   33  F   UNL     1     -13.909  11.220  64.059  1.00  0.00     0.442 F  
HETATM   34  C   UNL     1     -11.347  13.571  64.510  1.00  0.00    -0.386 A  
HETATM   35  F   UNL     1      -9.474  15.913  64.393  1.00  0.00     1.202 F  
HETATM   36  F   UNL     1      -8.734  15.409  66.374  1.00  0.00    -0.283 F  
HETATM   37  F   UNL     1     -12.578  11.163  62.343  1.00  0.00     0.261 F  
HETATM   38  C   UNL     1     -12.938  11.923  63.414  1.00  0.00    -0.115 C  
HETATM   39  C   UNL     1     -11.767  12.248  64.310  1.00  0.00    -0.456 A  
HETATM   40  F   UNL     1     -10.795  16.049  66.114  1.00  0.00    -0.317 F  
HETATM   41  C   UNL     1     -11.078  11.208  64.962  1.00  0.00    -0.100 A  
ENDBRANCH  25  28
ENDBRANCH   4  25
TORSDOF 5
ENDMDL
MODEL      244
REMARK 921   NORMALIZED FREE ENERGY PREDICTED BY IDOCK:    1.06 KCAL/MOL
REMARK 922        TOTAL FREE ENERGY PREDICTED BY IDOCK:   -0.27 KCAL/MOL
REMARK 923 INTER-LIGAND FREE ENERGY PREDICTED BY IDOCK:   -0.13 KCAL/MOL
REMARK 924 INTRA-LIGAND FREE ENERGY PREDICTED BY IDOCK:   -0.14 KCAL/MOL
REMARK 927      BINDING AFFINITY PREDICTED BY RF-SCORE:    0.00 PKD
ROOT
HETATM    1  C   UNL     1      -7.991  12.337  64.922  1.00  0.00     3.132 C  
HETATM    2  N   UNL     1      -7.761  11.846  66.291  1.00  0.00     0.204 N  
HETATM    3  O   UNL     1      -7.092  13.930  66.859  1.00  0.00     0.156 OA 
HETATM    4  C   UNL     1      -7.451  12.807  67.253  1.00  0.00    -0.097 C  
ENDROOT
BRANCH   2   5
HETATM    5  C   UNL     1      -8.315  10.575  66.546  1.00  0.00    -0.141 A  
HETATM    6  C   UNL     1      -9.897   8.807  66.506  1.00  0.00    -0.349 A  
HETATM    7  C   UNL     1      -7.517   9.693  67.293  1.00  0.00    -0.088 A  
HETATM    8  C   UNL     1      -9.589  10.146  66.130  1.00  0.00    -0.256 A  
HETATM    9  C   UNL     1      -8.996   7.938  67.141  1.00  0.00    -0.129 A  
HETATM   10  N   UNL     1      -7.819   8.412  67.571  1.00  0.00    -0.098 NA 
BRANCH   9  11
HETATM   11  N   UNL     1      -9.261   6.595  67.311  1.00  0.00    -0.123 NA 
HETATM   12  C   UNL     1     -10.422   6.166  68.111  1.00  0.00    -0.230 C  
HETATM   13  C   UNL     1      -7.995   4.596  68.102  1.00  0.00    -0.084 C  
HETATM   14  C   UNL     1     -10.040   5.150  69.218  1.00  0.00    -0.213 C  
HETATM   15  N   UNL     1      -9.167   4.030  68.799  1.00  0.00    -0.138 NA 
HETATM   16  C   UNL     1      -9.880   3.070  67.960  1.00  0.00     0.343 C  
HETATM   17  C   UNL     1      -8.318   5.541  66.920  1.00  0.00    -0.108 C  
ENDBRANCH   9  11
BRANCH   8  18
HETATM   18  C   UNL     1     -10.586  10.878  65.240  1.00  0.00    -0.259 A  
HETATM   19  C   UNL     1     -11.341  11.226  62.885  1.00  0.00     0.555 A  
HETATM   20  C   UNL     1     -12.321  12.107  63.291  1.00  0.00    -0.547 A  
HETATM   21  C   UNL     1     -10.486  10.653  63.835  1.00  0.00    -0.108 A  
HETATM   22  C   UNL     1     -12.451  12.381  64.644  1.00  0.00    -0.500 A  
HETATM   23  C   UNL     1     -11.629  11.760  65.624  1.00  0.00    -0.190 A  
HETATM   24  C   UNL     1     -11.975  12.144  67.032  1.00  0.00    -0.156 C  
ENDBRANCH   8  18
ENDBRANCH   2   5
BRANCH   4  25
HETATM   25  C   UNL     1      -7.591  12.599  68.815  1.00  0.00    -0.022 C  
HETATM   26  C   UNL     1      -6.609  13.651  69.395  1.00  0.00    -0.090 C  
HETATM   27  C   UNL     1      -7.233  11.263  69.474  1.00  0.00    -0.020 C  
BRANCH  25  28
HETATM   28  C   UNL     1      -9.060  12.874  69.244  1.00  0.00     0.954 A  
HETATM   29  C   UNL     1     -10.908  14.462  69.561  1.00  0.00    -0.179 A  
HETATM   30  C   UNL     1      -9.586  14.178  69.184  1.00  0.00     0.132 A  
HETATM   31  F   UNL     1     -13.389  11.339  70.834  1.00  0.00    -0.259 F  
HETATM   32  C   UNL     1     -11.429  15.880  69.540  1.00  0.00    -0.342 C  
HETATM   33  F   UNL     1     -11.625  10.248  71.484  1.00  0.00    -0.417 F  
HETATM   34  C   UNL     1     -11.738  13.410  69.974  1.00  0.00    -0.297 A  
HETATM   35  F   UNL     1     -12.507  16.027  68.722  1.00  0.00    -0.181 F  
HETATM   36  F   UNL     1     -10.510  16.792  69.112  1.00  0.00    -0.264 F  
HETATM   37  F   UNL     1     -12.341  10.039  69.443  1.00  0.00    -0.019 F  
HETATM   38  C   UNL     1     -12.146  10.947  70.439  1.00  0.00    -0.363 C  
HETATM   39  C   UNL     1     -11.260  12.092  70.010  1.00  0.00     0.129 A  
HETATM   40  F   UNL     1     -11.831  16.304  70.769  1.00  0.00    -0.388 F  
HETATM   41  C   UNL     1      -9.926  11.839  69.638  1.00  0.00     0.917 A  
ENDBRANCH  25  28
ENDBRANCH   4  25
TORSDOF 5
ENDMDL
MODEL      245
REMARK 921   NORMALIZED FREE ENERGY PREDICTED BY IDOCK:    1.20 KCAL/MOL
REMARK 922        TOTAL FREE ENERGY PREDICTED BY IDOCK:   -0.09 KCAL/MOL
REMARK 923 INTER-LIGAND FREE ENERGY PREDICTED BY IDOCK:   -5.10 KCAL/MOL
REMARK 924 INTRA-LIGAND FREE ENERGY PREDICTED BY IDOCK:    5.01 KCAL/MOL
REMARK 927      BINDING AFFINITY PREDICTED BY RF-SCORE:    0.00 PKD
ROOT
HETATM    1  C   UNL     1      -7.108   4.152  70.317  1.00  0.00    -0.041 C  
HETATM    2  N   UNL     1      -7.829   5.399  70.619  1.00  0.00    -0.088 N  
HETATM    3  O   UNL     1      -8.965   4.280  72.223  1.00  0.00    -0.113 OA 
HETATM    4  C   UNL     1      -8.654   5.384  71.743  1.00  0.00    -0.131 C  
ENDROOT
BRANCH   2   5
HETATM    5  C   UNL     1      -7.264   6.547  70.028  1.00  0.00    -0.080 A  
HETATM    6  C   UNL     1      -6.372   7.946  68.331  1.00  0.00    -0.049 A  
HETATM    7  C   UNL     1      -7.029   7.632  70.888  1.00  0.00    -0.053 A  
HETATM    8  C   UNL     1      -6.910   6.671  68.672  1.00  0.00    -0.070 A  
HETATM    9  C   UNL     1      -6.288   9.029  69.219  1.00  0.00    -0.042 A  
HETATM   10  N   UNL     1      -6.580   8.843  70.513  1.00  0.00    -0.044 NA 
BRANCH   9  11
HETATM   11  N   UNL     1      -5.947  10.300  68.803  1.00  0.00    -0.041 NA 
HETATM   12  C   UNL     1      -6.576  11.477  69.429  1.00  0.00    -0.117 C  
HETATM   13  C   UNL     1      -5.862  11.520  66.628  1.00  0.00    -0.137 C  
HETATM   14  C   UNL     1      -7.196  12.445  68.389  1.00  0.00    -0.110 C  
HETATM   15  N   UNL     1      -6.345  12.781  67.226  1.00  0.00    -0.228 NA 
HETATM   16  C   UNL     1      -5.238  13.659  67.599  1.00  0.00     0.045 C  
HETATM   17  C   UNL     1      -5.143  10.556  67.603  1.00  0.00    -0.036 C  
ENDBRANCH   9  11
BRANCH   8  18
HETATM   18  C   UNL     1      -7.151   5.680  67.540  1.00  0.00    -0.074 A  
HETATM   19  C   UNL     1      -6.122   4.566  65.555  1.00  0.00    -0.027 A  
HETATM   20  C   UNL     1      -7.285   3.870  65.298  1.00  0.00    -0.068 A  
HETATM   21  C   UNL     1      -6.073   5.461  66.631  1.00  0.00    -0.026 A  
HETATM   22  C   UNL     1      -8.373   4.059  66.136  1.00  0.00    -0.108 A  
HETATM   23  C   UNL     1      -8.317   4.920  67.267  1.00  0.00    -0.106 A  
HETATM   24  C   UNL     1      -9.579   4.933  68.077  1.00  0.00    -0.190 C  
ENDBRANCH   8  18
ENDBRANCH   2   5
BRANCH   4  25
HETATM   25  C   UNL     1      -9.169   6.673  72.503  1.00  0.00    -0.144 C  
HETATM   26  C   UNL     1      -7.859   7.453  72.793  1.00  0.00    -0.108 C  
HETATM   27  C   UNL     1      -9.912   6.564  73.838  1.00  0.00    -0.297 C  
BRANCH  25  28
HETATM   28  C   UNL     1     -10.128   7.471  71.576  1.00  0.00    -0.201 A  
HETATM   29  C   UNL     1     -10.696   8.305  69.335  1.00  0.00    -0.160 A  
HETATM   30  C   UNL     1      -9.850   7.595  70.202  1.00  0.00    -0.184 A  
HETATM   31  F   UNL     1     -14.185  10.050  70.855  1.00  0.00    -0.069 F  
HETATM   32  C   UNL     1     -10.343   8.471  67.876  1.00  0.00    -0.223 C  
HETATM   33  F   UNL     1     -13.227  10.190  72.802  1.00  0.00    -0.260 F  
HETATM   34  C   UNL     1     -11.870   8.876  69.848  1.00  0.00     0.450 A  
HETATM   35  F   UNL     1     -11.295   7.959  67.049  1.00  0.00    -0.133 F  
HETATM   36  F   UNL     1      -9.177   7.858  67.525  1.00  0.00    -0.133 F  
HETATM   37  F   UNL     1     -14.316   8.391  72.254  1.00  0.00    -0.442 F  
HETATM   38  C   UNL     1     -13.467   9.338  71.768  1.00  0.00    -0.415 C  
HETATM   39  C   UNL     1     -12.199   8.740  71.204  1.00  0.00    -0.284 A  
HETATM   40  F   UNL     1     -10.200   9.776  67.520  1.00  0.00    -0.204 F  
HETATM   41  C   UNL     1     -11.326   8.033  72.052  1.00  0.00    -0.359 A  
ENDBRANCH  25  28
ENDBRANCH   4  25
TORSDOF 5
ENDMDL
MODEL      246
REMARK 921   NORMALIZED FREE ENERGY PREDICTED BY IDOCK:    1.30 KCAL/MOL
REMARK 922        TOTAL FREE ENERGY PREDICTED BY IDOCK:    0.03 KCAL/MOL
REMARK 923 INTER-LIGAND FREE ENERGY PREDICTED BY IDOCK:   -5.48 KCAL/MOL
REMARK 924 INTRA-LIGAND FREE ENERGY PREDICTED BY IDOCK:    5.52 KCAL/MOL
REMARK 927      BINDING AFFINITY PREDICTED BY RF-SCORE:    0.00 PKD
ROOT
HETATM    1  C   UNL     1      -8.695   2.486  68.007  1.00  0.00    -0.106 C  
HETATM    2  N   UNL     1      -8.860   3.733  68.771  1.00  0.00    -0.101 N  
HETATM    3  O   UNL     1      -9.718   2.507  70.466  1.00  0.00    -0.107 OA 
HETATM    4  C   UNL     1      -9.248   3.600  70.104  1.00  0.00    -0.151 C  
ENDROOT
BRANCH   2   5
HETATM    5  C   UNL     1      -8.184   4.839  68.218  1.00  0.00    -0.088 A  
HETATM    6  C   UNL     1      -7.342   6.307  66.554  1.00  0.00    -0.081 A  
HETATM    7  C   UNL     1      -7.577   5.713  69.134  1.00  0.00    -0.088 A  
HETATM    8  C   UNL     1      -8.063   5.112  66.843  1.00  0.00    -0.108 A  
HETATM    9  C   UNL     1      -6.874   7.202  67.529  1.00  0.00    -0.070 A  
HETATM   10  N   UNL     1      -6.961   6.867  68.823  1.00  0.00    -0.073 NA 
BRANCH   9  11
HETATM   11  N   UNL     1      -6.357   8.440  67.206  1.00  0.00    -0.056 NA 
HETATM   12  C   UNL     1      -5.507   9.160  68.171  1.00  0.00    -0.038 C  
HETATM   13  C   UNL     1      -7.270  10.620  66.407  1.00  0.00    -0.134 C  
HETATM   14  C   UNL     1      -5.998  10.606  68.436  1.00  0.00    -0.046 C  
HETATM   15  N   UNL     1      -6.336  11.406  67.237  1.00  0.00    -0.085 NA 
HETATM   16  C   UNL     1      -5.143  11.793  66.487  1.00  0.00     0.008 C  
HETATM   17  C   UNL     1      -6.785   9.200  66.026  1.00  0.00    -0.076 C  
ENDBRANCH   9  11
BRANCH   8  18
HETATM   18  C   UNL     1      -8.705   4.373  65.675  1.00  0.00    -0.121 A  
HETATM   19  C   UNL     1     -10.866   3.861  64.531  1.00  0.00    -0.120 A  
HETATM   20  C   UNL     1     -10.222   3.096  63.582  1.00  0.00    -0.198 A  
HETATM   21  C   UNL     1     -10.125   4.458  65.559  1.00  0.00    -0.251 A  
HETATM   22  C   UNL     1      -8.845   2.960  63.657  1.00  0.00    -0.092 A  
HETATM   23  C   UNL     1      -8.074   3.610  64.660  1.00  0.00    -0.090 A  
HETATM   24  C   UNL     1      -6.597   3.386  64.525  1.00  0.00    -0.035 C  
ENDBRANCH   8  18
ENDBRANCH   2   5
BRANCH   4  25
HETATM   25  C   UNL     1      -9.070   4.714  71.212  1.00  0.00    -0.179 C  
HETATM   26  C   UNL     1      -7.557   5.047  71.133  1.00  0.00    -0.086 C  
HETATM   27  C   UNL     1      -9.371   4.423  72.687  1.00  0.00    -0.157 C  
BRANCH  25  28
HETATM   28  C   UNL     1      -9.956   5.942  70.859  1.00  0.00    -0.238 A  
HETATM   29  C   UNL     1     -12.005   7.246  71.225  1.00  0.00    -0.359 A  
HETATM   30  C   UNL     1     -11.182   6.147  71.516  1.00  0.00    -0.346 A  
HETATM   31  F   UNL     1     -10.755  10.037  68.366  1.00  0.00    -0.212 F  
HETATM   32  C   UNL     1     -13.343   7.412  71.907  1.00  0.00    -0.231 C  
HETATM   33  F   UNL     1      -9.583   8.479  67.405  1.00  0.00    -0.159 F  
HETATM   34  C   UNL     1     -11.575   8.185  70.276  1.00  0.00     0.011 A  
HETATM   35  F   UNL     1     -13.435   8.581  72.598  1.00  0.00    -0.330 F  
HETATM   36  F   UNL     1     -13.622   6.426  72.806  1.00  0.00     0.277 F  
HETATM   37  F   UNL     1      -8.711   9.664  69.004  1.00  0.00    -0.122 F  
HETATM   38  C   UNL     1      -9.858   9.043  68.613  1.00  0.00    -0.165 C  
HETATM   39  C   UNL     1     -10.341   8.033  69.627  1.00  0.00    -0.220 A  
HETATM   40  F   UNL     1     -14.380   7.416  71.025  1.00  0.00    -0.505 F  
HETATM   41  C   UNL     1      -9.542   6.915  69.931  1.00  0.00    -0.156 A  
ENDBRANCH  25  28
ENDBRANCH   4  25
TORSDOF 5
ENDMDL
MODEL      247
REMARK 921   NORMALIZED FREE ENERGY PREDICTED BY IDOCK:    1.60 KCAL/MOL
REMARK 922        TOTAL FREE ENERGY PREDICTED BY IDOCK:    0.42 KCAL/MOL
REMARK 923 INTER-LIGAND FREE ENERGY PREDICTED BY IDOCK:   -4.33 KCAL/MOL
REMARK 924 INTRA-LIGAND FREE ENERGY PREDICTED BY IDOCK:    4.76 KCAL/MOL
REMARK 927      BINDING AFFINITY PREDICTED BY RF-SCORE:    0.00 PKD
ROOT
HETATM    1  C   UNL     1      -8.040  13.999  67.063  1.00  0.00    -0.003 C  
HETATM    2  N   UNL     1      -9.323  13.733  67.734  1.00  0.00    -0.205 N  
HETATM    3  O   UNL     1      -9.837  15.921  67.483  1.00  0.00    -0.227 OA 
HETATM    4  C   UNL     1     -10.247  14.777  67.747  1.00  0.00    -0.232 C  
ENDROOT
BRANCH   2   5
HETATM    5  C   UNL     1      -9.626  12.364  67.870  1.00  0.00    -0.205 A  
HETATM    6  C   UNL     1     -10.511  10.232  67.318  1.00  0.00    -0.307 A  
HETATM    7  C   UNL     1      -9.162  11.742  69.040  1.00  0.00     0.238 A  
HETATM    8  C   UNL     1     -10.362  11.600  66.946  1.00  0.00    -0.253 A  
HETATM    9  C   UNL     1      -9.906   9.650  68.442  1.00  0.00    -0.153 A  
HETATM   10  N   UNL     1      -9.268  10.431  69.323  1.00  0.00    -0.198 NA 
BRANCH   9  11
HETATM   11  N   UNL     1      -9.912   8.287  68.661  1.00  0.00    -0.185 NA 
HETATM   12  C   UNL     1      -9.883   7.356  67.519  1.00  0.00    -0.158 C  
HETATM   13  C   UNL     1     -11.332   6.672  69.925  1.00  0.00    -0.364 C  
HETATM   14  C   UNL     1     -11.020   6.304  67.579  1.00  0.00    -0.350 C  
HETATM   15  N   UNL     1     -11.215   5.632  68.884  1.00  0.00     0.072 NA 
HETATM   16  C   UNL     1     -10.135   4.694  69.178  1.00  0.00    -0.074 C  
HETATM   17  C   UNL     1     -10.169   7.693  69.977  1.00  0.00    -0.213 C  
ENDBRANCH   9  11
BRANCH   8  18
HETATM   18  C   UNL     1     -10.883  12.021  65.577  1.00  0.00    -0.336 A  
HETATM   19  C   UNL     1     -12.741  11.742  63.931  1.00  0.00    -0.318 A  
HETATM   20  C   UNL     1     -12.135  12.610  63.047  1.00  0.00    -0.120 A  
HETATM   21  C   UNL     1     -12.114  11.442  65.147  1.00  0.00     0.813 A  
HETATM   22  C   UNL     1     -10.925  13.185  63.402  1.00  0.00     0.225 A  
HETATM   23  C   UNL     1     -10.308  12.936  64.658  1.00  0.00    -0.366 A  
HETATM   24  C   UNL     1      -9.038  13.706  64.870  1.00  0.00     1.818 C  
ENDBRANCH   8  18
ENDBRANCH   2   5
BRANCH   4  25
HETATM   25  C   UNL     1     -11.798  14.607  68.004  1.00  0.00    -0.343 C  
HETATM   26  C   UNL     1     -12.225  13.600  66.904  1.00  0.00    -0.398 C  
HETATM   27  C   UNL     1     -12.757  15.798  67.896  1.00  0.00     1.966 C  
BRANCH  25  28
HETATM   28  C   UNL     1     -12.027  14.039  69.433  1.00  0.00    -0.390 A  
HETATM   29  C   UNL     1     -12.262  14.424  71.849  1.00  0.00    -0.318 A  
HETATM   30  C   UNL     1     -12.055  14.901  70.545  1.00  0.00    -0.378 A  
HETATM   31  F   UNL     1     -12.884  10.328  72.453  1.00  0.00    -0.446 F  
HETATM   32  C   UNL     1     -12.231  15.365  73.030  1.00  0.00    -0.432 C  
HETATM   33  F   UNL     1     -11.745   9.922  70.647  1.00  0.00    -0.299 F  
HETATM   34  C   UNL     1     -12.483  13.053  72.043  1.00  0.00     0.165 A  
HETATM   35  F   UNL     1     -13.397  15.360  73.732  1.00  0.00    -0.522 F  
HETATM   36  F   UNL     1     -12.011  16.665  72.685  1.00  0.00    -0.559 F  
HETATM   37  F   UNL     1     -13.886  10.271  70.525  1.00  0.00    -0.214 F  
HETATM   38  C   UNL     1     -12.750  10.691  71.148  1.00  0.00    -0.422 C  
HETATM   39  C   UNL     1     -12.500  12.169  70.955  1.00  0.00    -0.374 A  
HETATM   40  F   UNL     1     -11.254  15.047  73.923  1.00  0.00    -0.094 F  
HETATM   41  C   UNL     1     -12.277  12.674  69.661  1.00  0.00    -0.177 A  
ENDBRANCH  25  28
ENDBRANCH   4  25
TORSDOF 5
ENDMDL
MODEL      248
REMARK 921   NORMALIZED FREE ENERGY PREDICTED BY IDOCK:    1.76 KCAL/MOL
REMARK 922        TOTAL FREE ENERGY PREDICTED BY IDOCK:    0.63 KCAL/MOL
REMARK 923 INTER-LIGAND FREE ENERGY PREDICTED BY IDOCK:   -4.88 KCAL/MOL
REMARK 924 INTRA-LIGAND FREE ENERGY PREDICTED BY IDOCK:    5.51 KCAL/MOL
REMARK 927      BINDING AFFINITY PREDICTED BY RF-SCORE:    0.00 PKD
ROOT
HETATM    1  C   UNL     1      -8.675  11.660  66.837  1.00  0.00    -0.185 C  
HETATM    2  N   UNL     1      -8.292  10.239  66.831  1.00  0.00    -0.122 N  
HETATM    3  O   UNL     1      -8.280  10.316  64.571  1.00  0.00    -0.160 OA 
HETATM    4  C   UNL     1      -7.952   9.691  65.594  1.00  0.00    -0.113 C  
ENDROOT
BRANCH   2   5
HETATM    5  C   UNL     1      -7.884   9.749  68.087  1.00  0.00    -0.085 A  
HETATM    6  C   UNL     1      -8.018   9.193  70.391  1.00  0.00    -0.155 A  
HETATM    7  C   UNL     1      -6.585   9.221  68.153  1.00  0.00    -0.059 A  
HETATM    8  C   UNL     1      -8.664   9.768  69.258  1.00  0.00    -0.165 A  
HETATM    9  C   UNL     1      -6.764   8.566  70.350  1.00  0.00    -0.037 A  
HETATM   10  N   UNL     1      -6.036   8.627  69.227  1.00  0.00    -0.041 NA 
BRANCH   9  11
HETATM   11  N   UNL     1      -6.261   7.850  71.417  1.00  0.00    -0.034 NA 
HETATM   12  C   UNL     1      -6.380   6.381  71.444  1.00  0.00    -0.045 C  
HETATM   13  C   UNL     1      -6.514   7.901  73.898  1.00  0.00    -0.096 C  
HETATM   14  C   UNL     1      -7.020   5.859  72.755  1.00  0.00    -0.076 C  
HETATM   15  N   UNL     1      -6.485   6.430  74.012  1.00  0.00    -0.070 NA 
HETATM   16  C   UNL     1      -5.139   5.939  74.301  1.00  0.00    -0.028 C  
HETATM   17  C   UNL     1      -5.799   8.486  72.656  1.00  0.00    -0.072 C  
ENDBRANCH   9  11
BRANCH   8  18
HETATM   18  C   UNL     1     -10.119  10.197  69.416  1.00  0.00    -0.250 A  
HETATM   19  C   UNL     1     -11.902  11.708  68.536  1.00  0.00    -0.357 A  
HETATM   20  C   UNL     1     -12.811  11.228  69.455  1.00  0.00     0.609 A  
HETATM   21  C   UNL     1     -10.589  11.220  68.539  1.00  0.00    -0.227 A  
HETATM   22  C   UNL     1     -12.403  10.249  70.346  1.00  0.00    -0.319 A  
HETATM   23  C   UNL     1     -11.091   9.702  70.322  1.00  0.00    -0.327 A  
HETATM   24  C   UNL     1     -10.874   8.609  71.326  1.00  0.00    -0.327 C  
ENDBRANCH   8  18
ENDBRANCH   2   5
BRANCH   4  25
HETATM   25  C   UNL     1      -7.113   8.365  65.393  1.00  0.00    -0.081 C  
HETATM   26  C   UNL     1      -5.908   8.566  66.351  1.00  0.00    -0.047 C  
HETATM   27  C   UNL     1      -6.523   7.997  64.028  1.00  0.00    -0.066 C  
BRANCH  25  28
HETATM   28  C   UNL     1      -7.979   7.139  65.797  1.00  0.00    -0.123 A  
HETATM   29  C   UNL     1      -9.268   5.931  67.505  1.00  0.00    -0.108 A  
HETATM   30  C   UNL     1      -8.481   7.023  67.107  1.00  0.00    -0.121 A  
HETATM   31  F   UNL     1     -10.218   2.964  64.708  1.00  0.00    -0.068 F  
HETATM   32  C   UNL     1      -9.746   5.804  68.932  1.00  0.00    -0.136 C  
HETATM   33  F   UNL     1      -8.399   3.452  63.623  1.00  0.00    -0.086 F  
HETATM   34  C   UNL     1      -9.594   4.948  66.560  1.00  0.00    -0.176 A  
HETATM   35  F   UNL     1     -11.104   5.756  69.025  1.00  0.00    -0.369 F  
HETATM   36  F   UNL     1      -9.355   6.837  69.732  1.00  0.00    -0.145 F  
HETATM   37  F   UNL     1     -10.243   4.514  63.184  1.00  0.00    -0.080 F  
HETATM   38  C   UNL     1      -9.498   4.005  64.204  1.00  0.00    -0.160 C  
HETATM   39  C   UNL     1      -9.144   5.050  65.236  1.00  0.00    -0.143 A  
HETATM   40  F   UNL     1      -9.289   4.673  69.535  1.00  0.00    -0.140 F  
HETATM   41  C   UNL     1      -8.346   6.149  64.868  1.00  0.00    -0.092 A  
ENDBRANCH  25  28
ENDBRANCH   4  25
TORSDOF 5
ENDMDL
MODEL      249
REMARK 921   NORMALIZED FREE ENERGY PREDICTED BY IDOCK:    1.78 KCAL/MOL
REMARK 922        TOTAL FREE ENERGY PREDICTED BY IDOCK:    0.66 KCAL/MOL
REMARK 923 INTER-LIGAND FREE ENERGY PREDICTED BY IDOCK:   -0.24 KCAL/MOL
REMARK 924 INTRA-LIGAND FREE ENERGY PREDICTED BY IDOCK:    0.90 KCAL/MOL
REMARK 927      BINDING AFFINITY PREDICTED BY RF-SCORE:    0.00 PKD
ROOT
HETATM    1  C   UNL     1     -12.878  12.839  65.994  1.00  0.00     0.794 C  
HETATM    2  N   UNL     1     -11.617  12.120  65.748  1.00  0.00    -0.373 N  
HETATM    3  O   UNL     1     -12.528  11.300  63.848  1.00  0.00     0.210 OA 
HETATM    4  C   UNL     1     -11.494  11.484  64.513  1.00  0.00    -0.131 C  
ENDROOT
BRANCH   2   5
HETATM    5  C   UNL     1     -10.550  12.534  66.569  1.00  0.00    -0.242 A  
HETATM    6  C   UNL     1      -8.937  13.986  67.531  1.00  0.00    -0.195 A  
HETATM    7  C   UNL     1      -9.997  11.552  67.407  1.00  0.00    -0.190 A  
HETATM    8  C   UNL     1     -10.000  13.829  66.595  1.00  0.00    -0.279 A  
HETATM    9  C   UNL     1      -8.524  12.991  68.430  1.00  0.00    -0.118 A  
HETATM   10  N   UNL     1      -9.036  11.758  68.325  1.00  0.00    -0.184 NA 
BRANCH   9  11
HETATM   11  N   UNL     1      -7.630  13.242  69.450  1.00  0.00     0.356 NA 
HETATM   12  C   UNL     1      -7.739  14.482  70.240  1.00  0.00     0.834 C  
HETATM   13  C   UNL     1      -5.148  13.325  69.690  1.00  0.00    -0.084 C  
HETATM   14  C   UNL     1      -6.406  15.270  70.299  1.00  0.00    -0.061 C  
HETATM   15  N   UNL     1      -5.196  14.476  70.613  1.00  0.00    -0.114 NA 
HETATM   16  C   UNL     1      -5.174  14.048  72.010  1.00  0.00    -0.203 C  
HETATM   17  C   UNL     1      -6.419  12.442  69.664  1.00  0.00    -0.063 C  
ENDBRANCH   9  11
BRANCH   8  18
HETATM   18  C   UNL     1     -10.482  15.073  65.858  1.00  0.00    -0.341 A  
HETATM   19  C   UNL     1     -11.712  15.900  63.847  1.00  0.00     0.361 A  
HETATM   20  C   UNL     1     -11.524  17.212  64.228  1.00  0.00     1.571 A  
HETATM   21  C   UNL     1     -11.182  14.868  64.631  1.00  0.00    -0.349 A  
HETATM   22  C   UNL     1     -10.832  17.473  65.401  1.00  0.00     0.058 A  
HETATM   23  C   UNL     1     -10.341  16.433  66.237  1.00  0.00    -0.337 A  
HETATM   24  C   UNL     1      -9.679  16.927  67.488  1.00  0.00    -0.249 C  
ENDBRANCH   8  18
ENDBRANCH   2   5
BRANCH   4  25
HETATM   25  C   UNL     1     -10.125  11.039  63.859  1.00  0.00    -0.414 C  
HETATM   26  C   UNL     1      -9.340  12.373  63.750  1.00  0.00     0.596 C  
HETATM   27  C   UNL     1     -10.080  10.396  62.468  1.00  0.00     0.362 C  
BRANCH  25  28
HETATM   28  C   UNL     1      -9.412  10.020  64.792  1.00  0.00    -0.366 A  
HETATM   29  C   UNL     1      -7.348   9.195  65.839  1.00  0.00    -0.094 A  
HETATM   30  C   UNL     1      -8.023  10.096  65.001  1.00  0.00    -0.146 A  
HETATM   31  F   UNL     1      -9.529   6.232  67.837  1.00  0.00    -0.120 F  
HETATM   32  C   UNL     1      -5.848   9.265  66.000  1.00  0.00    -0.054 C  
HETATM   33  F   UNL     1     -11.016   6.305  66.253  1.00  0.00    -0.239 F  
HETATM   34  C   UNL     1      -8.086   8.213  66.515  1.00  0.00    -0.106 A  
HETATM   35  F   UNL     1      -5.471   9.464  67.292  1.00  0.00    -0.039 F  
HETATM   36  F   UNL     1      -5.270  10.272  65.285  1.00  0.00    -0.046 F  
HETATM   37  F   UNL     1     -11.183   7.638  67.961  1.00  0.00    -0.072 F  
HETATM   38  C   UNL     1     -10.287   7.087  67.096  1.00  0.00    -0.281 C  
HETATM   39  C   UNL     1      -9.477   8.130  66.362  1.00  0.00    -0.285 A  
HETATM   40  F   UNL     1      -5.227   8.122  65.600  1.00  0.00    -0.027 F  
HETATM   41  C   UNL     1     -10.126   9.039  65.506  1.00  0.00     0.426 A  
ENDBRANCH  25  28
ENDBRANCH   4  25
TORSDOF 5
ENDMDL
MODEL      250
REMARK 921   NORMALIZED FREE ENERGY PREDICTED BY IDOCK:    1.79 KCAL/MOL
REMARK 922        TOTAL FREE ENERGY PREDICTED BY IDOCK:    0.68 KCAL/MOL
REMARK 923 INTER-LIGAND FREE ENERGY PREDICTED BY IDOCK:   -1.09 KCAL/MOL
REMARK 924 INTRA-LIGAND FREE ENERGY PREDICTED BY IDOCK:    1.77 KCAL/MOL
REMARK 927      BINDING AFFINITY PREDICTED BY RF-SCORE:    0.00 PKD
ROOT
HETATM    1  C   UNL     1     -12.975   9.656  70.842  1.00  0.00    -0.176 C  
HETATM    2  N   UNL     1     -11.689   9.197  70.292  1.00  0.00    -0.100 N  
HETATM    3  O   UNL     1     -11.370  11.278  69.467  1.00  0.00    -0.252 OA 
HETATM    4  C   UNL     1     -10.864  10.175  69.738  1.00  0.00    -0.279 C  
ENDROOT
BRANCH   2   5
HETATM    5  C   UNL     1     -11.265   7.948  70.788  1.00  0.00    -0.266 A  
HETATM    6  C   UNL     1     -10.398   5.739  70.760  1.00  0.00    -0.301 A  
HETATM    7  C   UNL     1     -11.369   7.767  72.176  1.00  0.00    -0.302 A  
HETATM    8  C   UNL     1     -10.774   6.887  70.004  1.00  0.00    -0.276 A  
HETATM    9  C   UNL     1     -10.409   5.678  72.162  1.00  0.00    -0.209 A  
HETATM   10  N   UNL     1     -10.942   6.690  72.859  1.00  0.00    -0.256 NA 
BRANCH   9  11
HETATM   11  N   UNL     1      -9.854   4.624  72.859  1.00  0.00    -0.139 NA 
HETATM   12  C   UNL     1      -8.564   4.053  72.433  1.00  0.00    -0.103 C  
HETATM   13  C   UNL     1     -10.599   2.359  73.591  1.00  0.00    -0.154 C  
HETATM   14  C   UNL     1      -8.626   2.517  72.243  1.00  0.00    -0.066 C  
HETATM   15  N   UNL     1      -9.278   1.753  73.330  1.00  0.00    -0.071 NA 
HETATM   16  C   UNL     1      -8.455   1.716  74.537  1.00  0.00    -0.053 C  
HETATM   17  C   UNL     1     -10.586   3.878  73.889  1.00  0.00    -0.217 C  
ENDBRANCH   9  11
BRANCH   8  18
HETATM   18  C   UNL     1     -10.482   6.876  68.508  1.00  0.00    -0.229 A  
HETATM   19  C   UNL     1     -11.250   7.699  66.278  1.00  0.00     2.378 A  
HETATM   20  C   UNL     1     -10.212   7.051  65.643  1.00  0.00     1.568 A  
HETATM   21  C   UNL     1     -11.389   7.589  67.668  1.00  0.00     0.525 A  
HETATM   22  C   UNL     1      -9.312   6.324  66.407  1.00  0.00    -0.176 A  
HETATM   23  C   UNL     1      -9.407   6.254  67.824  1.00  0.00    -0.113 A  
HETATM   24  C   UNL     1      -8.299   5.471  68.465  1.00  0.00    -0.101 C  
ENDBRANCH   8  18
ENDBRANCH   2   5
BRANCH   4  25
HETATM   25  C   UNL     1      -9.310  10.013  69.493  1.00  0.00    -0.247 C  
HETATM   26  C   UNL     1      -9.018   8.587  70.031  1.00  0.00    -0.142 C  
HETATM   27  C   UNL     1      -8.298  10.945  70.168  1.00  0.00     1.278 C  
BRANCH  25  28
HETATM   28  C   UNL     1      -9.011  10.134  67.972  1.00  0.00    -0.125 A  
HETATM   29  C   UNL     1      -9.654  10.961  65.750  1.00  0.00    -0.259 A  
HETATM   30  C   UNL     1      -9.894  10.830  67.126  1.00  0.00    -0.216 A  
HETATM   31  F   UNL     1      -6.177   9.300  64.111  1.00  0.00    -0.078 F  
HETATM   32  C   UNL     1     -10.648  11.665  64.856  1.00  0.00    -0.296 C  
HETATM   33  F   UNL     1      -6.163   7.833  65.715  1.00  0.00    -0.039 F  
HETATM   34  C   UNL     1      -8.481  10.414  65.209  1.00  0.00    -0.173 A  
HETATM   35  F   UNL     1     -10.104  12.734  64.211  1.00  0.00    -0.343 F  
HETATM   36  F   UNL     1     -11.734  12.147  65.524  1.00  0.00    -0.387 F  
HETATM   37  F   UNL     1      -5.170   9.747  65.985  1.00  0.00    -0.034 F  
HETATM   38  C   UNL     1      -6.285   9.165  65.462  1.00  0.00    -0.063 C  
HETATM   39  C   UNL     1      -7.559   9.747  66.028  1.00  0.00    -0.102 A  
HETATM   40  F   UNL     1     -11.140  10.851  63.883  1.00  0.00    -0.402 F  
HETATM   41  C   UNL     1      -7.832   9.620  67.402  1.00  0.00    -0.095 A  
ENDBRANCH  25  28
ENDBRANCH   4  25
TORSDOF 5
ENDMDL
MODEL      251
REMARK 921   NORMALIZED FREE ENERGY PREDICTED BY IDOCK:    1.82 KCAL/MOL
REMARK 922        TOTAL FREE ENERGY PREDICTED BY IDOCK:    0.71 KCAL/MOL
REMARK 923 INTER-LIGAND FREE ENERGY PREDICTED BY IDOCK:   -1.22 KCAL/MOL
REMARK 924 INTRA-LIGAND FREE ENERGY PREDICTED BY IDOCK:    1.94 KCAL/MOL
REMARK 927      BINDING AFFINITY PREDICTED BY RF-SCORE:    0.00 PKD
ROOT
HETATM    1  C   UNL     1     -11.384   9.038  67.733  1.00  0.00     0.835 C  
HETATM    2  N   UNL     1     -10.349   8.015  67.516  1.00  0.00    -0.241 N  
HETATM    3  O   UNL     1      -9.332   9.437  66.081  1.00  0.00    -0.172 OA 
HETATM    4  C   UNL     1      -9.241   8.400  66.762  1.00  0.00    -0.171 C  
ENDROOT
BRANCH   2   5
HETATM    5  C   UNL     1     -10.382   6.958  68.447  1.00  0.00    -0.190 A  
HETATM    6  C   UNL     1     -10.415   4.726  69.255  1.00  0.00     0.149 A  
HETATM    7  C   UNL     1     -10.423   7.328  69.801  1.00  0.00    -0.227 A  
HETATM    8  C   UNL     1     -10.397   5.589  68.121  1.00  0.00    -0.236 A  
HETATM    9  C   UNL     1     -10.323   5.168  70.584  1.00  0.00    -0.235 A  
HETATM   10  N   UNL     1     -10.373   6.481  70.844  1.00  0.00    -0.204 NA 
BRANCH   9  11
HETATM   11  N   UNL     1     -10.145   4.298  71.640  1.00  0.00    -0.175 NA 
HETATM   12  C   UNL     1      -9.455   4.750  72.862  1.00  0.00    -0.130 C  
HETATM   13  C   UNL     1      -9.177   2.021  71.954  1.00  0.00    -0.089 C  
HETATM   14  C   UNL     1      -8.289   3.815  73.269  1.00  0.00    -0.087 C  
HETATM   15  N   UNL     1      -8.587   2.365  73.263  1.00  0.00    -0.069 NA 
HETATM   16  C   UNL     1      -9.468   1.987  74.366  1.00  0.00    -0.077 C  
HETATM   17  C   UNL     1     -10.411   2.859  71.540  1.00  0.00     0.427 C  
ENDBRANCH   9  11
BRANCH   8  18
HETATM   18  C   UNL     1     -10.266   4.946  66.745  1.00  0.00    -0.274 A  
HETATM   19  C   UNL     1     -11.089   4.994  64.388  1.00  0.00     1.465 A  
HETATM   20  C   UNL     1     -10.258   3.950  64.039  1.00  0.00    -0.216 A  
HETATM   21  C   UNL     1     -11.105   5.456  65.710  1.00  0.00     0.464 A  
HETATM   22  C   UNL     1      -9.436   3.400  65.009  1.00  0.00    -0.154 A  
HETATM   23  C   UNL     1      -9.399   3.898  66.341  1.00  0.00    -0.192 A  
HETATM   24  C   UNL     1      -8.396   3.207  67.216  1.00  0.00    -0.089 C  
ENDBRANCH   8  18
ENDBRANCH   2   5
BRANCH   4  25
HETATM   25  C   UNL     1      -7.845   7.656  66.761  1.00  0.00    -0.107 C  
HETATM   26  C   UNL     1      -6.850   8.782  66.377  1.00  0.00    -0.075 C  
HETATM   27  C   UNL     1      -7.567   6.490  65.806  1.00  0.00    -0.085 C  
BRANCH  25  28
HETATM   28  C   UNL     1      -7.562   7.086  68.179  1.00  0.00    -0.108 A  
HETATM   29  C   UNL     1      -6.813   5.228  69.601  1.00  0.00    -0.056 A  
HETATM   30  C   UNL     1      -7.082   5.773  68.336  1.00  0.00    -0.077 A  
HETATM   31  F   UNL     1      -7.384   7.588  73.011  1.00  0.00    -0.070 F  
HETATM   32  C   UNL     1      -6.352   3.796  69.743  1.00  0.00    -0.028 C  
HETATM   33  F   UNL     1      -8.883   8.731  71.928  1.00  0.00    -0.242 F  
HETATM   34  C   UNL     1      -6.993   6.028  70.738  1.00  0.00    -0.067 A  
HETATM   35  F   UNL     1      -5.141   3.697  70.358  1.00  0.00    -0.003 F  
HETATM   36  F   UNL     1      -6.218   3.147  68.551  1.00  0.00    -0.026 F  
HETATM   37  F   UNL     1      -6.791   9.312  71.826  1.00  0.00    -0.066 F  
HETATM   38  C   UNL     1      -7.620   8.232  71.834  1.00  0.00    -0.108 C  
HETATM   39  C   UNL     1      -7.434   7.353  70.619  1.00  0.00    -0.078 A  
HETATM   40  F   UNL     1      -7.211   3.043  70.482  1.00  0.00    -0.033 F  
HETATM   41  C   UNL     1      -7.708   7.870  69.339  1.00  0.00    -0.105 A  
ENDBRANCH  25  28
ENDBRANCH   4  25
TORSDOF 5
ENDMDL
MODEL      252
REMARK 921   NORMALIZED FREE ENERGY PREDICTED BY IDOCK:    1.98 KCAL/MOL
REMARK 922        TOTAL FREE ENERGY PREDICTED BY IDOCK:    0.92 KCAL/MOL
REMARK 923 INTER-LIGAND FREE ENERGY PREDICTED BY IDOCK:   -1.32 KCAL/MOL
REMARK 924 INTRA-LIGAND FREE ENERGY PREDICTED BY IDOCK:    2.24 KCAL/MOL
REMARK 927      BINDING AFFINITY PREDICTED BY RF-SCORE:    0.00 PKD
ROOT
HETATM    1  C   UNL     1      -6.030  12.950  70.196  1.00  0.00    -0.136 C  
HETATM    2  N   UNL     1      -7.132  12.676  69.259  1.00  0.00     0.025 N  
HETATM    3  O   UNL     1      -7.431  10.687  70.292  1.00  0.00    -0.118 OA 
HETATM    4  C   UNL     1      -7.895  11.537  69.514  1.00  0.00     0.446 C  
ENDROOT
BRANCH   2   5
HETATM    5  C   UNL     1      -7.552  13.801  68.522  1.00  0.00    -0.134 A  
HETATM    6  C   UNL     1      -8.269  15.074  66.652  1.00  0.00    -0.020 A  
HETATM    7  C   UNL     1      -7.655  15.005  69.237  1.00  0.00    -0.187 A  
HETATM    8  C   UNL     1      -7.850  13.805  67.147  1.00  0.00    -0.030 A  
HETATM    9  C   UNL     1      -8.475  16.206  67.455  1.00  0.00    -0.162 A  
HETATM   10  N   UNL     1      -8.118  16.168  68.746  1.00  0.00    -0.204 NA 
BRANCH   9  11
HETATM   11  N   UNL     1      -9.067  17.355  66.974  1.00  0.00    -0.236 NA 
HETATM   12  C   UNL     1      -8.828  18.646  67.644  1.00  0.00    -0.275 C  
HETATM   13  C   UNL     1     -11.386  18.089  66.419  1.00  0.00     1.176 C  
HETATM   14  C   UNL     1     -10.143  19.383  68.005  1.00  0.00    -0.412 C  
HETATM   15  N   UNL     1     -11.163  19.454  66.935  1.00  0.00    -0.131 NA 
HETATM   16  C   UNL     1     -10.769  20.375  65.870  1.00  0.00     0.157 C  
HETATM   17  C   UNL     1     -10.115  17.341  65.947  1.00  0.00    -0.211 C  
ENDBRANCH   9  11
BRANCH   8  18
HETATM   18  C   UNL     1      -7.903  12.620  66.190  1.00  0.00     1.238 A  
HETATM   19  C   UNL     1      -9.247  11.502  64.406  1.00  0.00     0.074 A  
HETATM   20  C   UNL     1      -8.306  10.502  64.274  1.00  0.00    -0.092 A  
HETATM   21  C   UNL     1      -9.056  12.513  65.355  1.00  0.00     0.490 A  
HETATM   22  C   UNL     1      -7.175  10.542  65.075  1.00  0.00     0.005 A  
HETATM   23  C   UNL     1      -6.940  11.596  66.001  1.00  0.00     0.524 A  
HETATM   24  C   UNL     1      -5.629  11.485  66.721  1.00  0.00    -0.138 C  
ENDBRANCH   8  18
ENDBRANCH   2   5
BRANCH   4  25
HETATM   25  C   UNL     1      -9.346  11.276  68.940  1.00  0.00    -0.084 C  
HETATM   26  C   UNL     1      -9.067  10.512  67.619  1.00  0.00    -0.146 C  
HETATM   27  C   UNL     1     -10.279  12.438  68.579  1.00  0.00    -0.213 C  
BRANCH  25  28
HETATM   28  C   UNL     1     -10.155  10.416  69.951  1.00  0.00    -0.144 A  
HETATM   29  C   UNL     1     -10.327   8.405  71.353  1.00  0.00    -0.285 A  
HETATM   30  C   UNL     1      -9.627   9.205  70.437  1.00  0.00    -0.268 A  
HETATM   31  F   UNL     1     -14.067   9.677  72.741  1.00  0.00    -0.357 F  
HETATM   32  C   UNL     1      -9.761   7.082  71.814  1.00  0.00    -0.158 C  
HETATM   33  F   UNL     1     -14.334  10.795  70.896  1.00  0.00     1.083 F  
HETATM   34  C   UNL     1     -11.573   8.843  71.824  1.00  0.00    -0.422 A  
HETATM   35  F   UNL     1      -9.591   7.030  73.163  1.00  0.00    -0.157 F  
HETATM   36  F   UNL     1      -8.543   6.794  71.274  1.00  0.00    -0.122 F  
HETATM   37  F   UNL     1     -13.343  11.722  72.593  1.00  0.00    -0.412 F  
HETATM   38  C   UNL     1     -13.449  10.554  71.901  1.00  0.00    -0.256 C  
HETATM   39  C   UNL     1     -12.114  10.062  71.391  1.00  0.00    -0.498 A  
HETATM   40  F   UNL     1     -10.567   6.032  71.497  1.00  0.00    -0.245 F  
HETATM   41  C   UNL     1     -11.395  10.838  70.464  1.00  0.00    -0.289 A  
ENDBRANCH  25  28
ENDBRANCH   4  25
TORSDOF 5
ENDMDL
MODEL      253
REMARK 921   NORMALIZED FREE ENERGY PREDICTED BY IDOCK:    2.08 KCAL/MOL
REMARK 922        TOTAL FREE ENERGY PREDICTED BY IDOCK:    1.05 KCAL/MOL
REMARK 923 INTER-LIGAND FREE ENERGY PREDICTED BY IDOCK:   -1.95 KCAL/MOL
REMARK 924 INTRA-LIGAND FREE ENERGY PREDICTED BY IDOCK:    3.00 KCAL/MOL
REMARK 927      BINDING AFFINITY PREDICTED BY RF-SCORE:    0.00 PKD
ROOT
HETATM    1  C   UNL     1      -9.266  10.727  70.466  1.00  0.00     2.193 C  
HETATM    2  N   UNL     1      -9.130  10.841  69.005  1.00  0.00    -0.170 N  
HETATM    3  O   UNL     1      -9.061  13.088  69.250  1.00  0.00     0.583 OA 
HETATM    4  C   UNL     1      -8.864  12.114  68.502  1.00  0.00    -0.079 C  
ENDROOT
BRANCH   2   5
HETATM    5  C   UNL     1      -8.838   9.624  68.359  1.00  0.00    -0.123 A  
HETATM    6  C   UNL     1      -7.854   7.495  67.999  1.00  0.00    -0.121 A  
HETATM    7  C   UNL     1      -9.478   9.410  67.127  1.00  0.00    -0.145 A  
HETATM    8  C   UNL     1      -7.956   8.640  68.841  1.00  0.00    -0.113 A  
HETATM    9  C   UNL     1      -8.625   7.293  66.844  1.00  0.00    -0.124 A  
HETATM   10  N   UNL     1      -9.404   8.285  66.393  1.00  0.00    -0.200 NA 
BRANCH   9  11
HETATM   11  N   UNL     1      -8.641   6.091  66.167  1.00  0.00    -0.137 NA 
HETATM   12  C   UNL     1      -7.937   5.959  64.879  1.00  0.00    -0.125 C  
HETATM   13  C   UNL     1     -10.385   4.501  65.360  1.00  0.00    -0.199 C  
HETATM   14  C   UNL     1      -8.846   5.394  63.758  1.00  0.00     0.156 C  
HETATM   15  N   UNL     1      -9.653   4.205  64.113  1.00  0.00    -0.158 NA 
HETATM   16  C   UNL     1      -8.826   3.007  64.246  1.00  0.00    -0.100 C  
HETATM   17  C   UNL     1      -9.512   4.973  66.548  1.00  0.00    -0.149 C  
ENDBRANCH   9  11
BRANCH   8  18
HETATM   18  C   UNL     1      -7.226   8.601  70.179  1.00  0.00    -0.052 A  
HETATM   19  C   UNL     1      -5.140   9.267  71.380  1.00  0.00    -0.042 A  
HETATM   20  C   UNL     1      -5.591   8.696  72.552  1.00  0.00    -0.059 A  
HETATM   21  C   UNL     1      -5.930   9.196  70.225  1.00  0.00    -0.035 A  
HETATM   22  C   UNL     1      -6.835   8.084  72.559  1.00  0.00    -0.088 A  
HETATM   23  C   UNL     1      -7.672   8.057  71.410  1.00  0.00    -0.092 A  
HETATM   24  C   UNL     1      -9.002   7.405  71.648  1.00  0.00    -0.133 C  
ENDBRANCH   8  18
ENDBRANCH   2   5
BRANCH   4  25
HETATM   25  C   UNL     1      -8.261  12.412  67.071  1.00  0.00    -0.141 C  
HETATM   26  C   UNL     1      -7.984  10.994  66.507  1.00  0.00    -0.158 C  
HETATM   27  C   UNL     1      -6.958  13.204  66.907  1.00  0.00     0.643 C  
BRANCH  25  28
HETATM   28  C   UNL     1      -9.307  13.184  66.219  1.00  0.00    -0.138 A  
HETATM   29  C   UNL     1     -11.184  13.149  64.634  1.00  0.00    -0.366 A  
HETATM   30  C   UNL     1     -10.224  12.485  65.413  1.00  0.00    -0.303 A  
HETATM   31  F   UNL     1     -11.380  17.330  64.753  1.00  0.00    -0.328 F  
HETATM   32  C   UNL     1     -12.119  12.375  63.734  1.00  0.00    -0.529 C  
HETATM   33  F   UNL     1      -9.271  17.380  65.274  1.00  0.00     0.321 F  
HETATM   34  C   UNL     1     -11.253  14.549  64.688  1.00  0.00    -0.359 A  
HETATM   35  F   UNL     1     -13.428  12.585  64.040  1.00  0.00    -0.091 F  
HETATM   36  F   UNL     1     -11.935  11.025  63.791  1.00  0.00    -0.060 F  
HETATM   37  F   UNL     1     -10.772  17.224  66.838  1.00  0.00    -0.317 F  
HETATM   38  C   UNL     1     -10.453  16.784  65.589  1.00  0.00    -0.269 C  
HETATM   39  C   UNL     1     -10.381  15.277  65.509  1.00  0.00    -0.408 A  
HETATM   40  F   UNL     1     -11.980  12.715  62.424  1.00  0.00     0.374 F  
HETATM   41  C   UNL     1      -9.421  14.585  66.270  1.00  0.00    -0.310 A  
ENDBRANCH  25  28
ENDBRANCH   4  25
TORSDOF 5
ENDMDL
MODEL      254
REMARK 921   NORMALIZED FREE ENERGY PREDICTED BY IDOCK:    2.22 KCAL/MOL
REMARK 922        TOTAL FREE ENERGY PREDICTED BY IDOCK:    1.22 KCAL/MOL
REMARK 923 INTER-LIGAND FREE ENERGY PREDICTED BY IDOCK:   -0.79 KCAL/MOL
REMARK 924 INTRA-LIGAND FREE ENERGY PREDICTED BY IDOCK:    2.01 KCAL/MOL
REMARK 927      BINDING AFFINITY PREDICTED BY RF-SCORE:    0.00 PKD
ROOT
HETATM    1  C   UNL     1     -11.494  11.407  70.217  1.00  0.00    -0.151 C  
HETATM    2  N   UNL     1     -10.724  11.949  69.085  1.00  0.00    -0.152 N  
HETATM    3  O   UNL     1     -10.965  14.008  69.988  1.00  0.00    -0.013 OA 
HETATM    4  C   UNL     1     -10.370  13.295  69.161  1.00  0.00     0.149 C  
ENDROOT
BRANCH   2   5
HETATM    5  C   UNL     1     -10.068  10.968  68.315  1.00  0.00    -0.177 A  
HETATM    6  C   UNL     1      -9.502   9.667  66.412  1.00  0.00    -0.244 A  
HETATM    7  C   UNL     1      -9.105  10.197  68.987  1.00  0.00    -0.173 A  
HETATM    8  C   UNL     1     -10.318  10.701  66.956  1.00  0.00    -0.280 A  
HETATM    9  C   UNL     1      -8.467   9.027  67.112  1.00  0.00    -0.113 A  
HETATM   10  N   UNL     1      -8.309   9.273  68.420  1.00  0.00    -0.118 NA 
BRANCH   9  11
HETATM   11  N   UNL     1      -7.574   8.175  66.495  1.00  0.00    -0.091 NA 
HETATM   12  C   UNL     1      -6.505   8.719  65.639  1.00  0.00    -0.059 C  
HETATM   13  C   UNL     1      -7.726   6.177  65.010  1.00  0.00    -0.099 C  
HETATM   14  C   UNL     1      -6.475   8.065  64.235  1.00  0.00    -0.061 C  
HETATM   15  N   UNL     1      -6.560   6.588  64.204  1.00  0.00    -0.037 NA 
HETATM   16  C   UNL     1      -5.328   5.963  64.681  1.00  0.00    -0.017 C  
HETATM   17  C   UNL     1      -7.757   6.720  66.459  1.00  0.00    -0.102 C  
ENDBRANCH   9  11
BRANCH   8  18
HETATM   18  C   UNL     1     -11.234  11.455  66.000  1.00  0.00    -0.177 A  
HETATM   19  C   UNL     1     -13.155  13.045  65.850  1.00  0.00     0.844 A  
HETATM   20  C   UNL     1     -13.124  13.007  64.472  1.00  0.00     0.064 A  
HETATM   21  C   UNL     1     -12.250  12.269  66.585  1.00  0.00     0.177 A  
HETATM   22  C   UNL     1     -12.172  12.216  63.848  1.00  0.00    -0.587 A  
HETATM   23  C   UNL     1     -11.209  11.470  64.582  1.00  0.00    -0.276 A  
HETATM   24  C   UNL     1     -10.230  10.733  63.717  1.00  0.00    -0.354 C  
ENDBRANCH   8  18
ENDBRANCH   2   5
BRANCH   4  25
HETATM   25  C   UNL     1      -9.213  13.974  68.322  1.00  0.00    -0.200 C  
HETATM   26  C   UNL     1      -8.809  12.860  67.321  1.00  0.00    -0.206 C  
HETATM   27  C   UNL     1      -7.917  14.445  68.991  1.00  0.00    -0.057 C  
BRANCH  25  28
HETATM   28  C   UNL     1      -9.769  15.233  67.599  1.00  0.00    -0.208 A  
HETATM   29  C   UNL     1     -10.202  17.651  67.596  1.00  0.00    -0.351 A  
HETATM   30  C   UNL     1      -9.713  16.493  68.221  1.00  0.00    -0.231 A  
HETATM   31  F   UNL     1     -11.816  17.371  63.743  1.00  0.00     1.418 F  
HETATM   32  C   UNL     1     -10.180  18.982  68.310  1.00  0.00    -0.386 C  
HETATM   33  F   UNL     1     -12.336  15.300  64.148  1.00  0.00    -0.502 F  
HETATM   34  C   UNL     1     -10.729  17.553  66.300  1.00  0.00    -0.087 A  
HETATM   35  F   UNL     1      -9.462  19.923  67.637  1.00  0.00    -0.387 F  
HETATM   36  F   UNL     1      -9.634  18.922  69.558  1.00  0.00    -0.184 F  
HETATM   37  F   UNL     1     -10.380  15.791  63.337  1.00  0.00     2.774 F  
HETATM   38  C   UNL     1     -11.320  16.201  64.233  1.00  0.00    -0.088 C  
HETATM   39  C   UNL     1     -10.768  16.320  65.634  1.00  0.00    -0.297 A  
HETATM   40  F   UNL     1     -11.425  19.506  68.473  1.00  0.00     0.552 F  
HETATM   41  C   UNL     1     -10.281  15.174  66.290  1.00  0.00    -0.300 A  
ENDBRANCH  25  28
ENDBRANCH   4  25
TORSDOF 5
ENDMDL
MODEL      255
REMARK 921   NORMALIZED FREE ENERGY PREDICTED BY IDOCK:    2.29 KCAL/MOL
REMARK 922        TOTAL FREE ENERGY PREDICTED BY IDOCK:    1.32 KCAL/MOL
REMARK 923 INTER-LIGAND FREE ENERGY PREDICTED BY IDOCK:   -2.08 KCAL/MOL
REMARK 924 INTRA-LIGAND FREE ENERGY PREDICTED BY IDOCK:    3.40 KCAL/MOL
REMARK 927      BINDING AFFINITY PREDICTED BY RF-SCORE:    0.00 PKD
ROOT
HETATM    1  C   UNL     1      -6.304  13.038  66.509  1.00  0.00     2.087 C  
HETATM    2  N   UNL     1      -6.323  13.365  67.944  1.00  0.00    -0.135 N  
HETATM    3  O   UNL     1      -5.393  15.363  67.436  1.00  0.00    -0.331 OA 
HETATM    4  C   UNL     1      -5.976  14.671  68.288  1.00  0.00    -0.119 C  
ENDROOT
BRANCH   2   5
HETATM    5  C   UNL     1      -7.104  12.489  68.722  1.00  0.00    -0.092 A  
HETATM    6  C   UNL     1      -8.995  11.223  69.397  1.00  0.00     0.412 A  
HETATM    7  C   UNL     1      -6.477  11.943  69.854  1.00  0.00    -0.048 A  
HETATM    8  C   UNL     1      -8.444  12.145  68.461  1.00  0.00    -0.083 A  
HETATM    9  C   UNL     1      -8.266  10.618  70.432  1.00  0.00     1.389 A  
HETATM   10  N   UNL     1      -7.013  11.024  70.677  1.00  0.00     0.203 NA 
BRANCH   9  11
HETATM   11  N   UNL     1      -8.780   9.587  71.192  1.00  0.00    -0.197 NA 
HETATM   12  C   UNL     1      -7.872   8.673  71.908  1.00  0.00    -0.070 C  
HETATM   13  C   UNL     1     -10.369   7.699  70.826  1.00  0.00    -0.203 C  
HETATM   14  C   UNL     1      -8.162   7.182  71.599  1.00  0.00    -0.103 C  
HETATM   15  N   UNL     1      -9.582   6.770  71.662  1.00  0.00    -0.162 NA 
HETATM   16  C   UNL     1     -10.077   6.733  73.037  1.00  0.00    -0.191 C  
HETATM   17  C   UNL     1     -10.195   9.201  71.158  1.00  0.00    -0.314 C  
ENDBRANCH   9  11
BRANCH   8  18
HETATM   18  C   UNL     1      -9.298  12.529  67.259  1.00  0.00    -0.190 A  
HETATM   19  C   UNL     1     -10.874  11.668  65.523  1.00  0.00    -0.334 A  
HETATM   20  C   UNL     1     -11.004  12.923  64.967  1.00  0.00    -0.324 A  
HETATM   21  C   UNL     1     -10.025  11.480  66.621  1.00  0.00    -0.236 A  
HETATM   22  C   UNL     1     -10.304  13.978  65.533  1.00  0.00    -0.354 A  
HETATM   23  C   UNL     1      -9.485  13.812  66.683  1.00  0.00    -0.289 A  
HETATM   24  C   UNL     1      -8.869  15.088  67.174  1.00  0.00    -0.233 C  
ENDBRANCH   8  18
ENDBRANCH   2   5
BRANCH   4  25
HETATM   25  C   UNL     1      -6.334  15.367  69.663  1.00  0.00    -0.160 C  
HETATM   26  C   UNL     1      -5.316  16.536  69.737  1.00  0.00    -0.157 C  
HETATM   27  C   UNL     1      -6.219  14.610  70.991  1.00  0.00     0.057 C  
BRANCH  25  28
HETATM   28  C   UNL     1      -7.802  15.875  69.619  1.00  0.00     0.019 A  
HETATM   29  C   UNL     1      -9.390  17.735  69.382  1.00  0.00     0.325 A  
HETATM   30  C   UNL     1      -8.077  17.242  69.431  1.00  0.00     0.318 A  
HETATM   31  F   UNL     1     -12.593  15.064  69.740  1.00  0.00    -0.322 F  
HETATM   32  C   UNL     1      -9.654  19.215  69.235  1.00  0.00    -0.159 C  
HETATM   33  F   UNL     1     -11.310  13.731  70.882  1.00  0.00    -0.106 F  
HETATM   34  C   UNL     1     -10.459  16.834  69.490  1.00  0.00    -0.263 A  
HETATM   35  F   UNL     1     -10.387  19.506  68.125  1.00  0.00    -0.455 F  
HETATM   36  F   UNL     1      -8.519  19.964  69.138  1.00  0.00    -0.283 F  
HETATM   37  F   UNL     1     -11.376  13.583  68.714  1.00  0.00    -0.253 F  
HETATM   38  C   UNL     1     -11.365  14.475  69.743  1.00  0.00    -0.260 C  
HETATM   39  C   UNL     1     -10.224  15.460  69.641  1.00  0.00    -0.283 A  
HETATM   40  F   UNL     1     -10.349  19.727  70.287  1.00  0.00    -0.199 F  
HETATM   41  C   UNL     1      -8.897  14.996  69.697  1.00  0.00     0.020 A  
ENDBRANCH  25  28
ENDBRANCH   4  25
TORSDOF 5
ENDMDL
MODEL      256
REMARK 921   NORMALIZED FREE ENERGY PREDICTED BY IDOCK:    2.33 KCAL/MOL
REMARK 922        TOTAL FREE ENERGY PREDICTED BY IDOCK:    1.37 KCAL/MOL
REMARK 923 INTER-LIGAND FREE ENERGY PREDICTED BY IDOCK:   -0.63 KCAL/MOL
REMARK 924 INTRA-LIGAND FREE ENERGY PREDICTED BY IDOCK:    2.00 KCAL/MOL
REMARK 927      BINDING AFFINITY PREDICTED BY RF-SCORE:    0.00 PKD
ROOT
HETATM    1  C   UNL     1     -11.498  11.410  70.205  1.00  0.00    -0.214 C  
HETATM    2  N   UNL     1     -10.737  11.927  69.056  1.00  0.00    -0.194 N  
HETATM    3  O   UNL     1     -10.951  14.002  69.929  1.00  0.00    -0.070 OA 
HETATM    4  C   UNL     1     -10.372  13.272  69.107  1.00  0.00     0.149 C  
ENDROOT
BRANCH   2   5
HETATM    5  C   UNL     1     -10.099  10.929  68.294  1.00  0.00    -0.174 A  
HETATM    6  C   UNL     1      -9.600   9.561  66.419  1.00  0.00    -0.273 A  
HETATM    7  C   UNL     1      -9.085  10.208  68.946  1.00  0.00    -0.165 A  
HETATM    8  C   UNL     1     -10.412  10.599  66.962  1.00  0.00    -0.295 A  
HETATM    9  C   UNL     1      -8.516   8.975  67.090  1.00  0.00    -0.113 A  
HETATM   10  N   UNL     1      -8.298   9.278  68.376  1.00  0.00    -0.118 NA 
BRANCH   9  11
HETATM   11  N   UNL     1      -7.636   8.116  66.462  1.00  0.00    -0.091 NA 
HETATM   12  C   UNL     1      -6.625   8.647  65.531  1.00  0.00    -0.063 C  
HETATM   13  C   UNL     1      -7.817   6.054  65.071  1.00  0.00    -0.108 C  
HETATM   14  C   UNL     1      -6.651   7.935  64.154  1.00  0.00    -0.061 C  
HETATM   15  N   UNL     1      -6.703   6.456  64.189  1.00  0.00    -0.037 NA 
HETATM   16  C   UNL     1      -5.434   5.878  64.626  1.00  0.00    -0.017 C  
HETATM   17  C   UNL     1      -7.786   6.657  66.496  1.00  0.00    -0.104 C  
ENDBRANCH   9  11
BRANCH   8  18
HETATM   18  C   UNL     1     -11.394  11.293  66.025  1.00  0.00    -0.004 A  
HETATM   19  C   UNL     1     -13.364  12.823  65.910  1.00  0.00     2.186 A  
HETATM   20  C   UNL     1     -13.397  12.735  64.535  1.00  0.00     0.492 A  
HETATM   21  C   UNL     1     -12.403  12.101  66.629  1.00  0.00     0.637 A  
HETATM   22  C   UNL     1     -12.453  11.947  63.895  1.00  0.00    -0.478 A  
HETATM   23  C   UNL     1     -11.436  11.255  64.608  1.00  0.00     0.024 A  
HETATM   24  C   UNL     1     -10.478  10.513  63.724  1.00  0.00     0.125 C  
ENDBRANCH   8  18
ENDBRANCH   2   5
BRANCH   4  25
HETATM   25  C   UNL     1      -9.220  13.927  68.243  1.00  0.00    -0.207 C  
HETATM   26  C   UNL     1      -8.772  12.765  67.319  1.00  0.00    -0.200 C  
HETATM   27  C   UNL     1      -7.947  14.473  68.900  1.00  0.00    -0.126 C  
BRANCH  25  28
HETATM   28  C   UNL     1      -9.796  15.124  67.436  1.00  0.00    -0.224 A  
HETATM   29  C   UNL     1     -11.000  15.961  65.464  1.00  0.00    -0.248 A  
HETATM   30  C   UNL     1     -10.465  14.905  66.218  1.00  0.00    -0.306 A  
HETATM   31  F   UNL     1     -10.665  19.878  66.906  1.00  0.00    -0.543 F  
HETATM   32  C   UNL     1     -11.663  15.701  64.132  1.00  0.00    -0.075 C  
HETATM   33  F   UNL     1      -8.876  19.289  67.991  1.00  0.00    -0.312 F  
HETATM   34  C   UNL     1     -10.896  17.269  65.959  1.00  0.00     0.011 A  
HETATM   35  F   UNL     1     -12.958  16.122  64.104  1.00  0.00     0.219 F  
HETATM   36  F   UNL     1     -11.693  14.383  63.787  1.00  0.00    -0.262 F  
HETATM   37  F   UNL     1     -10.830  19.072  68.918  1.00  0.00     0.021 F  
HETATM   38  C   UNL     1     -10.163  18.925  67.740  1.00  0.00    -0.393 C  
HETATM   39  C   UNL     1     -10.270  17.523  67.188  1.00  0.00    -0.323 A  
HETATM   40  F   UNL     1     -11.039  16.341  63.106  1.00  0.00     1.536 F  
HETATM   41  C   UNL     1      -9.732  16.445  67.916  1.00  0.00    -0.235 A  
ENDBRANCH  25  28
ENDBRANCH   4  25
TORSDOF 5
ENDMDL
MODEL      257
REMARK 921   NORMALIZED FREE ENERGY PREDICTED BY IDOCK:    2.52 KCAL/MOL
REMARK 922        TOTAL FREE ENERGY PREDICTED BY IDOCK:    1.62 KCAL/MOL
REMARK 923 INTER-LIGAND FREE ENERGY PREDICTED BY IDOCK:    0.26 KCAL/MOL
REMARK 924 INTRA-LIGAND FREE ENERGY PREDICTED BY IDOCK:    1.36 KCAL/MOL
REMARK 927      BINDING AFFINITY PREDICTED BY RF-SCORE:    0.00 PKD
ROOT
HETATM    1  C   UNL     1     -12.878  12.839  65.994  1.00  0.00     0.794 C  
HETATM    2  N   UNL     1     -11.617  12.120  65.748  1.00  0.00    -0.373 N  
HETATM    3  O   UNL     1     -12.528  11.300  63.848  1.00  0.00     0.210 OA 
HETATM    4  C   UNL     1     -11.494  11.484  64.513  1.00  0.00    -0.131 C  
ENDROOT
BRANCH   2   5
HETATM    5  C   UNL     1     -10.550  12.534  66.569  1.00  0.00    -0.242 A  
HETATM    6  C   UNL     1      -8.937  13.986  67.531  1.00  0.00    -0.195 A  
HETATM    7  C   UNL     1      -9.997  11.552  67.407  1.00  0.00    -0.190 A  
HETATM    8  C   UNL     1     -10.000  13.829  66.595  1.00  0.00    -0.279 A  
HETATM    9  C   UNL     1      -8.524  12.991  68.430  1.00  0.00    -0.118 A  
HETATM   10  N   UNL     1      -9.036  11.758  68.325  1.00  0.00    -0.184 NA 
BRANCH   9  11
HETATM   11  N   UNL     1      -7.630  13.242  69.450  1.00  0.00     0.356 NA 
HETATM   12  C   UNL     1      -7.739  14.482  70.240  1.00  0.00     0.834 C  
HETATM   13  C   UNL     1      -5.148  13.325  69.690  1.00  0.00    -0.084 C  
HETATM   14  C   UNL     1      -6.406  15.270  70.299  1.00  0.00    -0.061 C  
HETATM   15  N   UNL     1      -5.196  14.476  70.613  1.00  0.00    -0.114 NA 
HETATM   16  C   UNL     1      -5.174  14.048  72.010  1.00  0.00    -0.203 C  
HETATM   17  C   UNL     1      -6.419  12.442  69.664  1.00  0.00    -0.063 C  
ENDBRANCH   9  11
BRANCH   8  18
HETATM   18  C   UNL     1     -10.482  15.073  65.858  1.00  0.00    -0.341 A  
HETATM   19  C   UNL     1     -11.712  15.900  63.847  1.00  0.00     0.361 A  
HETATM   20  C   UNL     1     -11.524  17.212  64.228  1.00  0.00     1.571 A  
HETATM   21  C   UNL     1     -11.182  14.868  64.631  1.00  0.00    -0.349 A  
HETATM   22  C   UNL     1     -10.832  17.473  65.401  1.00  0.00     0.058 A  
HETATM   23  C   UNL     1     -10.341  16.433  66.237  1.00  0.00    -0.337 A  
HETATM   24  C   UNL     1      -9.679  16.927  67.488  1.00  0.00    -0.249 C  
ENDBRANCH   8  18
ENDBRANCH   2   5
BRANCH   4  25
HETATM   25  C   UNL     1     -10.125  11.039  63.859  1.00  0.00    -0.414 C  
HETATM   26  C   UNL     1      -9.340  12.373  63.750  1.00  0.00     0.596 C  
HETATM   27  C   UNL     1     -10.080  10.396  62.468  1.00  0.00     0.362 C  
BRANCH  25  28
HETATM   28  C   UNL     1      -9.412  10.020  64.792  1.00  0.00    -0.366 A  
HETATM   29  C   UNL     1      -9.554   8.252  66.493  1.00  0.00    -0.312 A  
HETATM   30  C   UNL     1     -10.164   9.185  65.640  1.00  0.00     0.352 A  
HETATM   31  F   UNL     1      -5.384   7.881  66.474  1.00  0.00    -0.023 F  
HETATM   32  C   UNL     1     -10.383   7.409  67.433  1.00  0.00    -0.270 C  
HETATM   33  F   UNL     1      -5.237   9.949  65.822  1.00  0.00    -0.036 F  
HETATM   34  C   UNL     1      -8.158   8.123  66.472  1.00  0.00    -0.106 A  
HETATM   35  F   UNL     1     -10.221   6.074  67.216  1.00  0.00    -0.141 F  
HETATM   36  F   UNL     1     -11.723   7.642  67.337  1.00  0.00     0.439 F  
HETATM   37  F   UNL     1      -5.426   8.358  64.354  1.00  0.00    -0.045 F  
HETATM   38  C   UNL     1      -5.875   8.773  65.570  1.00  0.00    -0.047 C  
HETATM   39  C   UNL     1      -7.379   8.911  65.613  1.00  0.00    -0.085 A  
HETATM   40  F   UNL     1     -10.062   7.618  68.739  1.00  0.00    -0.172 F  
HETATM   41  C   UNL     1      -8.016   9.847  64.778  1.00  0.00    -0.143 A  
ENDBRANCH  25  28
ENDBRANCH   4  25
TORSDOF 5
ENDMDL
MODEL      258
REMARK 921   NORMALIZED FREE ENERGY PREDICTED BY IDOCK:    2.79 KCAL/MOL
REMARK 922        TOTAL FREE ENERGY PREDICTED BY IDOCK:    1.96 KCAL/MOL
REMARK 923 INTER-LIGAND FREE ENERGY PREDICTED BY IDOCK:   -4.59 KCAL/MOL
REMARK 924 INTRA-LIGAND FREE ENERGY PREDICTED BY IDOCK:    6.55 KCAL/MOL
REMARK 927      BINDING AFFINITY PREDICTED BY RF-SCORE:    0.00 PKD
ROOT
HETATM    1  C   UNL     1      -8.766   4.162  68.797  1.00  0.00    -0.096 C  
HETATM    2  N   UNL     1      -9.123   5.448  69.417  1.00  0.00    -0.107 N  
HETATM    3  O   UNL     1     -10.371   4.306  70.918  1.00  0.00    -0.072 OA 
HETATM    4  C   UNL     1      -9.831   5.385  70.617  1.00  0.00    -0.191 C  
ENDROOT
BRANCH   2   5
HETATM    5  C   UNL     1      -8.337   6.533  68.983  1.00  0.00    -0.116 A  
HETATM    6  C   UNL     1      -7.029   7.867  67.519  1.00  0.00    -0.075 A  
HETATM    7  C   UNL     1      -8.106   7.546  69.928  1.00  0.00    -0.129 A  
HETATM    8  C   UNL     1      -7.765   6.661  67.703  1.00  0.00    -0.107 A  
HETATM    9  C   UNL     1      -6.950   8.897  68.469  1.00  0.00    -0.065 A  
HETATM   10  N   UNL     1      -7.459   8.702  69.692  1.00  0.00    -0.066 NA 
BRANCH   9  11
HETATM   11  N   UNL     1      -6.395  10.127  68.180  1.00  0.00    -0.053 NA 
HETATM   12  C   UNL     1      -6.072  11.066  69.269  1.00  0.00    -0.050 C  
HETATM   13  C   UNL     1      -6.963  12.056  66.704  1.00  0.00     0.154 C  
HETATM   14  C   UNL     1      -6.687  12.471  69.047  1.00  0.00    -0.098 C  
HETATM   15  N   UNL     1      -6.510  13.051  67.696  1.00  0.00    -0.151 NA 
HETATM   16  C   UNL     1      -5.127  13.458  67.458  1.00  0.00     0.098 C  
HETATM   17  C   UNL     1      -6.305  10.659  66.816  1.00  0.00    -0.084 C  
ENDBRANCH   9  11
BRANCH   8  18
HETATM   18  C   UNL     1      -7.948   5.752  66.494  1.00  0.00    -0.102 A  
HETATM   19  C   UNL     1      -6.781   4.226  64.898  1.00  0.00    -0.048 A  
HETATM   20  C   UNL     1      -7.957   3.974  64.224  1.00  0.00    -0.086 A  
HETATM   21  C   UNL     1      -6.780   5.110  65.985  1.00  0.00    -0.053 A  
HETATM   22  C   UNL     1      -9.120   4.588  64.660  1.00  0.00    -0.151 A  
HETATM   23  C   UNL     1      -9.144   5.441  65.798  1.00  0.00    -0.160 A  
HETATM   24  C   UNL     1     -10.513   5.951  66.140  1.00  0.00     0.035 C  
ENDBRANCH   8  18
ENDBRANCH   2   5
BRANCH   4  25
HETATM   25  C   UNL     1      -9.942   6.565  71.664  1.00  0.00    -0.194 C  
HETATM   26  C   UNL     1      -8.460   6.862  72.012  1.00  0.00    -0.110 C  
HETATM   27  C   UNL     1     -10.671   6.377  72.999  1.00  0.00    -0.286 C  
BRANCH  25  28
HETATM   28  C   UNL     1     -10.639   7.784  70.997  1.00  0.00    -0.226 A  
HETATM   29  C   UNL     1     -12.133   9.726  71.179  1.00  0.00    -0.460 A  
HETATM   30  C   UNL     1     -11.490   8.616  71.747  1.00  0.00    -0.394 A  
HETATM   31  F   UNL     1     -11.454  10.644  67.151  1.00  0.00    -0.335 F  
HETATM   32  C   UNL     1     -13.086  10.568  71.995  1.00  0.00    -0.406 C  
HETATM   33  F   UNL     1     -11.022   8.546  66.781  1.00  0.00    -0.297 F  
HETATM   34  C   UNL     1     -11.891  10.036  69.833  1.00  0.00    -0.141 A  
HETATM   35  F   UNL     1     -12.699  11.872  72.066  1.00  0.00    -0.388 F  
HETATM   36  F   UNL     1     -13.216  10.148  73.285  1.00  0.00     0.716 F  
HETATM   37  F   UNL     1      -9.430   9.890  67.398  1.00  0.00    -0.153 F  
HETATM   38  C   UNL     1     -10.738   9.582  67.616  1.00  0.00    -0.250 C  
HETATM   39  C   UNL     1     -11.019   9.252  69.063  1.00  0.00    -0.060 A  
HETATM   40  F   UNL     1     -14.345  10.578  71.478  1.00  0.00     0.390 F  
HETATM   41  C   UNL     1     -10.398   8.138  69.657  1.00  0.00    -0.221 A  
ENDBRANCH  25  28
ENDBRANCH   4  25
TORSDOF 5
ENDMDL
MODEL      259
REMARK 921   NORMALIZED FREE ENERGY PREDICTED BY IDOCK:    3.09 KCAL/MOL
REMARK 922        TOTAL FREE ENERGY PREDICTED BY IDOCK:    2.35 KCAL/MOL
REMARK 923 INTER-LIGAND FREE ENERGY PREDICTED BY IDOCK:   -3.00 KCAL/MOL
REMARK 924 INTRA-LIGAND FREE ENERGY PREDICTED BY IDOCK:    5.35 KCAL/MOL
REMARK 927      BINDING AFFINITY PREDICTED BY RF-SCORE:    0.00 PKD
ROOT
HETATM    1  C   UNL     1      -8.787   9.830  64.503  1.00  0.00    -0.216 C  
HETATM    2  N   UNL     1      -8.510  10.273  65.879  1.00  0.00    -0.144 N  
HETATM    3  O   UNL     1      -9.077  12.370  65.252  1.00  0.00     0.250 OA 
HETATM    4  C   UNL     1      -8.857  11.587  66.192  1.00  0.00    -0.167 C  
ENDROOT
BRANCH   2   5
HETATM    5  C   UNL     1      -8.362   9.219  66.803  1.00  0.00    -0.123 A  
HETATM    6  C   UNL     1      -7.741   7.087  67.641  1.00  0.00    -0.112 A  
HETATM    7  C   UNL     1      -8.861   9.455  68.094  1.00  0.00    -0.124 A  
HETATM    8  C   UNL     1      -7.781   7.969  66.522  1.00  0.00    -0.093 A  
HETATM    9  C   UNL     1      -8.141   7.441  68.939  1.00  0.00    -0.127 A  
HETATM   10  N   UNL     1      -8.745   8.619  69.141  1.00  0.00    -0.135 NA 
BRANCH   9  11
HETATM   11  N   UNL     1      -7.905   6.631  70.031  1.00  0.00    -0.109 NA 
HETATM   12  C   UNL     1      -8.384   7.031  71.365  1.00  0.00    -0.113 C  
HETATM   13  C   UNL     1      -5.911   5.564  71.083  1.00  0.00    -0.024 C  
HETATM   14  C   UNL     1      -7.262   7.007  72.434  1.00  0.00    -0.073 C  
HETATM   15  N   UNL     1      -6.409   5.797  72.453  1.00  0.00    -0.051 NA 
HETATM   16  C   UNL     1      -7.127   4.635  72.970  1.00  0.00    -0.078 C  
HETATM   17  C   UNL     1      -6.999   5.477  69.986  1.00  0.00    -0.061 C  
ENDBRANCH   9  11
BRANCH   8  18
HETATM   18  C   UNL     1      -7.092   7.516  65.240  1.00  0.00    -0.063 A  
HETATM   19  C   UNL     1      -5.338   8.091  63.558  1.00  0.00    -0.049 A  
HETATM   20  C   UNL     1      -5.604   6.946  62.836  1.00  0.00    -0.032 A  
HETATM   21  C   UNL     1      -6.082   8.373  64.710  1.00  0.00    -0.063 A  
HETATM   22  C   UNL     1      -6.591   6.086  63.292  1.00  0.00    -0.032 A  
HETATM   23  C   UNL     1      -7.313   6.330  64.493  1.00  0.00    -0.070 A  
HETATM   24  C   UNL     1      -8.289   5.246  64.840  1.00  0.00    -0.144 C  
ENDBRANCH   8  18
ENDBRANCH   2   5
BRANCH   4  25
HETATM   25  C   UNL     1      -9.063  12.142  67.659  1.00  0.00    -0.181 C  
HETATM   26  C   UNL     1      -7.627  12.553  68.081  1.00  0.00    -0.127 C  
HETATM   27  C   UNL     1      -9.602  11.246  68.779  1.00  0.00    -0.160 C  
BRANCH  25  28
HETATM   28  C   UNL     1     -10.030  13.358  67.621  1.00  0.00    -0.229 A  
HETATM   29  C   UNL     1     -11.670  14.793  68.756  1.00  0.00    -0.354 A  
HETATM   30  C   UNL     1     -10.790  13.699  68.754  1.00  0.00    -0.279 A  
HETATM   31  F   UNL     1     -12.000  17.159  65.318  1.00  0.00     1.055 F  
HETATM   32  C   UNL     1     -12.516  15.101  69.969  1.00  0.00    -0.277 C  
HETATM   33  F   UNL     1     -11.411  15.443  64.121  1.00  0.00    -0.299 F  
HETATM   34  C   UNL     1     -11.766  15.589  67.606  1.00  0.00    -0.053 A  
HETATM   35  F   UNL     1     -12.282  16.348  70.464  1.00  0.00    -0.209 F  
HETATM   36  F   UNL     1     -12.310  14.244  71.009  1.00  0.00    -0.343 F  
HETATM   37  F   UNL     1      -9.896  16.769  64.938  1.00  0.00     0.271 F  
HETATM   38  C   UNL     1     -11.079  16.160  65.229  1.00  0.00    -0.181 C  
HETATM   39  C   UNL     1     -10.996  15.303  66.470  1.00  0.00    -0.295 A  
HETATM   40  F   UNL     1     -13.849  15.048  69.701  1.00  0.00     0.904 F  
HETATM   41  C   UNL     1     -10.131  14.193  66.493  1.00  0.00    -0.283 A  
ENDBRANCH  25  28
ENDBRANCH   4  25
TORSDOF 5
ENDMDL
MODEL      260
REMARK 921   NORMALIZED FREE ENERGY PREDICTED BY IDOCK:    3.58 KCAL/MOL
REMARK 922        TOTAL FREE ENERGY PREDICTED BY IDOCK:    2.98 KCAL/MOL
REMARK 923 INTER-LIGAND FREE ENERGY PREDICTED BY IDOCK:   -3.57 KCAL/MOL
REMARK 924 INTRA-LIGAND FREE ENERGY PREDICTED BY IDOCK:    6.55 KCAL/MOL
REMARK 927      BINDING AFFINITY PREDICTED BY RF-SCORE:    0.00 PKD
ROOT
HETATM    1  C   UNL     1      -6.594   3.927  69.219  1.00  0.00    -0.037 C  
HETATM    2  N   UNL     1      -7.604   4.868  69.731  1.00  0.00    -0.056 N  
HETATM    3  O   UNL     1      -7.938   3.464  71.472  1.00  0.00    -0.056 OA 
HETATM    4  C   UNL     1      -8.118   4.600  70.999  1.00  0.00    -0.086 C  
ENDROOT
BRANCH   2   5
HETATM    5  C   UNL     1      -7.588   6.127  69.099  1.00  0.00    -0.095 A  
HETATM    6  C   UNL     1      -7.471   7.713  67.337  1.00  0.00    -0.100 A  
HETATM    7  C   UNL     1      -7.721   7.243  69.941  1.00  0.00    -0.103 A  
HETATM    8  C   UNL     1      -7.434   6.340  67.716  1.00  0.00    -0.093 A  
HETATM    9  C   UNL     1      -7.738   8.769  68.222  1.00  0.00    -0.100 A  
HETATM   10  N   UNL     1      -7.817   8.521  69.535  1.00  0.00    -0.095 NA 
BRANCH   9  11
HETATM   11  N   UNL     1      -7.960  10.059  67.785  1.00  0.00    -0.105 NA 
HETATM   12  C   UNL     1      -8.493  11.072  68.714  1.00  0.00    -0.144 C  
HETATM   13  C   UNL     1      -9.211  11.137  65.915  1.00  0.00    -0.206 C  
HETATM   14  C   UNL     1      -9.746  11.792  68.156  1.00  0.00    -0.192 C  
HETATM   15  N   UNL     1      -9.654  12.267  66.757  1.00  0.00    -0.212 NA 
HETATM   16  C   UNL     1      -8.758  13.415  66.631  1.00  0.00     0.004 C  
HETATM   17  C   UNL     1      -7.905  10.442  66.370  1.00  0.00    -0.128 C  
ENDBRANCH   9  11
BRANCH   8  18
HETATM   18  C   UNL     1      -7.368   5.300  66.604  1.00  0.00    -0.086 A  
HETATM   19  C   UNL     1      -8.508   3.318  65.599  1.00  0.00    -0.106 A  
HETATM   20  C   UNL     1      -7.533   3.204  64.630  1.00  0.00    -0.075 A  
HETATM   21  C   UNL     1      -8.408   4.324  66.569  1.00  0.00    -0.101 A  
HETATM   22  C   UNL     1      -6.487   4.113  64.628  1.00  0.00    -0.042 A  
HETATM   23  C   UNL     1      -6.404   5.175  65.571  1.00  0.00    -0.035 A  
HETATM   24  C   UNL     1      -5.230   6.083  65.355  1.00  0.00    -0.013 C  
ENDBRANCH   8  18
ENDBRANCH   2   5
BRANCH   4  25
HETATM   25  C   UNL     1      -8.853   5.657  71.917  1.00  0.00    -0.137 C  
HETATM   26  C   UNL     1      -7.727   6.670  72.254  1.00  0.00    -0.096 C  
HETATM   27  C   UNL     1      -9.481   5.247  73.254  1.00  0.00    -0.148 C  
BRANCH  25  28
HETATM   28  C   UNL     1     -10.012   6.318  71.119  1.00  0.00    -0.210 A  
HETATM   29  C   UNL     1     -11.114   6.763  68.968  1.00  0.00    -0.254 A  
HETATM   30  C   UNL     1     -10.080   6.182  69.720  1.00  0.00    -0.229 A  
HETATM   31  F   UNL     1     -14.122   8.907  70.937  1.00  0.00    -0.288 F  
HETATM   32  C   UNL     1     -11.131   6.648  67.462  1.00  0.00    -0.292 C  
HETATM   33  F   UNL     1     -12.715   9.350  72.534  1.00  0.00    -0.428 F  
HETATM   34  C   UNL     1     -12.125   7.468  69.635  1.00  0.00     0.911 A  
HETATM   35  F   UNL     1     -12.257   6.039  66.999  1.00  0.00     1.204 F  
HETATM   36  F   UNL     1     -10.087   5.930  66.958  1.00  0.00    -0.139 F  
HETATM   37  F   UNL     1     -13.905   7.533  72.608  1.00  0.00     0.062 F  
HETATM   38  C   UNL     1     -13.202   8.338  71.764  1.00  0.00    -0.347 C  
HETATM   39  C   UNL     1     -12.111   7.593  71.031  1.00  0.00    -0.282 A  
HETATM   40  F   UNL     1     -11.080   7.860  66.847  1.00  0.00    -0.363 F  
HETATM   41  C   UNL     1     -11.056   7.010  71.758  1.00  0.00    -0.270 A  
ENDBRANCH  25  28
ENDBRANCH   4  25
TORSDOF 5
ENDMDL
MODEL      261
REMARK 921   NORMALIZED FREE ENERGY PREDICTED BY IDOCK:    4.02 KCAL/MOL
REMARK 922        TOTAL FREE ENERGY PREDICTED BY IDOCK:    3.55 KCAL/MOL
REMARK 923 INTER-LIGAND FREE ENERGY PREDICTED BY IDOCK:   -3.67 KCAL/MOL
REMARK 924 INTRA-LIGAND FREE ENERGY PREDICTED BY IDOCK:    7.22 KCAL/MOL
REMARK 927      BINDING AFFINITY PREDICTED BY RF-SCORE:    0.00 PKD
ROOT
HETATM    1  C   UNL     1     -10.170   4.892  72.441  1.00  0.00    -0.199 C  
HETATM    2  N   UNL     1     -10.663   6.112  71.782  1.00  0.00    -0.234 N  
HETATM    3  O   UNL     1     -12.685   5.724  72.717  1.00  0.00     0.143 OA 
HETATM    4  C   UNL     1     -11.944   6.535  72.134  1.00  0.00    -0.290 C  
ENDROOT
BRANCH   2   5
HETATM    5  C   UNL     1      -9.645   6.928  71.248  1.00  0.00    -0.165 A  
HETATM    6  C   UNL     1      -7.689   7.511  70.037  1.00  0.00    -0.094 A  
HETATM    7  C   UNL     1      -9.726   8.296  71.554  1.00  0.00    -0.191 A  
HETATM    8  C   UNL     1      -8.569   6.474  70.464  1.00  0.00    -0.143 A  
HETATM    9  C   UNL     1      -7.906   8.877  70.273  1.00  0.00    -0.104 A  
HETATM   10  N   UNL     1      -8.910   9.253  71.076  1.00  0.00    -0.267 NA 
BRANCH   9  11
HETATM   11  N   UNL     1      -7.142   9.859  69.678  1.00  0.00    -0.079 NA 
HETATM   12  C   UNL     1      -7.793  10.960  68.946  1.00  0.00    -0.142 C  
HETATM   13  C   UNL     1      -5.239   9.932  68.067  1.00  0.00    -0.039 C  
HETATM   14  C   UNL     1      -7.234  11.133  67.511  1.00  0.00    -0.101 C  
HETATM   15  N   UNL     1      -5.759  11.132  67.383  1.00  0.00    -0.047 NA 
HETATM   16  C   UNL     1      -5.167  12.356  67.918  1.00  0.00    -0.082 C  
HETATM   17  C   UNL     1      -5.684   9.760  69.539  1.00  0.00    -0.033 C  
ENDBRANCH   9  11
BRANCH   8  18
HETATM   18  C   UNL     1      -8.320   5.069  69.927  1.00  0.00    -0.081 A  
HETATM   19  C   UNL     1      -9.215   2.740  69.825  1.00  0.00    -0.206 A  
HETATM   20  C   UNL     1      -8.141   2.322  69.067  1.00  0.00    -0.067 A  
HETATM   21  C   UNL     1      -9.282   4.070  70.259  1.00  0.00    -0.210 A  
HETATM   22  C   UNL     1      -7.163   3.246  68.732  1.00  0.00    -0.049 A  
HETATM   23  C   UNL     1      -7.249   4.612  69.116  1.00  0.00    -0.052 A  
HETATM   24  C   UNL     1      -6.123   5.456  68.597  1.00  0.00    -0.022 C  
ENDBRANCH   8  18
ENDBRANCH   2   5
BRANCH   4  25
HETATM   25  C   UNL     1     -12.505   7.997  71.912  1.00  0.00    -0.364 C  
HETATM   26  C   UNL     1     -11.988   8.762  73.160  1.00  0.00     1.061 C  
HETATM   27  C   UNL     1     -14.012   8.267  71.834  1.00  0.00    -0.468 C  
BRANCH  25  28
HETATM   28  C   UNL     1     -11.927   8.579  70.592  1.00  0.00    -0.047 A  
HETATM   29  C   UNL     1     -10.934   8.210  68.375  1.00  0.00     0.166 A  
HETATM   30  C   UNL     1     -11.459   7.720  69.581  1.00  0.00     0.266 A  
HETATM   31  F   UNL     1     -10.812  12.344  67.727  1.00  0.00    -0.211 F  
HETATM   32  C   UNL     1     -10.388   7.265  67.330  1.00  0.00    -0.260 C  
HETATM   33  F   UNL     1     -10.718  12.644  69.877  1.00  0.00     0.129 F  
HETATM   34  C   UNL     1     -10.908   9.595  68.158  1.00  0.00    -0.241 A  
HETATM   35  F   UNL     1     -11.031   7.380  66.136  1.00  0.00     0.277 F  
HETATM   36  F   UNL     1     -10.485   5.951  67.680  1.00  0.00    -0.163 F  
HETATM   37  F   UNL     1     -12.646  12.504  68.883  1.00  0.00    -0.030 F  
HETATM   38  C   UNL     1     -11.391  11.974  68.902  1.00  0.00    -0.278 C  
HETATM   39  C   UNL     1     -11.400  10.480  69.128  1.00  0.00    -0.319 A  
HETATM   40  F   UNL     1      -9.070   7.484  67.069  1.00  0.00    -0.122 F  
HETATM   41  C   UNL     1     -11.910   9.961  70.332  1.00  0.00    -0.310 A  
ENDBRANCH  25  28
ENDBRANCH   4  25
TORSDOF 5
ENDMDL
MODEL      262
REMARK 921   NORMALIZED FREE ENERGY PREDICTED BY IDOCK:    4.08 KCAL/MOL
REMARK 922        TOTAL FREE ENERGY PREDICTED BY IDOCK:    3.63 KCAL/MOL
REMARK 923 INTER-LIGAND FREE ENERGY PREDICTED BY IDOCK:   -1.55 KCAL/MOL
REMARK 924 INTRA-LIGAND FREE ENERGY PREDICTED BY IDOCK:    5.19 KCAL/MOL
REMARK 927      BINDING AFFINITY PREDICTED BY RF-SCORE:    0.00 PKD
ROOT
HETATM    1  C   UNL     1      -6.468   5.113  68.466  1.00  0.00    -0.040 C  
HETATM    2  N   UNL     1      -6.845   6.519  68.682  1.00  0.00    -0.068 N  
HETATM    3  O   UNL     1      -5.137   7.120  67.328  1.00  0.00    -0.012 OA 
HETATM    4  C   UNL     1      -6.182   7.468  67.905  1.00  0.00    -0.048 C  
ENDROOT
BRANCH   2   5
HETATM    5  C   UNL     1      -8.105   6.689  69.290  1.00  0.00    -0.116 A  
HETATM    6  C   UNL     1     -10.265   6.122  70.093  1.00  0.00    -0.254 A  
HETATM    7  C   UNL     1      -8.386   7.976  69.779  1.00  0.00    -0.122 A  
HETATM    8  C   UNL     1      -9.085   5.688  69.422  1.00  0.00    -0.134 A  
HETATM    9  C   UNL     1     -10.423   7.391  70.671  1.00  0.00    -0.215 A  
HETATM   10  N   UNL     1      -9.487   8.327  70.466  1.00  0.00    -0.165 NA 
BRANCH   9  11
HETATM   11  N   UNL     1     -11.496   7.705  71.480  1.00  0.00    -0.258 NA 
HETATM   12  C   UNL     1     -12.791   7.029  71.286  1.00  0.00    -0.323 C  
HETATM   13  C   UNL     1     -12.699   9.786  72.147  1.00  0.00    -0.326 C  
HETATM   14  C   UNL     1     -13.967   8.026  71.132  1.00  0.00    -0.079 C  
HETATM   15  N   UNL     1     -14.019   9.126  72.122  1.00  0.00    -0.421 NA 
HETATM   16  C   UNL     1     -14.407   8.647  73.447  1.00  0.00     1.324 C  
HETATM   17  C   UNL     1     -11.493   8.849  72.399  1.00  0.00    -0.136 C  
ENDBRANCH   9  11
BRANCH   8  18
HETATM   18  C   UNL     1      -8.979   4.212  69.060  1.00  0.00    -0.163 A  
HETATM   19  C   UNL     1      -8.570   2.595  67.201  1.00  0.00    -0.120 A  
HETATM   20  C   UNL     1      -8.720   1.522  68.054  1.00  0.00    -0.113 A  
HETATM   21  C   UNL     1      -8.721   3.898  67.692  1.00  0.00    -0.121 A  
HETATM   22  C   UNL     1      -8.993   1.766  69.390  1.00  0.00    -0.144 A  
HETATM   23  C   UNL     1      -9.091   3.085  69.914  1.00  0.00    -0.196 A  
HETATM   24  C   UNL     1      -9.327   3.130  71.395  1.00  0.00    -0.207 C  
ENDBRANCH   8  18
ENDBRANCH   2   5
BRANCH   4  25
HETATM   25  C   UNL     1      -6.697   8.940  67.641  1.00  0.00    -0.066 C  
HETATM   26  C   UNL     1      -5.649   9.503  66.644  1.00  0.00    -0.046 C  
HETATM   27  C   UNL     1      -6.802   9.961  68.780  1.00  0.00    -0.054 C  
BRANCH  25  28
HETATM   28  C   UNL     1      -8.121   8.886  67.021  1.00  0.00    -0.109 A  
HETATM   29  C   UNL     1      -9.969  10.022  65.867  1.00  0.00    -0.339 A  
HETATM   30  C   UNL     1      -8.688  10.035  66.439  1.00  0.00    -0.140 A  
HETATM   31  F   UNL     1     -12.154   6.450  65.822  1.00  0.00     1.905 F  
HETATM   32  C   UNL     1     -10.575  11.284  65.300  1.00  0.00    -0.261 C  
HETATM   33  F   UNL     1     -11.065   5.802  67.588  1.00  0.00    -0.325 F  
HETATM   34  C   UNL     1     -10.690   8.819  65.843  1.00  0.00     1.592 A  
HETATM   35  F   UNL     1     -10.888  11.164  63.980  1.00  0.00    -0.406 F  
HETATM   36  F   UNL     1      -9.755  12.370  65.389  1.00  0.00    -0.251 F  
HETATM   37  F   UNL     1     -10.269   5.388  65.609  1.00  0.00    -0.120 F  
HETATM   38  C   UNL     1     -10.902   6.340  66.349  1.00  0.00     0.109 C  
HETATM   39  C   UNL     1     -10.143   7.645  66.380  1.00  0.00    -0.097 A  
HETATM   40  F   UNL     1     -11.729  11.636  65.929  1.00  0.00    -0.355 F  
HETATM   41  C   UNL     1      -8.860   7.691  66.957  1.00  0.00    -0.135 A  
ENDBRANCH  25  28
ENDBRANCH   4  25
TORSDOF 5
ENDMDL
MODEL      263
REMARK 921   NORMALIZED FREE ENERGY PREDICTED BY IDOCK:    4.43 KCAL/MOL
REMARK 922        TOTAL FREE ENERGY PREDICTED BY IDOCK:    4.08 KCAL/MOL
REMARK 923 INTER-LIGAND FREE ENERGY PREDICTED BY IDOCK:   -1.72 KCAL/MOL
REMARK 924 INTRA-LIGAND FREE ENERGY PREDICTED BY IDOCK:    5.80 KCAL/MOL
REMARK 927      BINDING AFFINITY PREDICTED BY RF-SCORE:    0.00 PKD
ROOT
HETATM    1  C   UNL     1      -6.554   5.177  68.369  1.00  0.00    -0.045 C  
HETATM    2  N   UNL     1      -6.857   6.595  68.624  1.00  0.00    -0.068 N  
HETATM    3  O   UNL     1      -5.131   7.143  67.270  1.00  0.00    -0.012 OA 
HETATM    4  C   UNL     1      -6.153   7.528  67.866  1.00  0.00    -0.043 C  
ENDROOT
BRANCH   2   5
HETATM    5  C   UNL     1      -8.102   6.812  69.248  1.00  0.00    -0.120 A  
HETATM    6  C   UNL     1     -10.216   6.302  70.198  1.00  0.00    -0.237 A  
HETATM    7  C   UNL     1      -8.409   8.145  69.565  1.00  0.00    -0.122 A  
HETATM    8  C   UNL     1      -9.045   5.812  69.550  1.00  0.00    -0.143 A  
HETATM    9  C   UNL     1     -10.397   7.633  70.601  1.00  0.00    -0.205 A  
HETATM   10  N   UNL     1      -9.499   8.558  70.236  1.00  0.00    -0.163 NA 
BRANCH   9  11
HETATM   11  N   UNL     1     -11.453   8.027  71.397  1.00  0.00    -0.252 NA 
HETATM   12  C   UNL     1     -12.408   7.026  71.906  1.00  0.00    -0.323 C  
HETATM   13  C   UNL     1     -13.305   9.690  71.238  1.00  0.00    -0.330 C  
HETATM   14  C   UNL     1     -13.880   7.393  71.594  1.00  0.00    -0.382 C  
HETATM   15  N   UNL     1     -14.278   8.789  71.886  1.00  0.00    -0.408 NA 
HETATM   16  C   UNL     1     -14.369   9.038  73.323  1.00  0.00     0.997 C  
HETATM   17  C   UNL     1     -11.821   9.433  71.595  1.00  0.00    -0.394 C  
ENDBRANCH   9  11
BRANCH   8  18
HETATM   18  C   UNL     1      -8.903   4.303  69.391  1.00  0.00    -0.138 A  
HETATM   19  C   UNL     1      -8.966   2.413  67.760  1.00  0.00    -0.190 A  
HETATM   20  C   UNL     1      -8.700   1.498  68.756  1.00  0.00    -0.100 A  
HETATM   21  C   UNL     1      -9.088   3.771  68.080  1.00  0.00    -0.187 A  
HETATM   22  C   UNL     1      -8.532   1.955  70.054  1.00  0.00    -0.083 A  
HETATM   23  C   UNL     1      -8.593   3.338  70.383  1.00  0.00    -0.110 A  
HETATM   24  C   UNL     1      -8.320   3.626  71.829  1.00  0.00    -0.081 C  
ENDBRANCH   8  18
ENDBRANCH   2   5
BRANCH   4  25
HETATM   25  C   UNL     1      -6.594   9.031  67.645  1.00  0.00    -0.061 C  
HETATM   26  C   UNL     1      -5.612   9.526  66.550  1.00  0.00    -0.049 C  
HETATM   27  C   UNL     1      -6.525  10.055  68.783  1.00  0.00    -0.045 C  
BRANCH  25  28
HETATM   28  C   UNL     1      -8.071   9.070  67.161  1.00  0.00    -0.106 A  
HETATM   29  C   UNL     1     -10.140   7.876  66.583  1.00  0.00    -0.310 A  
HETATM   30  C   UNL     1      -8.804   7.878  67.014  1.00  0.00    -0.140 A  
HETATM   31  F   UNL     1     -12.034  11.522  65.776  1.00  0.00    -0.160 F  
HETATM   32  C   UNL     1     -10.884   6.578  66.380  1.00  0.00     0.246 C  
HETATM   33  F   UNL     1     -10.094  12.391  65.321  1.00  0.00    -0.272 F  
HETATM   34  C   UNL     1     -10.772   9.101  66.327  1.00  0.00     0.366 A  
HETATM   35  F   UNL     1     -12.001   6.490  67.154  1.00  0.00     0.165 F  
HETATM   36  F   UNL     1     -10.141   5.472  66.673  1.00  0.00    -0.154 F  
HETATM   37  F   UNL     1     -10.840  12.408  67.362  1.00  0.00    -0.227 F  
HETATM   38  C   UNL     1     -10.759  11.639  66.241  1.00  0.00    -0.272 C  
HETATM   39  C   UNL     1     -10.086  10.312  66.500  1.00  0.00    -0.290 A  
HETATM   40  F   UNL     1     -11.304   6.414  65.095  1.00  0.00     2.865 F  
HETATM   41  C   UNL     1      -8.744  10.282  66.921  1.00  0.00    -0.131 A  
ENDBRANCH  25  28
ENDBRANCH   4  25
TORSDOF 5
ENDMDL
MODEL      264
REMARK 921   NORMALIZED FREE ENERGY PREDICTED BY IDOCK:    4.62 KCAL/MOL
REMARK 922        TOTAL FREE ENERGY PREDICTED BY IDOCK:    4.33 KCAL/MOL
REMARK 923 INTER-LIGAND FREE ENERGY PREDICTED BY IDOCK:   -2.90 KCAL/MOL
REMARK 924 INTRA-LIGAND FREE ENERGY PREDICTED BY IDOCK:    7.24 KCAL/MOL
REMARK 927      BINDING AFFINITY PREDICTED BY RF-SCORE:    0.00 PKD
ROOT
HETATM    1  C   UNL     1      -8.695   2.489  68.005  1.00  0.00    -0.106 C  
HETATM    2  N   UNL     1      -8.874   3.753  68.738  1.00  0.00    -0.101 N  
HETATM    3  O   UNL     1      -9.704   2.560  70.470  1.00  0.00    -0.107 OA 
HETATM    4  C   UNL     1      -9.252   3.649  70.075  1.00  0.00    -0.153 C  
ENDROOT
BRANCH   2   5
HETATM    5  C   UNL     1      -8.218   4.854  68.151  1.00  0.00    -0.089 A  
HETATM    6  C   UNL     1      -7.392   6.279  66.443  1.00  0.00    -0.085 A  
HETATM    7  C   UNL     1      -7.641   5.775  69.041  1.00  0.00    -0.089 A  
HETATM    8  C   UNL     1      -8.088   5.079  66.768  1.00  0.00    -0.108 A  
HETATM    9  C   UNL     1      -6.956   7.220  67.389  1.00  0.00    -0.079 A  
HETATM   10  N   UNL     1      -7.048   6.931  68.693  1.00  0.00    -0.083 NA 
BRANCH   9  11
HETATM   11  N   UNL     1      -6.464   8.458  67.027  1.00  0.00    -0.057 NA 
HETATM   12  C   UNL     1      -6.981   9.676  67.675  1.00  0.00    -0.087 C  
HETATM   13  C   UNL     1      -6.174   9.728  64.900  1.00  0.00    -0.096 C  
HETATM   14  C   UNL     1      -7.456  10.739  66.652  1.00  0.00    -0.135 C  
HETATM   15  N   UNL     1      -6.535  11.015  65.526  1.00  0.00     0.074 NA 
HETATM   16  C   UNL     1      -5.351  11.752  65.962  1.00  0.00     0.542 C  
HETATM   17  C   UNL     1      -5.597   8.660  65.861  1.00  0.00    -0.045 C  
ENDBRANCH   9  11
BRANCH   8  18
HETATM   18  C   UNL     1      -8.701   4.284  65.622  1.00  0.00    -0.120 A  
HETATM   19  C   UNL     1     -10.836   3.676  64.478  1.00  0.00     0.006 A  
HETATM   20  C   UNL     1     -10.165   2.895  63.562  1.00  0.00    -0.177 A  
HETATM   21  C   UNL     1     -10.121   4.328  65.490  1.00  0.00    -0.235 A  
HETATM   22  C   UNL     1      -8.785   2.797  63.654  1.00  0.00    -0.085 A  
HETATM   23  C   UNL     1      -8.040   3.501  64.640  1.00  0.00    -0.090 A  
HETATM   24  C   UNL     1      -6.557   3.310  64.526  1.00  0.00    -0.035 C  
ENDBRANCH   8  18
ENDBRANCH   2   5
BRANCH   4  25
HETATM   25  C   UNL     1      -9.085   4.795  71.153  1.00  0.00    -0.180 C  
HETATM   26  C   UNL     1      -7.557   5.064  71.140  1.00  0.00    -0.086 C  
HETATM   27  C   UNL     1      -9.472   4.570  72.619  1.00  0.00    -0.166 C  
BRANCH  25  28
HETATM   28  C   UNL     1      -9.900   6.043  70.712  1.00  0.00    -0.221 A  
HETATM   29  C   UNL     1     -10.620   7.579  68.935  1.00  0.00    -0.184 A  
HETATM   30  C   UNL     1      -9.893   6.459  69.369  1.00  0.00    -0.170 A  
HETATM   31  F   UNL     1     -12.933   9.711  71.697  1.00  0.00    -0.360 F  
HETATM   32  C   UNL     1     -10.549   8.036  67.497  1.00  0.00    -0.232 C  
HETATM   33  F   UNL     1     -11.595   9.051  73.277  1.00  0.00     0.551 F  
HETATM   34  C   UNL     1     -11.403   8.281  69.862  1.00  0.00     0.064 A  
HETATM   35  F   UNL     1     -11.769   8.045  66.892  1.00  0.00     0.858 F  
HETATM   36  F   UNL     1      -9.752   7.253  66.715  1.00  0.00    -0.195 F  
HETATM   37  F   UNL     1     -13.306   7.832  72.723  1.00  0.00     0.093 F  
HETATM   38  C   UNL     1     -12.315   8.611  72.209  1.00  0.00    -0.382 C  
HETATM   39  C   UNL     1     -11.464   7.873  71.202  1.00  0.00    -0.297 A  
HETATM   40  F   UNL     1     -10.061   9.301  67.377  1.00  0.00    -0.209 F  
HETATM   41  C   UNL     1     -10.716   6.754  71.611  1.00  0.00    -0.252 A  
ENDBRANCH  25  28
ENDBRANCH   4  25
TORSDOF 5
ENDMDL
MODEL      265
REMARK 921   NORMALIZED FREE ENERGY PREDICTED BY IDOCK:    4.91 KCAL/MOL
REMARK 922        TOTAL FREE ENERGY PREDICTED BY IDOCK:    4.71 KCAL/MOL
REMARK 923 INTER-LIGAND FREE ENERGY PREDICTED BY IDOCK:   -1.69 KCAL/MOL
REMARK 924 INTRA-LIGAND FREE ENERGY PREDICTED BY IDOCK:    6.39 KCAL/MOL
REMARK 927      BINDING AFFINITY PREDICTED BY RF-SCORE:    0.00 PKD
ROOT
HETATM    1  C   UNL     1      -6.085  12.379  70.391  1.00  0.00    -0.011 C  
HETATM    2  N   UNL     1      -7.138  11.950  69.457  1.00  0.00     0.046 N  
HETATM    3  O   UNL     1      -7.127   9.929  70.471  1.00  0.00    -0.167 OA 
HETATM    4  C   UNL     1      -7.719  10.706  69.702  1.00  0.00    -0.070 C  
ENDROOT
BRANCH   2   5
HETATM    5  C   UNL     1      -7.728  13.004  68.732  1.00  0.00     0.004 A  
HETATM    6  C   UNL     1      -8.575  14.199  66.864  1.00  0.00    -0.157 A  
HETATM    7  C   UNL     1      -8.101  14.134  69.479  1.00  0.00     0.467 A  
HETATM    8  C   UNL     1      -7.946  13.013  67.342  1.00  0.00    -0.173 A  
HETATM    9  C   UNL     1      -9.039  15.233  67.691  1.00  0.00    -0.183 A  
HETATM   10  N   UNL     1      -8.754  15.207  68.999  1.00  0.00    -0.204 NA 
BRANCH   9  11
HETATM   11  N   UNL     1      -9.817  16.268  67.212  1.00  0.00    -0.239 NA 
HETATM   12  C   UNL     1     -10.893  15.997  66.243  1.00  0.00    -0.166 C  
HETATM   13  C   UNL     1      -9.405  18.471  66.115  1.00  0.00    -0.143 C  
HETATM   14  C   UNL     1     -10.796  16.888  64.978  1.00  0.00    -0.064 C  
HETATM   15  N   UNL     1     -10.567  18.331  65.216  1.00  0.00    -0.454 NA 
HETATM   16  C   UNL     1     -11.753  18.986  65.764  1.00  0.00     2.695 C  
HETATM   17  C   UNL     1      -9.493  17.681  67.443  1.00  0.00    -0.256 C  
ENDBRANCH   9  11
BRANCH   8  18
HETATM   18  C   UNL     1      -7.715  11.883  66.345  1.00  0.00     0.198 A  
HETATM   19  C   UNL     1      -8.752  10.547  64.507  1.00  0.00    -0.190 A  
HETATM   20  C   UNL     1      -7.603   9.800  64.354  1.00  0.00    -0.135 A  
HETATM   21  C   UNL     1      -8.807  11.541  65.492  1.00  0.00     0.036 A  
HETATM   22  C   UNL     1      -6.517  10.074  65.170  1.00  0.00    -0.115 A  
HETATM   23  C   UNL     1      -6.539  11.119  66.134  1.00  0.00    -0.022 A  
HETATM   24  C   UNL     1      -5.242  11.291  66.867  1.00  0.00    -0.088 C  
ENDBRANCH   8  18
ENDBRANCH   2   5
BRANCH   4  25
HETATM   25  C   UNL     1      -9.117  10.234  69.132  1.00  0.00    -0.199 C  
HETATM   26  C   UNL     1      -9.665   9.323  70.262  1.00  0.00    -0.274 C  
HETATM   27  C   UNL     1      -9.214   9.421  67.837  1.00  0.00    -0.139 C  
BRANCH  25  28
HETATM   28  C   UNL     1     -10.024  11.474  68.894  1.00  0.00    -0.117 A  
HETATM   29  C   UNL     1     -11.370  12.846  67.364  1.00  0.00    -0.355 A  
HETATM   30  C   UNL     1     -10.546  11.738  67.614  1.00  0.00    -0.237 A  
HETATM   31  F   UNL     1     -12.369  15.409  70.520  1.00  0.00    -0.317 F  
HETATM   32  C   UNL     1     -11.871  13.137  65.968  1.00  0.00    -0.407 C  
HETATM   33  F   UNL     1     -10.522  14.846  71.517  1.00  0.00    -0.005 F  
HETATM   34  C   UNL     1     -11.712  13.693  68.427  1.00  0.00    -0.393 A  
HETATM   35  F   UNL     1     -13.230  13.155  65.895  1.00  0.00    -0.124 F  
HETATM   36  F   UNL     1     -11.460  12.225  65.042  1.00  0.00    -0.338 F  
HETATM   37  F   UNL     1     -12.328  13.681  71.838  1.00  0.00    -0.324 F  
HETATM   38  C   UNL     1     -11.613  14.336  70.882  1.00  0.00    -0.084 C  
HETATM   39  C   UNL     1     -11.242  13.440  69.724  1.00  0.00    -0.044 A  
HETATM   40  F   UNL     1     -11.454  14.348  65.508  1.00  0.00    -0.316 F  
HETATM   41  C   UNL     1     -10.407  12.329  69.943  1.00  0.00     1.378 A  
ENDBRANCH  25  28
ENDBRANCH   4  25
TORSDOF 5
ENDMDL
MODEL      266
REMARK 921   NORMALIZED FREE ENERGY PREDICTED BY IDOCK:    5.01 KCAL/MOL
REMARK 922        TOTAL FREE ENERGY PREDICTED BY IDOCK:    4.83 KCAL/MOL
REMARK 923 INTER-LIGAND FREE ENERGY PREDICTED BY IDOCK:   -1.89 KCAL/MOL
REMARK 924 INTRA-LIGAND FREE ENERGY PREDICTED BY IDOCK:    6.72 KCAL/MOL
REMARK 927      BINDING AFFINITY PREDICTED BY RF-SCORE:    0.00 PKD
ROOT
HETATM    1  C   UNL     1      -8.584   8.288  66.955  1.00  0.00    -0.123 C  
HETATM    2  N   UNL     1      -8.370   9.503  66.152  1.00  0.00    -0.114 N  
HETATM    3  O   UNL     1      -9.334   8.442  64.404  1.00  0.00     0.710 OA 
HETATM    4  C   UNL     1      -8.952   9.522  64.885  1.00  0.00    -0.219 C  
ENDROOT
BRANCH   2   5
HETATM    5  C   UNL     1      -8.008  10.635  66.909  1.00  0.00    -0.124 A  
HETATM    6  C   UNL     1      -7.573  11.963  68.827  1.00  0.00    -0.090 A  
HETATM    7  C   UNL     1      -7.654  11.780  66.176  1.00  0.00     0.387 A  
HETATM    8  C   UNL     1      -7.996  10.703  68.314  1.00  0.00    -0.116 A  
HETATM    9  C   UNL     1      -7.109  13.023  68.033  1.00  0.00    -0.115 A  
HETATM   10  N   UNL     1      -7.198  12.932  66.699  1.00  0.00     0.499 NA 
BRANCH   9  11
HETATM   11  N   UNL     1      -6.525  14.150  68.574  1.00  0.00    -0.088 NA 
HETATM   12  C   UNL     1      -5.742  14.052  69.819  1.00  0.00    -0.108 C  
HETATM   13  C   UNL     1      -7.291  16.425  69.252  1.00  0.00    -0.211 C  
HETATM   14  C   UNL     1      -6.208  15.064  70.897  1.00  0.00     0.166 C  
HETATM   15  N   UNL     1      -6.412  16.456  70.437  1.00  0.00     0.323 NA 
HETATM   16  C   UNL     1      -5.144  17.124  70.149  1.00  0.00    -0.204 C  
HETATM   17  C   UNL     1      -6.821  15.506  68.098  1.00  0.00    -0.124 C  
ENDBRANCH   9  11
BRANCH   8  18
HETATM   18  C   UNL     1      -8.245   9.580  69.314  1.00  0.00    -0.112 A  
HETATM   19  C   UNL     1      -9.547   8.907  71.337  1.00  0.00    -0.359 A  
HETATM   20  C   UNL     1      -8.941   7.668  71.358  1.00  0.00    -0.144 A  
HETATM   21  C   UNL     1      -9.186   9.839  70.356  1.00  0.00    -0.169 A  
HETATM   22  C   UNL     1      -8.002   7.369  70.383  1.00  0.00    -0.103 A  
HETATM   23  C   UNL     1      -7.670   8.284  69.346  1.00  0.00    -0.102 A  
HETATM   24  C   UNL     1      -6.682   7.741  68.357  1.00  0.00    -0.062 C  
ENDBRANCH   8  18
ENDBRANCH   2   5
BRANCH   4  25
HETATM   25  C   UNL     1      -9.231  10.830  64.039  1.00  0.00    -0.252 C  
HETATM   26  C   UNL     1     -10.028  10.293  62.821  1.00  0.00     0.152 C  
HETATM   27  C   UNL     1      -8.081  11.667  63.468  1.00  0.00     1.366 C  
BRANCH  25  28
HETATM   28  C   UNL     1     -10.067  11.827  64.889  1.00  0.00    -0.298 A  
HETATM   29  C   UNL     1     -11.230  13.983  65.082  1.00  0.00    -0.329 A  
HETATM   30  C   UNL     1     -10.471  13.060  64.345  1.00  0.00    -0.426 A  
HETATM   31  F   UNL     1     -12.386  13.024  68.990  1.00  0.00    -0.294 F  
HETATM   32  C   UNL     1     -11.602  15.323  64.492  1.00  0.00    -0.312 C  
HETATM   33  F   UNL     1     -10.650  11.726  69.150  1.00  0.00    -0.216 F  
HETATM   34  C   UNL     1     -11.625  13.650  66.386  1.00  0.00    -0.375 A  
HETATM   35  F   UNL     1     -12.949  15.513  64.441  1.00  0.00    -0.106 F  
HETATM   36  F   UNL     1     -11.152  15.501  63.218  1.00  0.00     1.262 F  
HETATM   37  F   UNL     1     -12.519  10.947  68.362  1.00  0.00    -0.153 F  
HETATM   38  C   UNL     1     -11.703  12.037  68.346  1.00  0.00    -0.332 C  
HETATM   39  C   UNL     1     -11.272  12.415  66.948  1.00  0.00    -0.359 A  
HETATM   40  F   UNL     1     -11.103  16.365  65.212  1.00  0.00    -0.310 F  
HETATM   41  C   UNL     1     -10.502  11.514  66.190  1.00  0.00    -0.296 A  
ENDBRANCH  25  28
ENDBRANCH   4  25
TORSDOF 5
ENDMDL
MODEL      267
REMARK 921   NORMALIZED FREE ENERGY PREDICTED BY IDOCK:    5.30 KCAL/MOL
REMARK 922        TOTAL FREE ENERGY PREDICTED BY IDOCK:    5.21 KCAL/MOL
REMARK 923 INTER-LIGAND FREE ENERGY PREDICTED BY IDOCK:    0.13 KCAL/MOL
REMARK 924 INTRA-LIGAND FREE ENERGY PREDICTED BY IDOCK:    5.08 KCAL/MOL
REMARK 927      BINDING AFFINITY PREDICTED BY RF-SCORE:    0.00 PKD
ROOT
HETATM    1  C   UNL     1      -8.545  15.566  66.641  1.00  0.00    -0.290 C  
HETATM    2  N   UNL     1      -9.688  15.020  67.390  1.00  0.00    -0.215 N  
HETATM    3  O   UNL     1     -10.714  17.022  67.162  1.00  0.00    -0.282 OA 
HETATM    4  C   UNL     1     -10.828  15.819  67.455  1.00  0.00    -0.315 C  
ENDROOT
BRANCH   2   5
HETATM    5  C   UNL     1      -9.654  13.620  67.549  1.00  0.00    -0.220 A  
HETATM    6  C   UNL     1     -10.076  11.333  67.078  1.00  0.00    -0.238 A  
HETATM    7  C   UNL     1      -8.946  13.142  68.664  1.00  0.00     0.049 A  
HETATM    8  C   UNL     1     -10.282  12.691  66.699  1.00  0.00    -0.246 A  
HETATM    9  C   UNL     1      -9.246  10.925  68.133  1.00  0.00    -0.158 A  
HETATM   10  N   UNL     1      -8.720  11.848  68.949  1.00  0.00     0.078 NA 
BRANCH   9  11
HETATM   11  N   UNL     1      -8.916   9.602  68.344  1.00  0.00    -0.123 NA 
HETATM   12  C   UNL     1      -9.162   8.602  67.290  1.00  0.00    -0.140 C  
HETATM   13  C   UNL     1      -9.414   7.877  70.076  1.00  0.00    -0.157 C  
HETATM   14  C   UNL     1      -9.974   7.384  67.801  1.00  0.00    -0.167 C  
HETATM   15  N   UNL     1      -9.522   6.793  69.080  1.00  0.00    -0.141 NA 
HETATM   16  C   UNL     1      -8.259   6.072  68.929  1.00  0.00    -0.104 C  
HETATM   17  C   UNL     1      -8.530   9.077  69.659  1.00  0.00    -0.128 C  
ENDBRANCH   9  11
BRANCH   8  18
HETATM   18  C   UNL     1     -11.018  12.957  65.391  1.00  0.00    -0.305 A  
HETATM   19  C   UNL     1     -12.826  12.145  63.871  1.00  0.00    -0.420 A  
HETATM   20  C   UNL     1     -12.594  13.177  62.986  1.00  0.00     0.229 A  
HETATM   21  C   UNL     1     -12.040  12.031  65.025  1.00  0.00    -0.204 A  
HETATM   22  C   UNL     1     -11.598  14.095  63.280  1.00  0.00     1.106 A  
HETATM   23  C   UNL     1     -10.832  14.025  64.476  1.00  0.00    -0.362 A  
HETATM   24  C   UNL     1      -9.852  15.149  64.632  1.00  0.00     0.766 C  
ENDBRANCH   8  18
ENDBRANCH   2   5
BRANCH   4  25
HETATM   25  C   UNL     1     -12.279  15.296  67.806  1.00  0.00     0.380 C  
HETATM   26  C   UNL     1     -12.588  14.318  66.641  1.00  0.00    -0.014 C  
HETATM   27  C   UNL     1     -13.471  16.256  67.892  1.00  0.00     5.737 C  
BRANCH  25  28
HETATM   28  C   UNL     1     -12.250  14.572  69.181  1.00  0.00    -0.234 A  
HETATM   29  C   UNL     1     -12.154  12.482  70.469  1.00  0.00    -0.361 A  
HETATM   30  C   UNL     1     -12.185  13.168  69.245  1.00  0.00    -0.165 A  
HETATM   31  F   UNL     1     -12.182  14.666  74.041  1.00  0.00    -0.573 F  
HETATM   32  C   UNL     1     -12.141  10.972  70.508  1.00  0.00    -0.377 C  
HETATM   33  F   UNL     1     -13.221  16.273  73.011  1.00  0.00    -0.530 F  
HETATM   34  C   UNL     1     -12.150  13.220  71.662  1.00  0.00     0.475 A  
HETATM   35  F   UNL     1     -11.047  10.476  71.148  1.00  0.00    -0.319 F  
HETATM   36  F   UNL     1     -12.142  10.395  69.272  1.00  0.00    -0.278 F  
HETATM   37  F   UNL     1     -11.049  16.213  73.017  1.00  0.00     0.036 F  
HETATM   38  C   UNL     1     -12.158  15.429  72.913  1.00  0.00    -0.437 C  
HETATM   39  C   UNL     1     -12.175  14.621  71.637  1.00  0.00    -0.411 A  
HETATM   40  F   UNL     1     -13.221  10.459  71.159  1.00  0.00    -0.410 F  
HETATM   41  C   UNL     1     -12.219  15.282  70.395  1.00  0.00    -0.404 A  
ENDBRANCH  25  28
ENDBRANCH   4  25
TORSDOF 5
ENDMDL
MODEL      268
REMARK 921   NORMALIZED FREE ENERGY PREDICTED BY IDOCK:    5.44 KCAL/MOL
REMARK 922        TOTAL FREE ENERGY PREDICTED BY IDOCK:    5.39 KCAL/MOL
REMARK 923 INTER-LIGAND FREE ENERGY PREDICTED BY IDOCK:    4.75 KCAL/MOL
REMARK 924 INTRA-LIGAND FREE ENERGY PREDICTED BY IDOCK:    0.64 KCAL/MOL
REMARK 927      BINDING AFFINITY PREDICTED BY RF-SCORE:    0.00 PKD
ROOT
HETATM    1  C   UNL     1      -8.033  13.798  70.685  1.00  0.00     3.493 C  
HETATM    2  N   UNL     1      -8.841  14.723  69.874  1.00  0.00     0.329 N  
HETATM    3  O   UNL     1     -10.620  14.208  71.171  1.00  0.00     1.494 OA 
HETATM    4  C   UNL     1     -10.134  14.980  70.326  1.00  0.00     0.165 C  
ENDROOT
BRANCH   2   5
HETATM    5  C   UNL     1      -8.082  15.560  69.032  1.00  0.00    -0.220 A  
HETATM    6  C   UNL     1      -6.734  16.199  67.186  1.00  0.00    -0.227 A  
HETATM    7  C   UNL     1      -7.985  16.905  69.423  1.00  0.00     0.175 A  
HETATM    8  C   UNL     1      -7.415  15.147  67.863  1.00  0.00    -0.149 A  
HETATM    9  C   UNL     1      -6.789  17.549  67.567  1.00  0.00    -0.159 A  
HETATM   10  N   UNL     1      -7.384  17.882  68.720  1.00  0.00    -0.272 NA 
BRANCH   9  11
HETATM   11  N   UNL     1      -6.280  18.560  66.778  1.00  0.00    -0.168 NA 
HETATM   12  C   UNL     1      -6.459  19.968  67.175  1.00  0.00    -0.198 C  
HETATM   13  C   UNL     1      -6.447  19.230  64.381  1.00  0.00     0.290 C  
HETATM   14  C   UNL     1      -7.076  20.832  66.046  1.00  0.00    -0.015 C  
HETATM   15  N   UNL     1      -6.475  20.670  64.702  1.00  0.00    -0.301 NA 
HETATM   16  C   UNL     1      -5.142  21.265  64.628  1.00  0.00    -0.159 C  
HETATM   17  C   UNL     1      -5.751  18.328  65.429  1.00  0.00    -0.189 C  
ENDBRANCH   9  11
BRANCH   8  18
HETATM   18  C   UNL     1      -7.450  13.779  67.191  1.00  0.00     0.094 A  
HETATM   19  C   UNL     1      -8.792  12.261  65.731  1.00  0.00     0.332 A  
HETATM   20  C   UNL     1      -7.823  11.282  65.799  1.00  0.00     0.185 A  
HETATM   21  C   UNL     1      -8.614  13.462  66.430  1.00  0.00     0.331 A  
HETATM   22  C   UNL     1      -6.679  11.527  66.543  1.00  0.00    -0.019 A  
HETATM   23  C   UNL     1      -6.460  12.764  67.208  1.00  0.00    -0.073 A  
HETATM   24  C   UNL     1      -5.132  12.848  67.901  1.00  0.00    -0.101 C  
ENDBRANCH   8  18
ENDBRANCH   2   5
BRANCH   4  25
HETATM   25  C   UNL     1     -11.010  16.225  69.897  1.00  0.00    -0.365 C  
HETATM   26  C   UNL     1     -10.273  17.416  70.565  1.00  0.00     1.630 C  
HETATM   27  C   UNL     1     -12.482  16.342  70.309  1.00  0.00     0.645 C  
BRANCH  25  28
HETATM   28  C   UNL     1     -11.020  16.342  68.347  1.00  0.00    -0.353 A  
HETATM   29  C   UNL     1     -10.526  17.642  66.321  1.00  0.00    -0.292 A  
HETATM   30  C   UNL     1     -10.536  17.504  67.718  1.00  0.00    -0.381 A  
HETATM   31  F   UNL     1     -11.912  14.487  63.943  1.00  0.00    -0.398 F  
HETATM   32  C   UNL     1     -10.053  18.923  65.675  1.00  0.00     0.153 C  
HETATM   33  F   UNL     1     -13.183  13.851  65.588  1.00  0.00    -0.535 F  
HETATM   34  C   UNL     1     -10.979  16.577  65.530  1.00  0.00    -0.096 A  
HETATM   35  F   UNL     1      -9.001  18.724  64.833  1.00  0.00     1.699 F  
HETATM   36  F   UNL     1      -9.639  19.864  66.570  1.00  0.00    -0.390 F  
HETATM   37  F   UNL     1     -11.143  13.116  65.444  1.00  0.00    -0.285 F  
HETATM   38  C   UNL     1     -11.912  14.228  65.280  1.00  0.00    -0.389 C  
HETATM   39  C   UNL     1     -11.434  15.389  66.120  1.00  0.00     0.001 A  
HETATM   40  F   UNL     1     -11.023  19.519  64.930  1.00  0.00    -0.261 F  
HETATM   41  C   UNL     1     -11.443  15.283  67.524  1.00  0.00    -0.271 A  
ENDBRANCH  25  28
ENDBRANCH   4  25
TORSDOF 5
ENDMDL
MODEL      269
REMARK 921   NORMALIZED FREE ENERGY PREDICTED BY IDOCK:    5.59 KCAL/MOL
REMARK 922        TOTAL FREE ENERGY PREDICTED BY IDOCK:    5.58 KCAL/MOL
REMARK 923 INTER-LIGAND FREE ENERGY PREDICTED BY IDOCK:    0.17 KCAL/MOL
REMARK 924 INTRA-LIGAND FREE ENERGY PREDICTED BY IDOCK:    5.42 KCAL/MOL
REMARK 927      BINDING AFFINITY PREDICTED BY RF-SCORE:    0.00 PKD
ROOT
HETATM    1  C   UNL     1     -11.734  15.186  64.586  1.00  0.00    -0.348 C  
HETATM    2  N   UNL     1     -10.437  15.545  65.181  1.00  0.00    -0.408 N  
HETATM    3  O   UNL     1     -10.913  17.714  64.756  1.00  0.00    -0.917 OA 
HETATM    4  C   UNL     1     -10.192  16.905  65.364  1.00  0.00    -0.030 C  
ENDROOT
BRANCH   2   5
HETATM    5  C   UNL     1      -9.819  14.495  65.888  1.00  0.00    -0.321 A  
HETATM    6  C   UNL     1      -9.323  12.271  66.553  1.00  0.00    -0.230 A  
HETATM    7  C   UNL     1      -8.861  14.873  66.843  1.00  0.00    -0.258 A  
HETATM    8  C   UNL     1     -10.104  13.127  65.723  1.00  0.00    -0.290 A  
HETATM    9  C   UNL     1      -8.288  12.715  67.392  1.00  0.00    -0.184 A  
HETATM   10  N   UNL     1      -8.098  14.030  67.561  1.00  0.00    -0.174 NA 
BRANCH   9  11
HETATM   11  N   UNL     1      -7.428  11.843  68.027  1.00  0.00    -0.099 NA 
HETATM   12  C   UNL     1      -7.872  10.476  68.357  1.00  0.00    -0.110 C  
HETATM   13  C   UNL     1      -6.036  11.875  70.097  1.00  0.00    -0.159 C  
HETATM   14  C   UNL     1      -7.647  10.121  69.849  1.00  0.00    -0.166 C  
HETATM   15  N   UNL     1      -6.317  10.459  70.404  1.00  0.00    -0.132 NA 
HETATM   16  C   UNL     1      -5.272   9.578  69.886  1.00  0.00    -0.033 C  
HETATM   17  C   UNL     1      -6.147  12.266  68.603  1.00  0.00    -0.057 C  
ENDBRANCH   9  11
BRANCH   8  18
HETATM   18  C   UNL     1     -11.022  12.472  64.698  1.00  0.00    -0.345 A  
HETATM   19  C   UNL     1     -13.401  12.156  64.004  1.00  0.00     0.277 A  
HETATM   20  C   UNL     1     -13.022  11.371  62.936  1.00  0.00     1.121 A  
HETATM   21  C   UNL     1     -12.425  12.667  64.870  1.00  0.00    -0.564 A  
HETATM   22  C   UNL     1     -11.672  11.129  62.732  1.00  0.00     1.180 A  
HETATM   23  C   UNL     1     -10.668  11.691  63.569  1.00  0.00    -0.495 A  
HETATM   24  C   UNL     1      -9.270  11.360  63.138  1.00  0.00    -0.242 C  
ENDBRANCH   8  18
ENDBRANCH   2   5
BRANCH   4  25
HETATM   25  C   UNL     1      -9.107  17.503  66.349  1.00  0.00    -0.264 C  
HETATM   26  C   UNL     1      -8.822  18.903  65.745  1.00  0.00     0.387 C  
HETATM   27  C   UNL     1      -7.744  16.827  66.534  1.00  0.00    -0.334 C  
BRANCH  25  28
HETATM   28  C   UNL     1      -9.704  17.597  67.781  1.00  0.00    -0.280 A  
HETATM   29  C   UNL     1     -10.874  16.528  69.659  1.00  0.00    -0.322 A  
HETATM   30  C   UNL     1     -10.327  16.480  68.367  1.00  0.00    -0.294 A  
HETATM   31  F   UNL     1     -10.591  20.072  71.870  1.00  0.00     1.707 F  
HETATM   32  C   UNL     1     -11.587  15.330  70.241  1.00  0.00    -0.301 C  
HETATM   33  F   UNL     1     -10.510  21.188  70.007  1.00  0.00     0.149 F  
HETATM   34  C   UNL     1     -10.764  17.713  70.399  1.00  0.00     1.327 A  
HETATM   35  F   UNL     1     -11.014  14.893  71.397  1.00  0.00    -0.307 F  
HETATM   36  F   UNL     1     -11.609  14.251  69.407  1.00  0.00    -0.262 F  
HETATM   37  F   UNL     1      -8.679  20.435  70.902  1.00  0.00     0.647 F  
HETATM   38  C   UNL     1      -9.979  20.115  70.654  1.00  0.00     1.401 C  
HETATM   39  C   UNL     1     -10.117  18.835  69.863  1.00  0.00     0.760 A  
HETATM   40  F   UNL     1     -12.887  15.594  70.543  1.00  0.00    -0.451 F  
HETATM   41  C   UNL     1      -9.589  18.762  68.560  1.00  0.00    -0.413 A  
ENDBRANCH  25  28
ENDBRANCH   4  25
TORSDOF 5
ENDMDL
MODEL      270
REMARK 921   NORMALIZED FREE ENERGY PREDICTED BY IDOCK:    5.80 KCAL/MOL
REMARK 922        TOTAL FREE ENERGY PREDICTED BY IDOCK:    5.86 KCAL/MOL
REMARK 923 INTER-LIGAND FREE ENERGY PREDICTED BY IDOCK:   -1.57 KCAL/MOL
REMARK 924 INTRA-LIGAND FREE ENERGY PREDICTED BY IDOCK:    7.43 KCAL/MOL
REMARK 927      BINDING AFFINITY PREDICTED BY RF-SCORE:    0.00 PKD
ROOT
HETATM    1  C   UNL     1     -12.672   9.279  70.428  1.00  0.00     0.456 C  
HETATM    2  N   UNL     1     -11.381   8.642  70.737  1.00  0.00    -0.263 N  
HETATM    3  O   UNL     1     -12.500   7.122  71.981  1.00  0.00    -0.299 OA 
HETATM    4  C   UNL     1     -11.434   7.428  71.420  1.00  0.00    -0.263 C  
ENDROOT
BRANCH   2   5
HETATM    5  C   UNL     1     -10.314   9.087  69.931  1.00  0.00    -0.207 A  
HETATM    6  C   UNL     1      -8.111   9.755  69.355  1.00  0.00    -0.129 A  
HETATM    7  C   UNL     1     -10.617   9.322  68.580  1.00  0.00    -0.187 A  
HETATM    8  C   UNL     1      -9.002   9.325  70.381  1.00  0.00    -0.278 A  
HETATM    9  C   UNL     1      -8.454   9.843  67.997  1.00  0.00    -0.117 A  
HETATM   10  N   UNL     1      -9.730   9.666  67.629  1.00  0.00    -0.146 NA 
BRANCH   9  11
HETATM   11  N   UNL     1      -7.515  10.071  67.012  1.00  0.00    -0.091 NA 
HETATM   12  C   UNL     1      -7.858  10.900  65.842  1.00  0.00    -0.090 C  
HETATM   13  C   UNL     1      -6.043   8.668  65.567  1.00  0.00    -0.052 C  
HETATM   14  C   UNL     1      -7.550  10.192  64.499  1.00  0.00    -0.130 C  
HETATM   15  N   UNL     1      -6.222   9.546  64.394  1.00  0.00    -0.080 NA 
HETATM   16  C   UNL     1      -5.146  10.530  64.290  1.00  0.00    -0.153 C  
HETATM   17  C   UNL     1      -6.240   9.348  66.943  1.00  0.00    -0.065 C  
ENDBRANCH   9  11
BRANCH   8  18
HETATM   18  C   UNL     1      -8.415   9.057  71.761  1.00  0.00     0.047 A  
HETATM   19  C   UNL     1      -8.965   8.586  74.151  1.00  0.00     0.768 A  
HETATM   20  C   UNL     1      -7.628   8.530  74.485  1.00  0.00    -0.230 A  
HETATM   21  C   UNL     1      -9.339   8.867  72.831  1.00  0.00     0.536 A  
HETATM   22  C   UNL     1      -6.684   8.729  73.490  1.00  0.00     0.046 A  
HETATM   23  C   UNL     1      -7.050   8.956  72.134  1.00  0.00     0.074 A  
HETATM   24  C   UNL     1      -5.878   9.082  71.206  1.00  0.00    -0.055 C  
ENDBRANCH   8  18
ENDBRANCH   2   5
BRANCH   4  25
HETATM   25  C   UNL     1     -10.258   6.371  71.475  1.00  0.00    -0.221 C  
HETATM   26  C   UNL     1     -10.727   5.386  72.579  1.00  0.00    -0.288 C  
HETATM   27  C   UNL     1      -8.831   6.788  71.846  1.00  0.00    -0.135 C  
BRANCH  25  28
HETATM   28  C   UNL     1     -10.124   5.674  70.092  1.00  0.00    -0.293 A  
HETATM   29  C   UNL     1      -9.855   3.615  68.779  1.00  0.00     0.088 A  
HETATM   30  C   UNL     1      -9.975   4.277  70.010  1.00  0.00    -0.196 A  
HETATM   31  F   UNL     1     -10.006   5.839  65.235  1.00  0.00     0.181 F  
HETATM   32  C   UNL     1      -9.640   2.121  68.724  1.00  0.00    -0.030 C  
HETATM   33  F   UNL     1      -9.261   7.566  66.326  1.00  0.00    -0.180 F  
HETATM   34  C   UNL     1      -9.919   4.364  67.595  1.00  0.00    -0.111 A  
HETATM   35  F   UNL     1     -10.621   1.479  68.032  1.00  0.00     0.847 F  
HETATM   36  F   UNL     1      -9.603   1.530  69.952  1.00  0.00    -0.166 F  
HETATM   37  F   UNL     1     -11.398   7.183  66.226  1.00  0.00     0.297 F  
HETATM   38  C   UNL     1     -10.190   6.571  66.369  1.00  0.00     0.031 C  
HETATM   39  C   UNL     1     -10.104   5.753  67.636  1.00  0.00    -0.205 A  
HETATM   40  F   UNL     1      -8.470   1.785  68.114  1.00  0.00    -0.064 F  
HETATM   41  C   UNL     1     -10.211   6.392  68.886  1.00  0.00    -0.215 A  
ENDBRANCH  25  28
ENDBRANCH   4  25
TORSDOF 5
ENDMDL
MODEL      271
REMARK 921   NORMALIZED FREE ENERGY PREDICTED BY IDOCK:    5.90 KCAL/MOL
REMARK 922        TOTAL FREE ENERGY PREDICTED BY IDOCK:    5.98 KCAL/MOL
REMARK 923 INTER-LIGAND FREE ENERGY PREDICTED BY IDOCK:    1.86 KCAL/MOL
REMARK 924 INTRA-LIGAND FREE ENERGY PREDICTED BY IDOCK:    4.13 KCAL/MOL
REMARK 927      BINDING AFFINITY PREDICTED BY RF-SCORE:    0.00 PKD
ROOT
HETATM    1  C   UNL     1     -12.850  15.018  66.683  1.00  0.00     1.491 C  
HETATM    2  N   UNL     1     -11.924  13.881  66.553  1.00  0.00    -0.416 N  
HETATM    3  O   UNL     1     -13.069  13.241  64.711  1.00  0.00    -0.709 OA 
HETATM    4  C   UNL     1     -12.036  13.118  65.392  1.00  0.00    -0.406 C  
ENDROOT
BRANCH   2   5
HETATM    5  C   UNL     1     -10.779  13.978  67.367  1.00  0.00    -0.283 A  
HETATM    6  C   UNL     1      -8.865  14.948  68.382  1.00  0.00    -0.178 A  
HETATM    7  C   UNL     1     -10.450  12.831  68.109  1.00  0.00    -0.236 A  
HETATM    8  C   UNL     1      -9.950  15.110  67.472  1.00  0.00    -0.225 A  
HETATM    9  C   UNL     1      -8.674  13.816  69.188  1.00  0.00     0.428 A  
HETATM   10  N   UNL     1      -9.453  12.741  69.007  1.00  0.00     0.303 NA 
BRANCH   9  11
HETATM   11  N   UNL     1      -7.730  13.777  70.195  1.00  0.00     1.256 NA 
HETATM   12  C   UNL     1      -7.652  14.872  71.178  1.00  0.00     2.240 C  
HETATM   13  C   UNL     1      -5.255  13.497  70.332  1.00  0.00    -0.108 C  
HETATM   14  C   UNL     1      -6.224  15.460  71.303  1.00  0.00     0.717 C  
HETATM   15  N   UNL     1      -5.125  14.476  71.429  1.00  0.00    -0.131 NA 
HETATM   16  C   UNL     1      -5.128  13.822  72.736  1.00  0.00    -0.177 C  
HETATM   17  C   UNL     1      -6.634  12.802  70.221  1.00  0.00     0.482 C  
ENDBRANCH   9  11
BRANCH   8  18
HETATM   18  C   UNL     1     -10.150  16.486  66.848  1.00  0.00    -0.281 A  
HETATM   19  C   UNL     1     -10.244  18.938  67.312  1.00  0.00    -0.454 A  
HETATM   20  C   UNL     1     -10.488  19.216  65.984  1.00  0.00    -0.546 A  
HETATM   21  C   UNL     1     -10.105  17.608  67.728  1.00  0.00    -0.338 A  
HETATM   22  C   UNL     1     -10.564  18.163  65.086  1.00  0.00     0.692 A  
HETATM   23  C   UNL     1     -10.366  16.813  65.485  1.00  0.00    -0.236 A  
HETATM   24  C   UNL     1     -10.425  15.834  64.350  1.00  0.00     0.783 C  
ENDBRANCH   8  18
ENDBRANCH   2   5
BRANCH   4  25
HETATM   25  C   UNL     1     -10.912  12.155  64.833  1.00  0.00    -0.355 C  
HETATM   26  C   UNL     1      -9.690  13.099  64.676  1.00  0.00     0.142 C  
HETATM   27  C   UNL     1     -11.077  11.436  63.489  1.00  0.00    -0.373 C  
BRANCH  25  28
HETATM   28  C   UNL     1     -10.643  11.021  65.862  1.00  0.00    -0.270 A  
HETATM   29  C   UNL     1     -11.141   9.966  68.024  1.00  0.00    -0.220 A  
HETATM   30  C   UNL     1     -11.355  10.977  67.074  1.00  0.00    -0.164 A  
HETATM   31  F   UNL     1      -8.351   6.952  67.211  1.00  0.00    -0.116 F  
HETATM   32  C   UNL     1     -11.879   9.976  69.342  1.00  0.00     0.133 C  
HETATM   33  F   UNL     1      -7.283   8.335  65.918  1.00  0.00    -0.067 F  
HETATM   34  C   UNL     1     -10.214   8.953  67.740  1.00  0.00    -0.283 A  
HETATM   35  F   UNL     1     -12.621   8.850  69.531  1.00  0.00     1.177 F  
HETATM   36  F   UNL     1     -12.748  11.019  69.472  1.00  0.00    -0.316 F  
HETATM   37  F   UNL     1      -8.894   7.119  65.113  1.00  0.00    -0.079 F  
HETATM   38  C   UNL     1      -8.523   7.849  66.200  1.00  0.00    -0.133 C  
HETATM   39  C   UNL     1      -9.513   8.943  66.526  1.00  0.00    -0.272 A  
HETATM   40  F   UNL     1     -11.039  10.055  70.409  1.00  0.00    -0.278 F  
HETATM   41  C   UNL     1      -9.740   9.975  65.597  1.00  0.00    -0.336 A  
ENDBRANCH  25  28
ENDBRANCH   4  25
TORSDOF 5
ENDMDL
MODEL      272
REMARK 921   NORMALIZED FREE ENERGY PREDICTED BY IDOCK:    5.99 KCAL/MOL
REMARK 922        TOTAL FREE ENERGY PREDICTED BY IDOCK:    6.10 KCAL/MOL
REMARK 923 INTER-LIGAND FREE ENERGY PREDICTED BY IDOCK:    2.64 KCAL/MOL
REMARK 924 INTRA-LIGAND FREE ENERGY PREDICTED BY IDOCK:    3.45 KCAL/MOL
REMARK 927      BINDING AFFINITY PREDICTED BY RF-SCORE:    0.00 PKD
ROOT
HETATM    1  C   UNL     1     -12.768  13.442  66.143  1.00  0.00    -0.078 C  
HETATM    2  N   UNL     1     -11.630  12.520  66.293  1.00  0.00    -0.374 N  
HETATM    3  O   UNL     1     -12.540  11.233  64.673  1.00  0.00     0.553 OA 
HETATM    4  C   UNL     1     -11.535  11.491  65.357  1.00  0.00    -0.009 C  
ENDROOT
BRANCH   2   5
HETATM    5  C   UNL     1     -10.564  13.043  67.052  1.00  0.00    -0.257 A  
HETATM    6  C   UNL     1      -8.969  14.620  67.828  1.00  0.00    -0.181 A  
HETATM    7  C   UNL     1      -9.989  12.171  67.991  1.00  0.00    -0.203 A  
HETATM    8  C   UNL     1     -10.036  14.341  66.925  1.00  0.00    -0.264 A  
HETATM    9  C   UNL     1      -8.533  13.741  68.830  1.00  0.00     0.026 A  
HETATM   10  N   UNL     1      -9.025  12.496  68.871  1.00  0.00     0.206 NA 
BRANCH   9  11
HETATM   11  N   UNL     1      -7.635  14.122  69.807  1.00  0.00     0.310 NA 
HETATM   12  C   UNL     1      -7.780  15.428  70.474  1.00  0.00     1.152 C  
HETATM   13  C   UNL     1      -5.156  14.314  69.997  1.00  0.00    -0.089 C  
HETATM   14  C   UNL     1      -6.475  16.264  70.436  1.00  0.00     0.466 C  
HETATM   15  N   UNL     1      -5.234  15.547  70.805  1.00  0.00    -0.148 NA 
HETATM   16  C   UNL     1      -5.179  15.257  72.236  1.00  0.00     0.078 C  
HETATM   17  C   UNL     1      -6.394  13.388  70.077  1.00  0.00    -0.031 C  
ENDBRANCH   9  11
BRANCH   8  18
HETATM   18  C   UNL     1     -10.545  15.485  66.056  1.00  0.00    -0.333 A  
HETATM   19  C   UNL     1     -11.351  16.106  63.775  1.00  0.00     1.095 A  
HETATM   20  C   UNL     1     -11.528  17.419  64.156  1.00  0.00     2.865 A  
HETATM   21  C   UNL     1     -10.850  15.177  64.696  1.00  0.00    -0.285 A  
HETATM   22  C   UNL     1     -11.226  17.780  65.460  1.00  0.00     0.776 A  
HETATM   23  C   UNL     1     -10.774  16.836  66.422  1.00  0.00    -0.105 A  
HETATM   24  C   UNL     1     -10.567  17.419  67.788  1.00  0.00    -0.371 C  
ENDBRANCH   8  18
ENDBRANCH   2   5
BRANCH   4  25
HETATM   25  C   UNL     1     -10.218  10.671  65.047  1.00  0.00    -0.380 C  
HETATM   26  C   UNL     1      -9.113  11.760  65.082  1.00  0.00     0.161 C  
HETATM   27  C   UNL     1     -10.043   9.920  63.723  1.00  0.00     0.771 C  
BRANCH  25  28
HETATM   28  C   UNL     1     -10.009   9.593  66.148  1.00  0.00    -0.346 A  
HETATM   29  C   UNL     1      -9.166   7.383  66.810  1.00  0.00    -0.190 A  
HETATM   30  C   UNL     1      -9.374   8.376  65.841  1.00  0.00    -0.205 A  
HETATM   31  F   UNL     1     -10.404   8.075  70.749  1.00  0.00    -0.195 F  
HETATM   32  C   UNL     1      -8.532   6.063  66.439  1.00  0.00    -0.118 C  
HETATM   33  F   UNL     1     -11.923   9.435  69.996  1.00  0.00    -0.142 F  
HETATM   34  C   UNL     1      -9.571   7.626  68.130  1.00  0.00    -0.158 A  
HETATM   35  F   UNL     1      -7.389   5.818  67.138  1.00  0.00    -0.071 F  
HETATM   36  F   UNL     1      -8.187   5.975  65.122  1.00  0.00    -0.118 F  
HETATM   37  F   UNL     1      -9.931  10.175  70.449  1.00  0.00    -0.297 F  
HETATM   38  C   UNL     1     -10.602   9.124  69.903  1.00  0.00    -0.230 C  
HETATM   39  C   UNL     1     -10.173   8.842  68.482  1.00  0.00    -0.223 A  
HETATM   40  F   UNL     1      -9.353   5.005  66.680  1.00  0.00    -0.124 F  
HETATM   41  C   UNL     1     -10.380   9.815  67.486  1.00  0.00    -0.291 A  
ENDBRANCH  25  28
ENDBRANCH   4  25
TORSDOF 5
ENDMDL
MODEL      273
REMARK 921   NORMALIZED FREE ENERGY PREDICTED BY IDOCK:    6.11 KCAL/MOL
REMARK 922        TOTAL FREE ENERGY PREDICTED BY IDOCK:    6.26 KCAL/MOL
REMARK 923 INTER-LIGAND FREE ENERGY PREDICTED BY IDOCK:    6.22 KCAL/MOL
REMARK 924 INTRA-LIGAND FREE ENERGY PREDICTED BY IDOCK:    0.04 KCAL/MOL
REMARK 927      BINDING AFFINITY PREDICTED BY RF-SCORE:    0.00 PKD
ROOT
HETATM    1  C   UNL     1      -8.035  13.789  70.688  1.00  0.00     3.493 C  
HETATM    2  N   UNL     1      -8.846  14.715  69.881  1.00  0.00     0.462 N  
HETATM    3  O   UNL     1     -10.626  14.177  71.167  1.00  0.00     1.494 OA 
HETATM    4  C   UNL     1     -10.143  14.959  70.330  1.00  0.00     0.402 C  
ENDROOT
BRANCH   2   5
HETATM    5  C   UNL     1      -8.090  15.564  69.048  1.00  0.00    -0.220 A  
HETATM    6  C   UNL     1      -6.735  16.226  67.216  1.00  0.00    -0.228 A  
HETATM    7  C   UNL     1      -8.010  16.908  69.446  1.00  0.00     0.175 A  
HETATM    8  C   UNL     1      -7.410  15.163  67.883  1.00  0.00    -0.152 A  
HETATM    9  C   UNL     1      -6.807  17.573  67.602  1.00  0.00    -0.163 A  
HETATM   10  N   UNL     1      -7.415  17.894  68.752  1.00  0.00    -0.279 NA 
BRANCH   9  11
HETATM   11  N   UNL     1      -6.304  18.593  66.821  1.00  0.00    -0.180 NA 
HETATM   12  C   UNL     1      -6.497  19.997  67.225  1.00  0.00    -0.200 C  
HETATM   13  C   UNL     1      -6.465  19.275  64.427  1.00  0.00     0.290 C  
HETATM   14  C   UNL     1      -7.115  20.862  66.098  1.00  0.00     0.029 C  
HETATM   15  N   UNL     1      -6.507  20.713  64.757  1.00  0.00    -0.291 NA 
HETATM   16  C   UNL     1      -5.179  21.319  64.692  1.00  0.00    -0.152 C  
HETATM   17  C   UNL     1      -5.766  18.373  65.474  1.00  0.00    -0.209 C  
ENDBRANCH   9  11
BRANCH   8  18
HETATM   18  C   UNL     1      -7.425  13.798  67.205  1.00  0.00    -0.048 A  
HETATM   19  C   UNL     1      -8.723  12.287  65.699  1.00  0.00     0.564 A  
HETATM   20  C   UNL     1      -7.757  11.306  65.792  1.00  0.00     0.221 A  
HETATM   21  C   UNL     1      -8.566  13.484  66.407  1.00  0.00     0.342 A  
HETATM   22  C   UNL     1      -6.637  11.547  66.571  1.00  0.00    -0.022 A  
HETATM   23  C   UNL     1      -6.437  12.782  67.248  1.00  0.00    -0.073 A  
HETATM   24  C   UNL     1      -5.131  12.862  67.982  1.00  0.00    -0.093 C  
ENDBRANCH   8  18
ENDBRANCH   2   5
BRANCH   4  25
HETATM   25  C   UNL     1     -11.026  16.202  69.908  1.00  0.00    -0.362 C  
HETATM   26  C   UNL     1     -10.293  17.394  70.578  1.00  0.00     1.433 C  
HETATM   27  C   UNL     1     -12.497  16.310  70.325  1.00  0.00     0.645 C  
BRANCH  25  28
HETATM   28  C   UNL     1     -11.040  16.324  68.359  1.00  0.00    -0.362 A  
HETATM   29  C   UNL     1     -11.437  15.301  66.160  1.00  0.00    -0.083 A  
HETATM   30  C   UNL     1     -11.410  15.225  67.562  1.00  0.00    -0.300 A  
HETATM   31  F   UNL     1     -10.459  18.914  64.286  1.00  0.00     2.712 F  
HETATM   32  C   UNL     1     -11.783  14.088  65.328  1.00  0.00    -0.346 C  
HETATM   33  F   UNL     1      -9.226  19.431  66.001  1.00  0.00    -0.349 F  
HETATM   34  C   UNL     1     -11.121  16.517  65.539  1.00  0.00     0.038 A  
HETATM   35  F   UNL     1     -12.869  14.294  64.534  1.00  0.00    -0.335 F  
HETATM   36  F   UNL     1     -12.071  12.982  66.071  1.00  0.00    -0.409 F  
HETATM   37  F   UNL     1     -11.337  19.947  65.985  1.00  0.00    -0.317 F  
HETATM   38  C   UNL     1     -10.456  18.966  65.647  1.00  0.00    -0.140 C  
HETATM   39  C   UNL     1     -10.785  17.645  66.302  1.00  0.00    -0.096 A  
HETATM   40  F   UNL     1     -10.772  13.724  64.494  1.00  0.00    -0.364 F  
HETATM   41  C   UNL     1     -10.754  17.536  67.705  1.00  0.00    -0.306 A  
ENDBRANCH  25  28
ENDBRANCH   4  25
TORSDOF 5
ENDMDL
MODEL      274
REMARK 921   NORMALIZED FREE ENERGY PREDICTED BY IDOCK:    6.12 KCAL/MOL
REMARK 922        TOTAL FREE ENERGY PREDICTED BY IDOCK:    6.27 KCAL/MOL
REMARK 923 INTER-LIGAND FREE ENERGY PREDICTED BY IDOCK:   -1.34 KCAL/MOL
REMARK 924 INTRA-LIGAND FREE ENERGY PREDICTED BY IDOCK:    7.60 KCAL/MOL
REMARK 927      BINDING AFFINITY PREDICTED BY RF-SCORE:    0.00 PKD
ROOT
HETATM    1  C   UNL     1     -11.020  12.685  65.825  1.00  0.00    -0.280 C  
HETATM    2  N   UNL     1     -10.231  13.022  67.022  1.00  0.00    -0.243 N  
HETATM    3  O   UNL     1     -10.736  15.197  66.666  1.00  0.00    -0.300 OA 
HETATM    4  C   UNL     1     -10.294  14.345  67.456  1.00  0.00    -0.251 C  
ENDROOT
BRANCH   2   5
HETATM    5  C   UNL     1      -9.893  11.909  67.818  1.00  0.00    -0.184 A  
HETATM    6  C   UNL     1      -8.559  10.479  69.163  1.00  0.00    -0.157 A  
HETATM    7  C   UNL     1     -10.914  10.968  68.030  1.00  0.00    -0.258 A  
HETATM    8  C   UNL     1      -8.628  11.672  68.386  1.00  0.00    -0.156 A  
HETATM    9  C   UNL     1      -9.659   9.652  69.438  1.00  0.00    -0.191 A  
HETATM   10  N   UNL     1     -10.826   9.886  68.824  1.00  0.00    -0.221 NA 
BRANCH   9  11
HETATM   11  N   UNL     1      -9.596   8.619  70.351  1.00  0.00    -0.168 NA 
HETATM   12  C   UNL     1     -10.079   7.277  69.982  1.00  0.00    -0.190 C  
HETATM   13  C   UNL     1     -10.366   8.237  72.693  1.00  0.00    -0.304 C  
HETATM   14  C   UNL     1     -11.100   6.710  71.001  1.00  0.00    -0.282 C  
HETATM   15  N   UNL     1     -10.728   6.831  72.429  1.00  0.00    -0.218 NA 
HETATM   16  C   UNL     1      -9.644   5.919  72.787  1.00  0.00    -0.155 C  
HETATM   17  C   UNL     1      -9.274   8.827  71.767  1.00  0.00    -0.262 C  
ENDBRANCH   9  11
BRANCH   8  18
HETATM   18  C   UNL     1      -7.405  12.582  68.378  1.00  0.00    -0.114 A  
HETATM   19  C   UNL     1      -5.838  13.901  69.807  1.00  0.00    -0.117 A  
HETATM   20  C   UNL     1      -5.125  14.318  68.703  1.00  0.00    -0.095 A  
HETATM   21  C   UNL     1      -6.958  13.077  69.639  1.00  0.00     0.270 A  
HETATM   22  C   UNL     1      -5.527  13.885  67.448  1.00  0.00     0.322 A  
HETATM   23  C   UNL     1      -6.626  13.001  67.269  1.00  0.00    -0.004 A  
HETATM   24  C   UNL     1      -6.853  12.604  65.840  1.00  0.00     3.409 C  
ENDBRANCH   8  18
ENDBRANCH   2   5
BRANCH   4  25
HETATM   25  C   UNL     1      -9.909  14.837  68.910  1.00  0.00    -0.222 C  
HETATM   26  C   UNL     1      -9.931  16.383  68.771  1.00  0.00    -0.246 C  
HETATM   27  C   UNL     1      -8.558  14.479  69.539  1.00  0.00     0.302 C  
BRANCH  25  28
HETATM   28  C   UNL     1     -10.970  14.329  69.926  1.00  0.00    -0.053 A  
HETATM   29  C   UNL     1     -12.458  12.538  70.712  1.00  0.00    -0.357 A  
HETATM   30  C   UNL     1     -11.501  13.031  69.811  1.00  0.00    -0.213 A  
HETATM   31  F   UNL     1     -13.727  14.965  73.879  1.00  0.00     0.315 F  
HETATM   32  C   UNL     1     -13.052  11.161  70.531  1.00  0.00     0.100 C  
HETATM   33  F   UNL     1     -13.249  16.717  72.684  1.00  0.00    -0.136 F  
HETATM   34  C   UNL     1     -12.869  13.351  71.778  1.00  0.00    -0.385 A  
HETATM   35  F   UNL     1     -12.835  10.355  71.606  1.00  0.00    -0.427 F  
HETATM   36  F   UNL     1     -12.552  10.489  69.455  1.00  0.00    -0.305 F  
HETATM   37  F   UNL     1     -11.724  15.808  73.937  1.00  0.00    -0.456 F  
HETATM   38  C   UNL     1     -12.757  15.517  73.099  1.00  0.00    -0.478 C  
HETATM   39  C   UNL     1     -12.334  14.636  71.947  1.00  0.00    -0.410 A  
HETATM   40  F   UNL     1     -14.401  11.196  70.354  1.00  0.00     2.140 F  
HETATM   41  C   UNL     1     -11.385  15.108  71.021  1.00  0.00    -0.358 A  
ENDBRANCH  25  28
ENDBRANCH   4  25
TORSDOF 5
ENDMDL
MODEL      275
REMARK 921   NORMALIZED FREE ENERGY PREDICTED BY IDOCK:    6.54 KCAL/MOL
REMARK 922        TOTAL FREE ENERGY PREDICTED BY IDOCK:    6.81 KCAL/MOL
REMARK 923 INTER-LIGAND FREE ENERGY PREDICTED BY IDOCK:    4.31 KCAL/MOL
REMARK 924 INTRA-LIGAND FREE ENERGY PREDICTED BY IDOCK:    2.50 KCAL/MOL
REMARK 927      BINDING AFFINITY PREDICTED BY RF-SCORE:    0.00 PKD
ROOT
HETATM    1  C   UNL     1     -12.865  15.807  66.731  1.00  0.00     3.011 C  
HETATM    2  N   UNL     1     -11.910  14.689  66.801  1.00  0.00    -0.357 N  
HETATM    3  O   UNL     1     -13.001  13.731  65.066  1.00  0.00    -0.732 OA 
HETATM    4  C   UNL     1     -11.980  13.746  65.776  1.00  0.00    -0.399 C  
ENDROOT
BRANCH   2   5
HETATM    5  C   UNL     1     -10.785  14.944  67.609  1.00  0.00    -0.270 A  
HETATM    6  C   UNL     1      -8.981  16.155  68.565  1.00  0.00    -0.204 A  
HETATM    7  C   UNL     1     -10.350  13.881  68.417  1.00  0.00    -0.249 A  
HETATM    8  C   UNL     1     -10.071  16.157  67.647  1.00  0.00    -0.248 A  
HETATM    9  C   UNL     1      -8.685  15.096  69.437  1.00  0.00    -0.173 A  
HETATM   10  N   UNL     1      -9.355  13.942  69.319  1.00  0.00     0.344 NA 
BRANCH   9  11
HETATM   11  N   UNL     1      -7.748  15.209  70.444  1.00  0.00     0.510 NA 
HETATM   12  C   UNL     1      -6.559  16.059  70.255  1.00  0.00     0.290 C  
HETATM   13  C   UNL     1      -6.387  13.636  71.821  1.00  0.00     1.287 C  
HETATM   14  C   UNL     1      -5.236  15.307  70.550  1.00  0.00    -0.135 C  
HETATM   15  N   UNL     1      -5.203  14.517  71.801  1.00  0.00    -0.161 NA 
HETATM   16  C   UNL     1      -5.150  15.374  72.983  1.00  0.00     0.723 C  
HETATM   17  C   UNL     1      -7.749  14.348  71.632  1.00  0.00     4.289 C  
ENDBRANCH   9  11
BRANCH   8  18
HETATM   18  C   UNL     1     -10.401  17.467  66.942  1.00  0.00    -0.315 A  
HETATM   19  C   UNL     1     -10.764  19.917  67.266  1.00  0.00    -0.460 A  
HETATM   20  C   UNL     1     -11.006  20.095  65.920  1.00  0.00     0.022 A  
HETATM   21  C   UNL     1     -10.495  18.634  67.759  1.00  0.00    -0.457 A  
HETATM   22  C   UNL     1     -10.949  18.993  65.082  1.00  0.00     0.874 A  
HETATM   23  C   UNL     1     -10.618  17.695  65.560  1.00  0.00    -0.072 A  
HETATM   24  C   UNL     1     -10.547  16.655  64.481  1.00  0.00     0.792 C  
ENDBRANCH   8  18
ENDBRANCH   2   5
BRANCH   4  25
HETATM   25  C   UNL     1     -10.822  12.736  65.398  1.00  0.00    -0.313 C  
HETATM   26  C   UNL     1      -9.568  13.648  65.342  1.00  0.00     0.073 C  
HETATM   27  C   UNL     1     -10.848  11.956  64.079  1.00  0.00    -0.438 C  
BRANCH  25  28
HETATM   28  C   UNL     1     -10.703  11.649  66.502  1.00  0.00    -0.313 A  
HETATM   29  C   UNL     1      -9.612   9.625  67.368  1.00  0.00    -0.183 A  
HETATM   30  C   UNL     1      -9.749  10.621  66.389  1.00  0.00    -0.241 A  
HETATM   31  F   UNL     1     -12.060   9.743  70.763  1.00  0.00    -0.315 F  
HETATM   32  C   UNL     1      -8.617   8.502  67.193  1.00  0.00    -0.122 C  
HETATM   33  F   UNL     1     -13.562  10.801  69.602  1.00  0.00     0.257 F  
HETATM   34  C   UNL     1     -10.426   9.678  68.509  1.00  0.00    -0.241 A  
HETATM   35  F   UNL     1      -7.702   8.454  68.200  1.00  0.00    -0.095 F  
HETATM   36  F   UNL     1      -7.896   8.587  66.039  1.00  0.00    -0.090 F  
HETATM   37  F   UNL     1     -12.006  11.912  70.635  1.00  0.00    -0.421 F  
HETATM   38  C   UNL     1     -12.235  10.786  69.905  1.00  0.00    -0.313 C  
HETATM   39  C   UNL     1     -11.362  10.708  68.675  1.00  0.00    -0.345 A  
HETATM   40  F   UNL     1      -9.213   7.278  67.170  1.00  0.00    -0.124 F  
HETATM   41  C   UNL     1     -11.485  11.687  67.671  1.00  0.00    -0.373 A  
ENDBRANCH  25  28
ENDBRANCH   4  25
TORSDOF 5
ENDMDL
MODEL      276
REMARK 921   NORMALIZED FREE ENERGY PREDICTED BY IDOCK:    7.57 KCAL/MOL
REMARK 922        TOTAL FREE ENERGY PREDICTED BY IDOCK:    8.14 KCAL/MOL
REMARK 923 INTER-LIGAND FREE ENERGY PREDICTED BY IDOCK:    0.64 KCAL/MOL
REMARK 924 INTRA-LIGAND FREE ENERGY PREDICTED BY IDOCK:    7.50 KCAL/MOL
REMARK 927      BINDING AFFINITY PREDICTED BY RF-SCORE:    0.00 PKD
ROOT
HETATM    1  C   UNL     1      -8.812   9.907  64.435  1.00  0.00    -0.217 C  
HETATM    2  N   UNL     1      -8.783  10.632  65.716  1.00  0.00    -0.177 N  
HETATM    3  O   UNL     1      -8.619  12.561  64.547  1.00  0.00     1.750 OA 
HETATM    4  C   UNL     1      -8.849  12.023  65.644  1.00  0.00     0.276 C  
ENDROOT
BRANCH   2   5
HETATM    5  C   UNL     1      -9.146   9.848  66.829  1.00  0.00    -0.143 A  
HETATM    6  C   UNL     1      -9.510   7.899  68.133  1.00  0.00    -0.154 A  
HETATM    7  C   UNL     1      -9.598  10.550  67.958  1.00  0.00    -0.148 A  
HETATM    8  C   UNL     1      -9.106   8.442  66.879  1.00  0.00    -0.179 A  
HETATM    9  C   UNL     1      -9.826   8.670  69.262  1.00  0.00    -0.188 A  
HETATM   10  N   UNL     1      -9.909  10.002  69.146  1.00  0.00    -0.193 NA 
BRANCH   9  11
HETATM   11  N   UNL     1     -10.020   8.109  70.508  1.00  0.00    -0.186 NA 
HETATM   12  C   UNL     1     -10.386   8.962  71.653  1.00  0.00    -0.345 C  
HETATM   13  C   UNL     1      -8.720   6.632  72.041  1.00  0.00    -0.127 C  
HETATM   14  C   UNL     1      -9.450   8.756  72.872  1.00  0.00     0.281 C  
HETATM   15  N   UNL     1      -9.173   7.351  73.248  1.00  0.00    -0.166 NA 
HETATM   16  C   UNL     1     -10.340   6.710  73.850  1.00  0.00    -0.360 C  
HETATM   17  C   UNL     1      -9.668   6.720  70.820  1.00  0.00    -0.179 C  
ENDBRANCH   9  11
BRANCH   8  18
HETATM   18  C   UNL     1      -8.570   7.476  65.829  1.00  0.00    -0.158 A  
HETATM   19  C   UNL     1      -6.567   6.843  64.478  1.00  0.00    -0.042 A  
HETATM   20  C   UNL     1      -7.260   5.819  63.867  1.00  0.00    -0.055 A  
HETATM   21  C   UNL     1      -7.218   7.659  65.413  1.00  0.00    -0.065 A  
HETATM   22  C   UNL     1      -8.584   5.609  64.217  1.00  0.00     0.034 A  
HETATM   23  C   UNL     1      -9.239   6.392  65.207  1.00  0.00     0.389 A  
HETATM   24  C   UNL     1     -10.649   5.959  65.482  1.00  0.00     1.174 C  
ENDBRANCH   8  18
ENDBRANCH   2   5
BRANCH   4  25
HETATM   25  C   UNL     1      -9.264  12.971  66.840  1.00  0.00    -0.236 C  
HETATM   26  C   UNL     1     -10.651  12.415  67.259  1.00  0.00    -0.246 C  
HETATM   27  C   UNL     1      -9.447  14.478  66.634  1.00  0.00    -0.301 C  
BRANCH  25  28
HETATM   28  C   UNL     1      -8.219  12.849  67.984  1.00  0.00    -0.168 A  
HETATM   29  C   UNL     1      -6.949  13.895  69.809  1.00  0.00     0.139 A  
HETATM   30  C   UNL     1      -7.886  13.969  68.767  1.00  0.00    -0.097 A  
HETATM   31  F   UNL     1      -5.135  10.221  70.670  1.00  0.00    -0.037 F  
HETATM   32  C   UNL     1      -6.569  15.127  70.597  1.00  0.00     0.248 C  
HETATM   33  F   UNL     1      -5.440   9.624  68.603  1.00  0.00    -0.037 F  
HETATM   34  C   UNL     1      -6.355  12.659  70.101  1.00  0.00     0.060 A  
HETATM   35  F   UNL     1      -6.824  14.994  71.927  1.00  0.00     0.887 F  
HETATM   36  F   UNL     1      -7.232  16.251  70.202  1.00  0.00     0.045 F  
HETATM   37  F   UNL     1      -6.989   9.252  70.082  1.00  0.00    -0.043 F  
HETATM   38  C   UNL     1      -6.068  10.171  69.680  1.00  0.00    -0.046 C  
HETATM   39  C   UNL     1      -6.690  11.512  69.367  1.00  0.00    -0.116 A  
HETATM   40  F   UNL     1      -5.245  15.421  70.496  1.00  0.00    -0.114 F  
HETATM   41  C   UNL     1      -7.623  11.619  68.320  1.00  0.00    -0.120 A  
ENDBRANCH  25  28
ENDBRANCH   4  25
TORSDOF 5
ENDMDL
MODEL      277
REMARK 921   NORMALIZED FREE ENERGY PREDICTED BY IDOCK:    7.58 KCAL/MOL
REMARK 922        TOTAL FREE ENERGY PREDICTED BY IDOCK:    8.15 KCAL/MOL
REMARK 923 INTER-LIGAND FREE ENERGY PREDICTED BY IDOCK:    6.34 KCAL/MOL
REMARK 924 INTRA-LIGAND FREE ENERGY PREDICTED BY IDOCK:    1.81 KCAL/MOL
REMARK 927      BINDING AFFINITY PREDICTED BY RF-SCORE:    0.00 PKD
ROOT
HETATM    1  C   UNL     1     -13.126  10.211  69.976  1.00  0.00     0.406 C  
HETATM    2  N   UNL     1     -11.658  10.288  70.058  1.00  0.00    -0.269 N  
HETATM    3  O   UNL     1     -11.816   9.751  72.249  1.00  0.00     0.033 OA 
HETATM    4  C   UNL     1     -11.079   9.866  71.254  1.00  0.00    -0.232 C  
ENDROOT
BRANCH   2   5
HETATM    5  C   UNL     1     -11.015  10.341  68.806  1.00  0.00    -0.243 A  
HETATM    6  C   UNL     1     -10.168  11.274  66.795  1.00  0.00    -0.263 A  
HETATM    7  C   UNL     1     -10.494   9.127  68.328  1.00  0.00    -0.208 A  
HETATM    8  C   UNL     1     -10.878  11.494  68.011  1.00  0.00    -0.259 A  
HETATM    9  C   UNL     1      -9.562  10.058  66.444  1.00  0.00    -0.196 A  
HETATM   10  N   UNL     1      -9.773   8.976  67.203  1.00  0.00    -0.169 NA 
BRANCH   9  11
HETATM   11  N   UNL     1      -8.720   9.940  65.357  1.00  0.00    -0.147 NA 
HETATM   12  C   UNL     1      -7.649  10.930  65.140  1.00  0.00     0.233 C  
HETATM   13  C   UNL     1      -8.988   9.712  62.887  1.00  0.00    -0.245 C  
HETATM   14  C   UNL     1      -7.680  11.538  63.715  1.00  0.00     1.730 C  
HETATM   15  N   UNL     1      -7.826  10.575  62.600  1.00  0.00    -0.152 NA 
HETATM   16  C   UNL     1      -6.610   9.790  62.398  1.00  0.00    -0.102 C  
HETATM   17  C   UNL     1      -8.962   8.996  64.260  1.00  0.00     0.049 C  
ENDBRANCH   9  11
BRANCH   8  18
HETATM   18  C   UNL     1     -11.271  12.926  68.352  1.00  0.00    -0.305 A  
HETATM   19  C   UNL     1     -12.587  14.359  69.918  1.00  0.00    -0.217 A  
HETATM   20  C   UNL     1     -12.199  15.503  69.254  1.00  0.00    -0.209 A  
HETATM   21  C   UNL     1     -12.152  13.109  69.459  1.00  0.00    -0.296 A  
HETATM   22  C   UNL     1     -11.361  15.384  68.156  1.00  0.00    -0.353 A  
HETATM   23  C   UNL     1     -10.864  14.127  67.716  1.00  0.00    -0.260 A  
HETATM   24  C   UNL     1      -9.921  14.225  66.554  1.00  0.00    -0.289 C  
ENDBRANCH   8  18
ENDBRANCH   2   5
BRANCH   4  25
HETATM   25  C   UNL     1      -9.563   9.449  71.426  1.00  0.00    -0.076 C  
HETATM   26  C   UNL     1      -9.450   9.165  72.947  1.00  0.00     1.476 C  
HETATM   27  C   UNL     1      -8.428  10.421  71.082  1.00  0.00     2.990 C  
BRANCH  25  28
HETATM   28  C   UNL     1      -9.275   8.182  70.573  1.00  0.00    -0.157 A  
HETATM   29  C   UNL     1      -7.670   6.762  69.370  1.00  0.00    -0.105 A  
HETATM   30  C   UNL     1      -7.967   7.899  70.138  1.00  0.00    -0.107 A  
HETATM   31  F   UNL     1     -10.744   4.092  68.394  1.00  0.00     0.410 F  
HETATM   32  C   UNL     1      -6.267   6.513  68.870  1.00  0.00    -0.030 C  
HETATM   33  F   UNL     1     -12.167   5.729  68.544  1.00  0.00     1.427 F  
HETATM   34  C   UNL     1      -8.702   5.865  69.058  1.00  0.00    -0.114 A  
HETATM   35  F   UNL     1      -5.759   5.329  69.310  1.00  0.00    -0.012 F  
HETATM   36  F   UNL     1      -5.373   7.467  69.257  1.00  0.00    -0.015 F  
HETATM   37  F   UNL     1     -11.661   4.565  70.308  1.00  0.00     2.000 F  
HETATM   38  C   UNL     1     -11.129   5.129  69.189  1.00  0.00     1.057 C  
HETATM   39  C   UNL     1     -10.011   6.094  69.506  1.00  0.00    -0.207 A  
HETATM   40  F   UNL     1      -6.199   6.468  67.511  1.00  0.00    -0.026 F  
HETATM   41  C   UNL     1     -10.281   7.248  70.264  1.00  0.00    -0.205 A  
ENDBRANCH  25  28
ENDBRANCH   4  25
TORSDOF 5
ENDMDL
MODEL      278
REMARK 921   NORMALIZED FREE ENERGY PREDICTED BY IDOCK:    7.68 KCAL/MOL
REMARK 922        TOTAL FREE ENERGY PREDICTED BY IDOCK:    8.29 KCAL/MOL
REMARK 923 INTER-LIGAND FREE ENERGY PREDICTED BY IDOCK:    1.94 KCAL/MOL
REMARK 924 INTRA-LIGAND FREE ENERGY PREDICTED BY IDOCK:    6.35 KCAL/MOL
REMARK 927      BINDING AFFINITY PREDICTED BY RF-SCORE:    0.00 PKD
ROOT
HETATM    1  C   UNL     1     -12.603   9.168  70.449  1.00  0.00     0.457 C  
HETATM    2  N   UNL     1     -11.399   8.385  70.773  1.00  0.00    -0.268 N  
HETATM    3  O   UNL     1     -12.677   7.098  72.124  1.00  0.00    -0.218 OA 
HETATM    4  C   UNL     1     -11.594   7.228  71.528  1.00  0.00    -0.275 C  
ENDROOT
BRANCH   2   5
HETATM    5  C   UNL     1     -10.303   8.639  69.925  1.00  0.00    -0.209 A  
HETATM    6  C   UNL     1      -8.048   8.996  69.277  1.00  0.00    -0.105 A  
HETATM    7  C   UNL     1     -10.602   8.808  68.564  1.00  0.00    -0.129 A  
HETATM    8  C   UNL     1      -8.964   8.752  70.342  1.00  0.00    -0.188 A  
HETATM    9  C   UNL     1      -8.405   9.023  67.920  1.00  0.00    -0.117 A  
HETATM   10  N   UNL     1      -9.699   8.972  67.580  1.00  0.00    -0.150 NA 
BRANCH   9  11
HETATM   11  N   UNL     1      -7.465   9.064  66.910  1.00  0.00    -0.090 NA 
HETATM   12  C   UNL     1      -6.712  10.305  66.652  1.00  0.00    -0.082 C  
HETATM   13  C   UNL     1      -7.419   8.546  64.471  1.00  0.00    -0.105 C  
HETATM   14  C   UNL     1      -6.781  10.746  65.169  1.00  0.00     0.149 C  
HETATM   15  N   UNL     1      -6.535   9.687  64.164  1.00  0.00    -0.105 NA 
HETATM   16  C   UNL     1      -5.130   9.286  64.130  1.00  0.00    -0.058 C  
HETATM   17  C   UNL     1      -7.318   7.997  65.914  1.00  0.00    -0.076 C  
ENDBRANCH   9  11
BRANCH   8  18
HETATM   18  C   UNL     1      -8.385   8.518  71.732  1.00  0.00    -0.221 A  
HETATM   19  C   UNL     1      -6.400   7.685  72.998  1.00  0.00    -0.062 A  
HETATM   20  C   UNL     1      -7.013   7.952  74.204  1.00  0.00    -0.152 A  
HETATM   21  C   UNL     1      -7.083   7.940  71.802  1.00  0.00    -0.070 A  
HETATM   22  C   UNL     1      -8.288   8.495  74.198  1.00  0.00     0.028 A  
HETATM   23  C   UNL     1      -8.969   8.814  72.991  1.00  0.00     0.281 A  
HETATM   24  C   UNL     1     -10.310   9.451  73.205  1.00  0.00     3.695 C  
ENDBRANCH   8  18
ENDBRANCH   2   5
BRANCH   4  25
HETATM   25  C   UNL     1     -10.566   6.030  71.626  1.00  0.00    -0.286 C  
HETATM   26  C   UNL     1     -11.290   5.026  72.561  1.00  0.00    -0.138 C  
HETATM   27  C   UNL     1      -9.164   6.232  72.210  1.00  0.00    -0.139 C  
BRANCH  25  28
HETATM   28  C   UNL     1     -10.327   5.437  70.209  1.00  0.00    -0.357 A  
HETATM   29  C   UNL     1     -10.659   5.567  67.778  1.00  0.00    -0.229 A  
HETATM   30  C   UNL     1     -10.858   6.073  69.072  1.00  0.00    -0.412 A  
HETATM   31  F   UNL     1      -8.362   2.105  67.265  1.00  0.00    -0.070 F  
HETATM   32  C   UNL     1     -11.288   6.240  66.580  1.00  0.00     0.307 C  
HETATM   33  F   UNL     1      -8.908   1.485  69.275  1.00  0.00    -0.078 F  
HETATM   34  C   UNL     1      -9.878   4.415  67.612  1.00  0.00    -0.168 A  
HETATM   35  F   UNL     1     -10.365   6.649  65.667  1.00  0.00     0.439 F  
HETATM   36  F   UNL     1     -12.014   7.349  66.898  1.00  0.00     0.872 F  
HETATM   37  F   UNL     1      -7.162   2.739  68.963  1.00  0.00    -0.043 F  
HETATM   38  C   UNL     1      -8.445   2.541  68.552  1.00  0.00    -0.068 C  
HETATM   39  C   UNL     1      -9.300   3.775  68.718  1.00  0.00    -0.230 A  
HETATM   40  F   UNL     1     -12.140   5.417  65.910  1.00  0.00     0.865 F  
HETATM   41  C   UNL     1      -9.527   4.298  70.004  1.00  0.00    -0.254 A  
ENDBRANCH  25  28
ENDBRANCH   4  25
TORSDOF 5
ENDMDL
MODEL      279
REMARK 921   NORMALIZED FREE ENERGY PREDICTED BY IDOCK:    7.93 KCAL/MOL
REMARK 922        TOTAL FREE ENERGY PREDICTED BY IDOCK:    8.61 KCAL/MOL
REMARK 923 INTER-LIGAND FREE ENERGY PREDICTED BY IDOCK:    4.50 KCAL/MOL
REMARK 924 INTRA-LIGAND FREE ENERGY PREDICTED BY IDOCK:    4.11 KCAL/MOL
REMARK 927      BINDING AFFINITY PREDICTED BY RF-SCORE:    0.00 PKD
ROOT
HETATM    1  C   UNL     1      -6.031  13.371  66.145  1.00  0.00     4.794 C  
HETATM    2  N   UNL     1      -6.488  13.072  67.511  1.00  0.00    -0.162 N  
HETATM    3  O   UNL     1      -5.920  15.181  68.096  1.00  0.00    -0.114 OA 
HETATM    4  C   UNL     1      -6.536  14.144  68.401  1.00  0.00    -0.103 C  
ENDROOT
BRANCH   2   5
HETATM    5  C   UNL     1      -7.230  11.879  67.620  1.00  0.00    -0.112 A  
HETATM    6  C   UNL     1      -9.066  10.391  67.394  1.00  0.00    -0.144 A  
HETATM    7  C   UNL     1      -6.579  10.800  68.239  1.00  0.00    -0.058 A  
HETATM    8  C   UNL     1      -8.555  11.704  67.178  1.00  0.00    -0.164 A  
HETATM    9  C   UNL     1      -8.310   9.324  67.903  1.00  0.00    -0.116 A  
HETATM   10  N   UNL     1      -7.074   9.556  68.365  1.00  0.00    -0.070 NA 
BRANCH   9  11
HETATM   11  N   UNL     1      -8.779   8.026  67.913  1.00  0.00    -0.128 NA 
HETATM   12  C   UNL     1      -7.830   6.898  67.943  1.00  0.00    -0.113 C  
HETATM   13  C   UNL     1     -10.334   6.662  66.518  1.00  0.00    -0.050 C  
HETATM   14  C   UNL     1      -8.095   5.867  66.817  1.00  0.00    -0.102 C  
HETATM   15  N   UNL     1      -9.503   5.448  66.638  1.00  0.00    -0.137 NA 
HETATM   16  C   UNL     1      -9.958   4.590  67.730  1.00  0.00    -0.066 C  
HETATM   17  C   UNL     1     -10.185   7.685  67.671  1.00  0.00    -0.214 C  
ENDBRANCH   9  11
BRANCH   8  18
HETATM   18  C   UNL     1      -9.428  12.684  66.402  1.00  0.00    -0.231 A  
HETATM   19  C   UNL     1     -11.556  12.941  65.121  1.00  0.00    -0.367 A  
HETATM   20  C   UNL     1     -11.293  14.273  64.884  1.00  0.00    -0.372 A  
HETATM   21  C   UNL     1     -10.633  12.169  65.839  1.00  0.00    -0.293 A  
HETATM   22  C   UNL     1     -10.125  14.823  65.389  1.00  0.00    -0.406 A  
HETATM   23  C   UNL     1      -9.209  14.065  66.170  1.00  0.00    -0.062 A  
HETATM   24  C   UNL     1      -8.043  14.863  66.674  1.00  0.00     0.134 C  
ENDBRANCH   8  18
ENDBRANCH   2   5
BRANCH   4  25
HETATM   25  C   UNL     1      -7.376  14.170  69.741  1.00  0.00     0.252 C  
HETATM   26  C   UNL     1      -6.349  14.676  70.787  1.00  0.00     0.002 C  
HETATM   27  C   UNL     1      -7.988  12.889  70.320  1.00  0.00     3.559 C  
BRANCH  25  28
HETATM   28  C   UNL     1      -8.574  15.147  69.581  1.00  0.00    -0.058 A  
HETATM   29  C   UNL     1      -9.411  17.444  69.330  1.00  0.00     0.083 A  
HETATM   30  C   UNL     1      -8.354  16.533  69.478  1.00  0.00     0.270 A  
HETATM   31  F   UNL     1     -13.337  16.005  69.119  1.00  0.00     0.803 F  
HETATM   32  C   UNL     1      -9.148  18.930  69.278  1.00  0.00     0.078 C  
HETATM   33  F   UNL     1     -12.727  14.269  70.277  1.00  0.00    -0.377 F  
HETATM   34  C   UNL     1     -10.723  16.954  69.246  1.00  0.00    -0.288 A  
HETATM   35  F   UNL     1      -9.593  19.498  68.123  1.00  0.00    -0.361 F  
HETATM   36  F   UNL     1      -7.827  19.253  69.366  1.00  0.00    -0.328 F  
HETATM   37  F   UNL     1     -12.558  14.243  68.111  1.00  0.00    -0.216 F  
HETATM   38  C   UNL     1     -12.385  15.035  69.205  1.00  0.00    -0.059 C  
HETATM   39  C   UNL     1     -10.978  15.577  69.307  1.00  0.00    -0.268 A  
HETATM   40  F   UNL     1      -9.764  19.603  70.288  1.00  0.00    -0.007 F  
HETATM   41  C   UNL     1      -9.899  14.688  69.468  1.00  0.00     0.072 A  
ENDBRANCH  25  28
ENDBRANCH   4  25
TORSDOF 5
ENDMDL
MODEL      280
REMARK 921   NORMALIZED FREE ENERGY PREDICTED BY IDOCK:    8.76 KCAL/MOL
REMARK 922        TOTAL FREE ENERGY PREDICTED BY IDOCK:    9.68 KCAL/MOL
REMARK 923 INTER-LIGAND FREE ENERGY PREDICTED BY IDOCK:    6.22 KCAL/MOL
REMARK 924 INTRA-LIGAND FREE ENERGY PREDICTED BY IDOCK:    3.45 KCAL/MOL
REMARK 927      BINDING AFFINITY PREDICTED BY RF-SCORE:    0.00 PKD
ROOT
HETATM    1  C   UNL     1      -6.766  10.301  69.441  1.00  0.00    -0.063 C  
HETATM    2  N   UNL     1      -7.767  10.154  68.371  1.00  0.00    -0.087 N  
HETATM    3  O   UNL     1      -8.047   8.004  69.014  1.00  0.00    -0.119 OA 
HETATM    4  C   UNL     1      -8.487   8.961  68.353  1.00  0.00    -0.129 C  
ENDROOT
BRANCH   2   5
HETATM    5  C   UNL     1      -8.181  11.374  67.802  1.00  0.00    -0.125 A  
HETATM    6  C   UNL     1      -8.521  13.033  66.139  1.00  0.00     0.749 A  
HETATM    7  C   UNL     1      -8.817  12.277  68.670  1.00  0.00     0.025 A  
HETATM    8  C   UNL     1      -7.990  11.750  66.459  1.00  0.00    -0.009 A  
HETATM    9  C   UNL     1      -9.261  13.826  67.030  1.00  0.00    -0.251 A  
HETATM   10  N   UNL     1      -9.362  13.453  68.312  1.00  0.00    -0.212 NA 
BRANCH   9  11
HETATM   11  N   UNL     1      -9.924  14.967  66.627  1.00  0.00    -0.249 NA 
HETATM   12  C   UNL     1      -9.765  16.221  67.384  1.00  0.00    -0.234 C  
HETATM   13  C   UNL     1     -12.285  15.592  66.116  1.00  0.00     1.144 C  
HETATM   14  C   UNL     1     -11.122  16.848  67.791  1.00  0.00    -0.116 C  
HETATM   15  N   UNL     1     -12.146  16.930  66.725  1.00  0.00     2.301 NA 
HETATM   16  C   UNL     1     -11.811  17.944  65.727  1.00  0.00     3.476 C  
HETATM   17  C   UNL     1     -10.970  14.959  65.598  1.00  0.00    -0.344 C  
ENDBRANCH   9  11
BRANCH   8  18
HETATM   18  C   UNL     1      -7.419  10.916  65.318  1.00  0.00     0.204 A  
HETATM   19  C   UNL     1      -7.782  10.169  62.963  1.00  0.00    -0.149 A  
HETATM   20  C   UNL     1      -6.616   9.433  62.979  1.00  0.00    -0.099 A  
HETATM   21  C   UNL     1      -8.178  10.867  64.111  1.00  0.00     0.230 A  
HETATM   22  C   UNL     1      -5.849   9.426  64.134  1.00  0.00    -0.076 A  
HETATM   23  C   UNL     1      -6.209  10.178  65.286  1.00  0.00    -0.118 A  
HETATM   24  C   UNL     1      -5.211  10.085  66.402  1.00  0.00    -0.043 C  
ENDBRANCH   8  18
ENDBRANCH   2   5
BRANCH   4  25
HETATM   25  C   UNL     1      -9.867   8.750  67.608  1.00  0.00    -0.228 C  
HETATM   26  C   UNL     1     -10.488   7.543  68.360  1.00  0.00    -0.212 C  
HETATM   27  C   UNL     1      -9.920   8.404  66.116  1.00  0.00    -0.112 C  
BRANCH  25  28
HETATM   28  C   UNL     1     -10.733  10.033  67.752  1.00  0.00    -0.333 A  
HETATM   29  C   UNL     1     -11.687  11.792  69.177  1.00  0.00    -0.388 A  
HETATM   30  C   UNL     1     -10.914  10.632  69.012  1.00  0.00    -0.295 A  
HETATM   31  F   UNL     1     -13.451  13.572  65.824  1.00  0.00    -0.207 F  
HETATM   32  C   UNL     1     -11.911  12.381  70.550  1.00  0.00    -0.062 C  
HETATM   33  F   UNL     1     -13.474  11.631  64.847  1.00  0.00     0.885 F  
HETATM   34  C   UNL     1     -12.264  12.391  68.048  1.00  0.00     0.143 A  
HETATM   35  F   UNL     1     -11.464  13.664  70.646  1.00  0.00    -0.229 F  
HETATM   36  F   UNL     1     -11.284  11.694  71.547  1.00  0.00     1.296 F  
HETATM   37  F   UNL     1     -11.732  12.918  64.665  1.00  0.00    -0.338 F  
HETATM   38  C   UNL     1     -12.678  12.486  65.545  1.00  0.00     0.263 C  
HETATM   39  C   UNL     1     -12.074  11.844  66.771  1.00  0.00     0.267 A  
HETATM   40  F   UNL     1     -13.228  12.417  70.893  1.00  0.00    -0.195 F  
HETATM   41  C   UNL     1     -11.304  10.674  66.637  1.00  0.00     0.261 A  
ENDBRANCH  25  28
ENDBRANCH   4  25
TORSDOF 5
ENDMDL
MODEL      281
REMARK 921   NORMALIZED FREE ENERGY PREDICTED BY IDOCK:    9.18 KCAL/MOL
REMARK 922        TOTAL FREE ENERGY PREDICTED BY IDOCK:   10.23 KCAL/MOL
REMARK 923 INTER-LIGAND FREE ENERGY PREDICTED BY IDOCK:    8.84 KCAL/MOL
REMARK 924 INTRA-LIGAND FREE ENERGY PREDICTED BY IDOCK:    1.38 KCAL/MOL
REMARK 927      BINDING AFFINITY PREDICTED BY RF-SCORE:    0.00 PKD
ROOT
HETATM    1  C   UNL     1     -10.135  14.357  71.121  1.00  0.00     2.793 C  
HETATM    2  N   UNL     1      -9.675  14.515  69.731  1.00  0.00     0.321 N  
HETATM    3  O   UNL     1      -9.779  16.755  70.017  1.00  0.00     0.399 OA 
HETATM    4  C   UNL     1      -9.367  15.811  69.321  1.00  0.00    -0.261 C  
ENDROOT
BRANCH   2   5
HETATM    5  C   UNL     1      -9.180  13.329  69.152  1.00  0.00     0.627 A  
HETATM    6  C   UNL     1      -9.084  11.450  67.705  1.00  0.00    -0.158 A  
HETATM    7  C   UNL     1      -7.974  12.841  69.680  1.00  0.00     1.414 A  
HETATM    8  C   UNL     1      -9.806  12.607  68.120  1.00  0.00    -0.226 A  
HETATM    9  C   UNL     1      -7.817  11.096  68.191  1.00  0.00    -0.118 A  
HETATM   10  N   UNL     1      -7.291  11.779  69.216  1.00  0.00    -0.007 NA 
BRANCH   9  11
HETATM   11  N   UNL     1      -7.066  10.084  67.626  1.00  0.00    -0.086 NA 
HETATM   12  C   UNL     1      -7.689   9.143  66.679  1.00  0.00    -0.097 C  
HETATM   13  C   UNL     1      -5.599   8.248  68.464  1.00  0.00    -0.037 C  
HETATM   14  C   UNL     1      -7.456   7.661  67.071  1.00  0.00    -0.095 C  
HETATM   15  N   UNL     1      -6.070   7.297  67.438  1.00  0.00    -0.043 NA 
HETATM   16  C   UNL     1      -5.186   7.279  66.274  1.00  0.00    -0.024 C  
HETATM   17  C   UNL     1      -5.714   9.745  68.084  1.00  0.00    -0.039 C  
ENDBRANCH   9  11
BRANCH   8  18
HETATM   18  C   UNL     1     -11.056  12.981  67.331  1.00  0.00    -0.302 A  
HETATM   19  C   UNL     1     -12.962  14.588  67.178  1.00  0.00     1.646 A  
HETATM   20  C   UNL     1     -13.461  13.944  66.065  1.00  0.00     1.388 A  
HETATM   21  C   UNL     1     -11.807  14.099  67.802  1.00  0.00    -0.414 A  
HETATM   22  C   UNL     1     -12.784  12.838  65.576  1.00  0.00    -0.118 A  
HETATM   23  C   UNL     1     -11.578  12.367  66.164  1.00  0.00    -0.452 A  
HETATM   24  C   UNL     1     -10.972  11.200  65.444  1.00  0.00    -0.151 C  
ENDBRANCH   8  18
ENDBRANCH   2   5
BRANCH   4  25
HETATM   25  C   UNL     1      -8.468  16.173  68.071  1.00  0.00    -0.168 C  
HETATM   26  C   UNL     1      -7.870  14.801  67.662  1.00  0.00    -0.191 C  
HETATM   27  C   UNL     1      -7.285  17.140  68.196  1.00  0.00    -0.193 C  
BRANCH  25  28
HETATM   28  C   UNL     1      -9.360  16.777  66.950  1.00  0.00    -0.250 A  
HETATM   29  C   UNL     1     -10.763  16.452  64.959  1.00  0.00    -0.279 A  
HETATM   30  C   UNL     1      -9.950  15.942  65.983  1.00  0.00    -0.360 A  
HETATM   31  F   UNL     1     -11.520  20.567  64.805  1.00  0.00    -0.109 F  
HETATM   32  C   UNL     1     -11.338  15.539  63.902  1.00  0.00     0.541 C  
HETATM   33  F   UNL     1      -9.630  20.918  65.821  1.00  0.00    -0.048 F  
HETATM   34  C   UNL     1     -11.023  17.829  64.921  1.00  0.00     1.029 A  
HETATM   35  F   UNL     1     -12.698  15.572  63.868  1.00  0.00    -0.330 F  
HETATM   36  F   UNL     1     -11.002  14.228  64.073  1.00  0.00    -0.222 F  
HETATM   37  F   UNL     1     -11.440  20.587  66.978  1.00  0.00     0.442 F  
HETATM   38  C   UNL     1     -10.767  20.171  65.869  1.00  0.00    -0.175 C  
HETATM   39  C   UNL     1     -10.484  18.687  65.890  1.00  0.00    -0.395 A  
HETATM   40  F   UNL     1     -10.923  15.869  62.648  1.00  0.00     3.911 F  
HETATM   41  C   UNL     1      -9.662  18.149  66.897  1.00  0.00    -0.318 A  
ENDBRANCH  25  28
ENDBRANCH   4  25
TORSDOF 5
ENDMDL
MODEL      282
REMARK 921   NORMALIZED FREE ENERGY PREDICTED BY IDOCK:    9.57 KCAL/MOL
REMARK 922        TOTAL FREE ENERGY PREDICTED BY IDOCK:   10.73 KCAL/MOL
REMARK 923 INTER-LIGAND FREE ENERGY PREDICTED BY IDOCK:   10.15 KCAL/MOL
REMARK 924 INTRA-LIGAND FREE ENERGY PREDICTED BY IDOCK:    0.58 KCAL/MOL
REMARK 927      BINDING AFFINITY PREDICTED BY RF-SCORE:    0.00 PKD
ROOT
HETATM    1  C   UNL     1      -9.677   9.702  71.976  1.00  0.00     1.715 C  
HETATM    2  N   UNL     1      -9.891  10.167  70.596  1.00  0.00     0.201 N  
HETATM    3  O   UNL     1     -11.930   9.191  70.650  1.00  0.00    -0.239 OA 
HETATM    4  C   UNL     1     -11.169   9.983  70.069  1.00  0.00    -0.288 C  
ENDROOT
BRANCH   2   5
HETATM    5  C   UNL     1      -8.949  11.119  70.158  1.00  0.00     2.019 A  
HETATM    6  C   UNL     1      -6.911  11.974  69.295  1.00  0.00    -0.066 A  
HETATM    7  C   UNL     1      -9.354  12.462  70.221  1.00  0.00     4.741 A  
HETATM    8  C   UNL     1      -7.654  10.825  69.692  1.00  0.00    -0.052 A  
HETATM    9  C   UNL     1      -7.430  13.278  69.263  1.00  0.00     0.277 A  
HETATM   10  N   UNL     1      -8.645  13.514  69.774  1.00  0.00     1.587 NA 
BRANCH   9  11
HETATM   11  N   UNL     1      -6.746  14.330  68.688  1.00  0.00    -0.086 NA 
HETATM   12  C   UNL     1      -6.249  15.435  69.527  1.00  0.00    -0.141 C  
HETATM   13  C   UNL     1      -7.159  15.945  66.832  1.00  0.00    -0.096 C  
HETATM   14  C   UNL     1      -6.700  16.825  69.011  1.00  0.00    -0.209 C  
HETATM   15  N   UNL     1      -6.532  17.065  67.560  1.00  0.00    -0.135 NA 
HETATM   16  C   UNL     1      -5.125  17.224  67.196  1.00  0.00    -0.141 C  
HETATM   17  C   UNL     1      -6.671  14.533  67.237  1.00  0.00     0.204 C  
ENDBRANCH   9  11
BRANCH   8  18
HETATM   18  C   UNL     1      -7.028   9.458  69.447  1.00  0.00    -0.049 A  
HETATM   19  C   UNL     1      -6.939   7.089  70.232  1.00  0.00    -0.065 A  
HETATM   20  C   UNL     1      -6.025   6.761  69.253  1.00  0.00    -0.022 A  
HETATM   21  C   UNL     1      -7.402   8.406  70.336  1.00  0.00    -0.056 A  
HETATM   22  C   UNL     1      -5.609   7.748  68.374  1.00  0.00    -0.028 A  
HETATM   23  C   UNL     1      -6.116   9.076  68.430  1.00  0.00    -0.046 A  
HETATM   24  C   UNL     1      -5.585   9.971  67.350  1.00  0.00    -0.042 C  
ENDBRANCH   8  18
ENDBRANCH   2   5
BRANCH   4  25
HETATM   25  C   UNL     1     -11.752  10.764  68.822  1.00  0.00    -0.315 C  
HETATM   26  C   UNL     1     -11.421  12.243  69.151  1.00  0.00    -0.352 C  
HETATM   27  C   UNL     1     -13.246  10.720  68.486  1.00  0.00     4.670 C  
BRANCH  25  28
HETATM   28  C   UNL     1     -11.037  10.281  67.529  1.00  0.00    -0.302 A  
HETATM   29  C   UNL     1      -9.841   8.516  66.307  1.00  0.00    -0.285 A  
HETATM   30  C   UNL     1     -10.490   8.986  67.460  1.00  0.00    -0.338 A  
HETATM   31  F   UNL     1      -9.578  11.002  62.948  1.00  0.00    -0.253 F  
HETATM   32  C   UNL     1      -9.213   7.142  66.281  1.00  0.00    -0.127 C  
HETATM   33  F   UNL     1      -9.689  12.731  64.261  1.00  0.00    -0.211 F  
HETATM   34  C   UNL     1      -9.768   9.349  65.181  1.00  0.00    -0.106 A  
HETATM   35  F   UNL     1      -9.735   6.350  65.304  1.00  0.00     0.314 F  
HETATM   36  F   UNL     1      -9.369   6.450  67.445  1.00  0.00    -0.118 F  
HETATM   37  F   UNL     1     -11.512  11.826  63.500  1.00  0.00    -0.443 F  
HETATM   38  C   UNL     1     -10.276  11.533  63.990  1.00  0.00    -0.345 C  
HETATM   39  C   UNL     1     -10.335  10.631  65.201  1.00  0.00    -0.331 A  
HETATM   40  F   UNL     1      -7.872   7.187  66.050  1.00  0.00    -0.091 F  
HETATM   41  C   UNL     1     -10.969  11.080  66.374  1.00  0.00    -0.202 A  
ENDBRANCH  25  28
ENDBRANCH   4  25
TORSDOF 5
ENDMDL
MODEL      283
REMARK 921   NORMALIZED FREE ENERGY PREDICTED BY IDOCK:    9.85 KCAL/MOL
REMARK 922        TOTAL FREE ENERGY PREDICTED BY IDOCK:   11.08 KCAL/MOL
REMARK 923 INTER-LIGAND FREE ENERGY PREDICTED BY IDOCK:   10.76 KCAL/MOL
REMARK 924 INTRA-LIGAND FREE ENERGY PREDICTED BY IDOCK:    0.32 KCAL/MOL
REMARK 927      BINDING AFFINITY PREDICTED BY RF-SCORE:    0.00 PKD
ROOT
HETATM    1  C   UNL     1     -10.002   9.606  71.505  1.00  0.00     0.447 C  
HETATM    2  N   UNL     1     -10.110  10.088  70.118  1.00  0.00    -0.249 N  
HETATM    3  O   UNL     1     -12.140   9.099  69.998  1.00  0.00     0.213 OA 
HETATM    4  C   UNL     1     -11.340   9.904  69.489  1.00  0.00    -0.124 C  
ENDROOT
BRANCH   2   5
HETATM    5  C   UNL     1      -9.143  11.052  69.769  1.00  0.00     0.794 A  
HETATM    6  C   UNL     1      -7.051  11.931  69.073  1.00  0.00    -0.092 A  
HETATM    7  C   UNL     1      -9.558  12.392  69.827  1.00  0.00     2.154 A  
HETATM    8  C   UNL     1      -7.816  10.772  69.392  1.00  0.00    -0.093 A  
HETATM    9  C   UNL     1      -7.573  13.233  69.028  1.00  0.00     0.119 A  
HETATM   10  N   UNL     1      -8.823  13.455  69.454  1.00  0.00     0.861 NA 
BRANCH   9  11
HETATM   11  N   UNL     1      -6.855  14.299  68.525  1.00  0.00    -0.092 NA 
HETATM   12  C   UNL     1      -6.407  15.378  69.424  1.00  0.00    -0.134 C  
HETATM   13  C   UNL     1      -7.152  15.966  66.694  1.00  0.00     0.198 C  
HETATM   14  C   UNL     1      -6.824  16.783  68.921  1.00  0.00    -0.198 C  
HETATM   15  N   UNL     1      -6.568  17.064  67.490  1.00  0.00    -0.138 NA 
HETATM   16  C   UNL     1      -5.142  17.228  67.215  1.00  0.00    -0.133 C  
HETATM   17  C   UNL     1      -6.692  14.542  67.087  1.00  0.00     0.465 C  
ENDBRANCH   9  11
BRANCH   8  18
HETATM   18  C   UNL     1      -7.167   9.411  69.167  1.00  0.00    -0.066 A  
HETATM   19  C   UNL     1      -7.117   7.030  69.917  1.00  0.00    -0.070 A  
HETATM   20  C   UNL     1      -6.139   6.723  68.995  1.00  0.00    -0.026 A  
HETATM   21  C   UNL     1      -7.594   8.343  70.011  1.00  0.00    -0.068 A  
HETATM   22  C   UNL     1      -5.670   7.727  68.162  1.00  0.00    -0.032 A  
HETATM   23  C   UNL     1      -6.188   9.051  68.207  1.00  0.00    -0.054 A  
HETATM   24  C   UNL     1      -5.591   9.966  67.180  1.00  0.00    -0.046 C  
ENDBRANCH   8  18
ENDBRANCH   2   5
BRANCH   4  25
HETATM   25  C   UNL     1     -11.829  10.697  68.211  1.00  0.00     0.007 C  
HETATM   26  C   UNL     1     -11.609  12.179  68.615  1.00  0.00    -0.372 C  
HETATM   27  C   UNL     1     -13.276  10.594  67.716  1.00  0.00     8.392 C  
BRANCH  25  28
HETATM   28  C   UNL     1     -10.959  10.293  66.987  1.00  0.00    -0.189 A  
HETATM   29  C   UNL     1      -9.821  10.919  64.902  1.00  0.00    -0.339 A  
HETATM   30  C   UNL     1     -10.607  11.249  66.017  1.00  0.00    -0.314 A  
HETATM   31  F   UNL     1      -8.417   6.998  64.474  1.00  0.00    -0.084 F  
HETATM   32  C   UNL     1      -9.506  11.953  63.846  1.00  0.00     0.020 C  
HETATM   33  F   UNL     1     -10.120   6.298  65.629  1.00  0.00     0.155 F  
HETATM   34  C   UNL     1      -9.343   9.608  64.771  1.00  0.00    -0.286 A  
HETATM   35  F   UNL     1      -8.167  12.150  63.693  1.00  0.00     1.239 F  
HETATM   36  F   UNL     1     -10.034  13.182  64.113  1.00  0.00    -0.380 F  
HETATM   37  F   UNL     1      -8.289   6.887  66.641  1.00  0.00    -0.108 F  
HETATM   38  C   UNL     1      -9.122   7.223  65.617  1.00  0.00     0.131 C  
HETATM   39  C   UNL     1      -9.641   8.637  65.738  1.00  0.00    -0.134 A  
HETATM   40  F   UNL     1      -9.976  11.604  62.618  1.00  0.00    -0.313 F  
HETATM   41  C   UNL     1     -10.442   8.993  66.839  1.00  0.00    -0.293 A  
ENDBRANCH  25  28
ENDBRANCH   4  25
TORSDOF 5
ENDMDL
MODEL      284
REMARK 921   NORMALIZED FREE ENERGY PREDICTED BY IDOCK:   11.74 KCAL/MOL
REMARK 922        TOTAL FREE ENERGY PREDICTED BY IDOCK:   13.53 KCAL/MOL
REMARK 923 INTER-LIGAND FREE ENERGY PREDICTED BY IDOCK:   12.53 KCAL/MOL
REMARK 924 INTRA-LIGAND FREE ENERGY PREDICTED BY IDOCK:    1.00 KCAL/MOL
REMARK 927      BINDING AFFINITY PREDICTED BY RF-SCORE:    0.00 PKD
ROOT
HETATM    1  C   UNL     1     -12.951   7.186  66.353  1.00  0.00    12.448 C  
HETATM    2  N   UNL     1     -11.579   6.911  66.807  1.00  0.00     0.696 N  
HETATM    3  O   UNL     1     -11.762   4.845  65.905  1.00  0.00     0.885 OA 
HETATM    4  C   UNL     1     -11.007   5.716  66.370  1.00  0.00    -0.006 C  
ENDROOT
BRANCH   2   5
HETATM    5  C   UNL     1     -10.873   8.055  67.228  1.00  0.00    -0.089 A  
HETATM    6  C   UNL     1      -9.631   9.480  68.664  1.00  0.00    -0.151 A  
HETATM    7  C   UNL     1     -10.757   9.091  66.287  1.00  0.00     0.525 A  
HETATM    8  C   UNL     1     -10.306   8.235  68.504  1.00  0.00    -0.230 A  
HETATM    9  C   UNL     1      -9.443  10.414  67.633  1.00  0.00    -0.148 A  
HETATM   10  N   UNL     1     -10.054  10.225  66.456  1.00  0.00    -0.222 NA 
BRANCH   9  11
HETATM   11  N   UNL     1      -8.618  11.511  67.773  1.00  0.00    -0.133 NA 
HETATM   12  C   UNL     1      -8.493  12.180  69.080  1.00  0.00     0.534 C  
HETATM   13  C   UNL     1      -8.346  13.715  66.636  1.00  0.00     0.276 C  
HETATM   14  C   UNL     1      -8.749  13.706  68.997  1.00  0.00     0.322 C  
HETATM   15  N   UNL     1      -8.059  14.422  67.900  1.00  0.00    -0.138 NA 
HETATM   16  C   UNL     1      -6.622  14.529  68.143  1.00  0.00    -0.136 C  
HETATM   17  C   UNL     1      -8.013  12.203  66.630  1.00  0.00     0.058 C  
ENDBRANCH   9  11
BRANCH   8  18
HETATM   18  C   UNL     1     -10.219   7.231  69.647  1.00  0.00    -0.214 A  
HETATM   19  C   UNL     1      -8.660   5.931  71.102  1.00  0.00    -0.129 A  
HETATM   20  C   UNL     1      -9.714   5.353  71.776  1.00  0.00    -0.206 A  
HETATM   21  C   UNL     1      -8.913   6.824  70.053  1.00  0.00    -0.141 A  
HETATM   22  C   UNL     1     -11.007   5.694  71.410  1.00  0.00    -0.260 A  
HETATM   23  C   UNL     1     -11.277   6.644  70.387  1.00  0.00    -0.398 A  
HETATM   24  C   UNL     1     -12.739   6.919  70.191  1.00  0.00     0.706 C  
ENDBRANCH   8  18
ENDBRANCH   2   5
BRANCH   4  25
HETATM   25  C   UNL     1      -9.455   5.411  66.354  1.00  0.00    -0.164 C  
HETATM   26  C   UNL     1      -9.317   4.365  65.216  1.00  0.00    -0.164 C  
HETATM   27  C   UNL     1      -8.750   4.814  67.577  1.00  0.00    -0.104 C  
BRANCH  25  28
HETATM   28  C   UNL     1      -8.674   6.718  66.041  1.00  0.00    -0.155 A  
HETATM   29  C   UNL     1      -8.207   8.590  64.520  1.00  0.00    -0.158 A  
HETATM   30  C   UNL     1      -8.892   7.406  64.834  1.00  0.00     0.384 A  
HETATM   31  F   UNL     1      -5.482  10.169  67.279  1.00  0.00    -0.041 F  
HETATM   32  C   UNL     1      -8.420   9.277  63.191  1.00  0.00    -0.212 C  
HETATM   33  F   UNL     1      -5.161   8.165  68.058  1.00  0.00    -0.028 F  
HETATM   34  C   UNL     1      -7.305   9.121  65.454  1.00  0.00    -0.089 A  
HETATM   35  F   UNL     1      -8.871  10.553  63.331  1.00  0.00    -0.160 F  
HETATM   36  F   UNL     1      -9.327   8.647  62.392  1.00  0.00    -0.040 F  
HETATM   37  F   UNL     1      -6.756   9.402  68.864  1.00  0.00    -0.049 F  
HETATM   38  C   UNL     1      -6.132   9.051  67.705  1.00  0.00    -0.051 C  
HETATM   39  C   UNL     1      -7.090   8.483  66.684  1.00  0.00    -0.077 A  
HETATM   40  F   UNL     1      -7.275   9.362  62.460  1.00  0.00    -0.103 F  
HETATM   41  C   UNL     1      -7.782   7.291  66.966  1.00  0.00    -0.111 A  
ENDBRANCH  25  28
ENDBRANCH   4  25
TORSDOF 5
ENDMDL
MODEL      285
REMARK 921   NORMALIZED FREE ENERGY PREDICTED BY IDOCK:   12.26 KCAL/MOL
REMARK 922        TOTAL FREE ENERGY PREDICTED BY IDOCK:   14.21 KCAL/MOL
REMARK 923 INTER-LIGAND FREE ENERGY PREDICTED BY IDOCK:    4.16 KCAL/MOL
REMARK 924 INTRA-LIGAND FREE ENERGY PREDICTED BY IDOCK:   10.05 KCAL/MOL
REMARK 927      BINDING AFFINITY PREDICTED BY RF-SCORE:    0.00 PKD
ROOT
HETATM    1  C   UNL     1      -6.687  10.325  69.402  1.00  0.00    -0.063 C  
HETATM    2  N   UNL     1      -7.758  10.416  68.396  1.00  0.00    -0.095 N  
HETATM    3  O   UNL     1      -8.553   8.440  69.155  1.00  0.00    -0.131 OA 
HETATM    4  C   UNL     1      -8.767   9.458  68.473  1.00  0.00    -0.128 C  
ENDROOT
BRANCH   2   5
HETATM    5  C   UNL     1      -7.871  11.684  67.792  1.00  0.00    -0.129 A  
HETATM    6  C   UNL     1      -7.911  13.313  66.066  1.00  0.00     2.354 A  
HETATM    7  C   UNL     1      -8.125  12.760  68.658  1.00  0.00    -0.007 A  
HETATM    8  C   UNL     1      -7.732  11.943  66.416  1.00  0.00     0.198 A  
HETATM    9  C   UNL     1      -8.293  14.315  66.972  1.00  0.00    -0.131 A  
HETATM   10  N   UNL     1      -8.353  14.031  68.279  1.00  0.00    -0.156 NA 
BRANCH   9  11
HETATM   11  N   UNL     1      -8.647  15.584  66.562  1.00  0.00    -0.289 NA 
HETATM   12  C   UNL     1      -8.071  16.765  67.230  1.00  0.00    -0.177 C  
HETATM   13  C   UNL     1     -10.777  16.837  66.219  1.00  0.00    -0.106 C  
HETATM   14  C   UNL     1      -9.153  17.763  67.715  1.00  0.00    -0.249 C  
HETATM   15  N   UNL     1     -10.212  18.098  66.737  1.00  0.00    -0.354 NA 
HETATM   16  C   UNL     1      -9.706  18.944  65.658  1.00  0.00     0.453 C  
HETATM   17  C   UNL     1      -9.749  15.841  65.628  1.00  0.00    -0.297 C  
ENDBRANCH   9  11
BRANCH   8  18
HETATM   18  C   UNL     1      -7.550  10.942  65.281  1.00  0.00     0.185 A  
HETATM   19  C   UNL     1      -5.900   9.932  63.702  1.00  0.00    -0.117 A  
HETATM   20  C   UNL     1      -6.876   9.141  63.132  1.00  0.00    -0.089 A  
HETATM   21  C   UNL     1      -6.240  10.822  64.728  1.00  0.00     0.147 A  
HETATM   22  C   UNL     1      -8.172   9.232  63.615  1.00  0.00    -0.166 A  
HETATM   23  C   UNL     1      -8.519  10.087  64.697  1.00  0.00    -0.182 A  
HETATM   24  C   UNL     1      -9.959   9.988  65.106  1.00  0.00    -0.350 C  
ENDBRANCH   8  18
ENDBRANCH   2   5
BRANCH   4  25
HETATM   25  C   UNL     1     -10.199   9.599  67.814  1.00  0.00    -0.253 C  
HETATM   26  C   UNL     1     -11.062   8.611  68.643  1.00  0.00     0.259 C  
HETATM   27  C   UNL     1     -10.434   9.248  66.341  1.00  0.00    -0.157 C  
BRANCH  25  28
HETATM   28  C   UNL     1     -10.692  11.066  67.959  1.00  0.00    -0.260 A  
HETATM   29  C   UNL     1     -11.933  12.980  67.045  1.00  0.00    -0.409 A  
HETATM   30  C   UNL     1     -11.468  11.659  66.946  1.00  0.00    -0.320 A  
HETATM   31  F   UNL     1     -11.050  15.209  70.476  1.00  0.00    -0.266 F  
HETATM   32  C   UNL     1     -12.717  13.608  65.917  1.00  0.00    -0.372 C  
HETATM   33  F   UNL     1      -9.266  14.001  70.761  1.00  0.00     2.391 F  
HETATM   34  C   UNL     1     -11.645  13.717  68.202  1.00  0.00    -0.367 A  
HETATM   35  F   UNL     1     -13.954  14.021  66.308  1.00  0.00     1.548 F  
HETATM   36  F   UNL     1     -12.922  12.770  64.862  1.00  0.00    -0.535 F  
HETATM   37  F   UNL     1     -11.159  13.360  71.615  1.00  0.00     1.730 F  
HETATM   38  C   UNL     1     -10.601  13.924  70.508  1.00  0.00     1.528 C  
HETATM   39  C   UNL     1     -10.907  13.147  69.249  1.00  0.00    -0.055 A  
HETATM   40  F   UNL     1     -12.100  14.708  65.404  1.00  0.00    -0.360 F  
HETATM   41  C   UNL     1     -10.443  11.824  69.117  1.00  0.00    -0.060 A  
ENDBRANCH  25  28
ENDBRANCH   4  25
TORSDOF 5
ENDMDL
MODEL      286
REMARK 921   NORMALIZED FREE ENERGY PREDICTED BY IDOCK:   13.80 KCAL/MOL
REMARK 922        TOTAL FREE ENERGY PREDICTED BY IDOCK:   16.19 KCAL/MOL
REMARK 923 INTER-LIGAND FREE ENERGY PREDICTED BY IDOCK:    7.61 KCAL/MOL
REMARK 924 INTRA-LIGAND FREE ENERGY PREDICTED BY IDOCK:    8.58 KCAL/MOL
REMARK 927      BINDING AFFINITY PREDICTED BY RF-SCORE:    0.00 PKD
ROOT
HETATM    1  C   UNL     1     -13.175  10.217  69.980  1.00  0.00     0.465 C  
HETATM    2  N   UNL     1     -11.707  10.223  70.090  1.00  0.00    -0.278 N  
HETATM    3  O   UNL     1     -11.933   9.777  72.295  1.00  0.00    -0.048 OA 
HETATM    4  C   UNL     1     -11.173   9.817  71.312  1.00  0.00    -0.347 C  
ENDROOT
BRANCH   2   5
HETATM    5  C   UNL     1     -11.038  10.196  68.850  1.00  0.00    -0.207 A  
HETATM    6  C   UNL     1     -10.158  10.998  66.797  1.00  0.00    -0.260 A  
HETATM    7  C   UNL     1     -10.497   8.958  68.467  1.00  0.00    -0.182 A  
HETATM    8  C   UNL     1     -10.894  11.293  67.981  1.00  0.00    -0.266 A  
HETATM    9  C   UNL     1      -9.534   9.768  66.542  1.00  0.00    -0.177 A  
HETATM   10  N   UNL     1      -9.751   8.737  67.370  1.00  0.00    -0.164 NA 
BRANCH   9  11
HETATM   11  N   UNL     1      -8.668   9.584  65.483  1.00  0.00    -0.145 NA 
HETATM   12  C   UNL     1      -7.600  10.566  65.222  1.00  0.00    -0.074 C  
HETATM   13  C   UNL     1      -8.884   9.189  63.029  1.00  0.00    -0.096 C  
HETATM   14  C   UNL     1      -7.605  11.077  63.759  1.00  0.00     0.667 C  
HETATM   15  N   UNL     1      -7.722  10.040  62.709  1.00  0.00    -0.130 NA 
HETATM   16  C   UNL     1      -6.496   9.254  62.584  1.00  0.00    -0.093 C  
HETATM   17  C   UNL     1      -8.882   8.567  64.447  1.00  0.00     0.207 C  
ENDBRANCH   9  11
BRANCH   8  18
HETATM   18  C   UNL     1     -11.306  12.742  68.215  1.00  0.00    -0.335 A  
HETATM   19  C   UNL     1     -10.817  15.119  67.623  1.00  0.00    -0.295 A  
HETATM   20  C   UNL     1     -11.831  15.569  68.443  1.00  0.00    -0.241 A  
HETATM   21  C   UNL     1     -10.552  13.746  67.537  1.00  0.00    -0.246 A  
HETATM   22  C   UNL     1     -12.583  14.639  69.144  1.00  0.00     0.146 A  
HETATM   23  C   UNL     1     -12.363  13.239  69.019  1.00  0.00     0.020 A  
HETATM   24  C   UNL     1     -13.327  12.405  69.810  1.00  0.00     2.162 C  
ENDBRANCH   8  18
ENDBRANCH   2   5
BRANCH   4  25
HETATM   25  C   UNL     1      -9.683   9.331  71.530  1.00  0.00    -0.210 C  
HETATM   26  C   UNL     1      -9.599   9.142  73.068  1.00  0.00     1.758 C  
HETATM   27  C   UNL     1      -8.494  10.214  71.137  1.00  0.00     1.991 C  
BRANCH  25  28
HETATM   28  C   UNL     1      -9.458   7.996  70.766  1.00  0.00    -0.173 A  
HETATM   29  C   UNL     1     -10.247   6.328  69.143  1.00  0.00    -0.229 A  
HETATM   30  C   UNL     1     -10.419   7.527  69.852  1.00  0.00    -0.232 A  
HETATM   31  F   UNL     1      -6.744   4.104  69.705  1.00  0.00    -0.031 F  
HETATM   32  C   UNL     1     -11.321   5.822  68.210  1.00  0.00     0.631 C  
HETATM   33  F   UNL     1      -6.567   4.950  71.700  1.00  0.00    -0.029 F  
HETATM   34  C   UNL     1      -9.066   5.595  69.326  1.00  0.00    -0.128 A  
HETATM   35  F   UNL     1     -10.875   5.675  66.932  1.00  0.00    -0.293 F  
HETATM   36  F   UNL     1     -12.407   6.643  68.132  1.00  0.00     1.182 F  
HETATM   37  F   UNL     1      -5.689   5.981  70.001  1.00  0.00    -0.011 F  
HETATM   38  C   UNL     1      -6.785   5.277  70.397  1.00  0.00    -0.043 C  
HETATM   39  C   UNL     1      -8.068   6.049  70.200  1.00  0.00    -0.114 A  
HETATM   40  F   UNL     1     -11.801   4.604  68.582  1.00  0.00     3.576 F  
HETATM   41  C   UNL     1      -8.274   7.249  70.907  1.00  0.00    -0.115 A  
ENDBRANCH  25  28
ENDBRANCH   4  25
TORSDOF 5
ENDMDL
MODEL      287
REMARK 921   NORMALIZED FREE ENERGY PREDICTED BY IDOCK:   14.11 KCAL/MOL
REMARK 922        TOTAL FREE ENERGY PREDICTED BY IDOCK:   16.60 KCAL/MOL
REMARK 923 INTER-LIGAND FREE ENERGY PREDICTED BY IDOCK:   16.48 KCAL/MOL
REMARK 924 INTRA-LIGAND FREE ENERGY PREDICTED BY IDOCK:    0.12 KCAL/MOL
REMARK 927      BINDING AFFINITY PREDICTED BY RF-SCORE:    0.00 PKD
ROOT
HETATM    1  C   UNL     1      -7.744   8.346  67.343  1.00  0.00    -0.098 C  
HETATM    2  N   UNL     1      -9.122   8.706  67.715  1.00  0.00    -0.135 N  
HETATM    3  O   UNL     1      -9.698   6.539  67.424  1.00  0.00    -0.121 OA 
HETATM    4  C   UNL     1     -10.016   7.650  67.883  1.00  0.00    -0.169 C  
ENDROOT
BRANCH   2   5
HETATM    5  C   UNL     1      -9.247   9.989  68.283  1.00  0.00    -0.129 A  
HETATM    6  C   UNL     1      -8.840  11.798  69.764  1.00  0.00     1.842 A  
HETATM    7  C   UNL     1     -10.177  10.846  67.673  1.00  0.00    -0.183 A  
HETATM    8  C   UNL     1      -8.536  10.453  69.405  1.00  0.00    -0.143 A  
HETATM    9  C   UNL     1      -9.687  12.640  69.026  1.00  0.00     0.344 A  
HETATM   10  N   UNL     1     -10.388  12.133  68.003  1.00  0.00    -0.199 NA 
BRANCH   9  11
HETATM   11  N   UNL     1      -9.802  13.989  69.293  1.00  0.00     0.134 NA 
HETATM   12  C   UNL     1     -10.994  14.506  69.989  1.00  0.00    -0.059 C  
HETATM   13  C   UNL     1      -9.674  16.102  67.973  1.00  0.00    -0.229 C  
HETATM   14  C   UNL     1     -11.669  15.675  69.227  1.00  0.00    -0.375 C  
HETATM   15  N   UNL     1     -10.764  16.739  68.737  1.00  0.00    -0.336 NA 
HETATM   16  C   UNL     1     -10.247  17.558  69.831  1.00  0.00     0.500 C  
HETATM   17  C   UNL     1      -8.897  14.993  68.723  1.00  0.00    -0.192 C  
ENDBRANCH   9  11
BRANCH   8  18
HETATM   18  C   UNL     1      -7.420   9.752  70.170  1.00  0.00    -0.170 A  
HETATM   19  C   UNL     1      -5.157   8.715  69.974  1.00  0.00    -0.029 A  
HETATM   20  C   UNL     1      -5.142   8.408  71.318  1.00  0.00    -0.029 A  
HETATM   21  C   UNL     1      -6.277   9.346  69.419  1.00  0.00    -0.040 A  
HETATM   22  C   UNL     1      -6.236   8.759  72.094  1.00  0.00    -0.069 A  
HETATM   23  C   UNL     1      -7.354   9.453  71.555  1.00  0.00     0.266 A  
HETATM   24  C   UNL     1      -8.399   9.795  72.575  1.00  0.00     3.568 C  
ENDBRANCH   8  18
ENDBRANCH   2   5
BRANCH   4  25
HETATM   25  C   UNL     1     -11.380   7.740  68.679  1.00  0.00     0.630 C  
HETATM   26  C   UNL     1     -12.382   7.022  67.737  1.00  0.00     4.677 C  
HETATM   27  C   UNL     1     -12.009   9.093  69.028  1.00  0.00     1.475 C  
BRANCH  25  28
HETATM   28  C   UNL     1     -11.233   7.004  70.041  1.00  0.00    -0.310 A  
HETATM   29  C   UNL     1      -9.796   6.184  71.857  1.00  0.00    -0.176 A  
HETATM   30  C   UNL     1      -9.965   6.839  70.627  1.00  0.00    -0.201 A  
HETATM   31  F   UNL     1     -13.161   4.735  73.884  1.00  0.00     2.018 F  
HETATM   32  C   UNL     1      -8.417   5.971  72.435  1.00  0.00    -0.116 C  
HETATM   33  F   UNL     1     -14.188   4.550  71.977  1.00  0.00     2.685 F  
HETATM   34  C   UNL     1     -10.928   5.712  72.537  1.00  0.00    -0.313 A  
HETATM   35  F   UNL     1      -8.272   6.542  73.662  1.00  0.00    -0.112 F  
HETATM   36  F   UNL     1      -7.417   6.487  71.665  1.00  0.00    -0.083 F  
HETATM   37  F   UNL     1     -14.277   6.419  73.082  1.00  0.00     0.904 F  
HETATM   38  C   UNL     1     -13.441   5.403  72.730  1.00  0.00     1.614 C  
HETATM   39  C   UNL     1     -12.211   5.893  72.002  1.00  0.00     0.031 A  
HETATM   40  F   UNL     1      -8.118   4.653  72.598  1.00  0.00    -0.092 F  
HETATM   41  C   UNL     1     -12.350   6.543  70.762  1.00  0.00    -0.099 A  
ENDBRANCH  25  28
ENDBRANCH   4  25
TORSDOF 5
ENDMDL
MODEL      288
REMARK 921   NORMALIZED FREE ENERGY PREDICTED BY IDOCK:   14.65 KCAL/MOL
REMARK 922        TOTAL FREE ENERGY PREDICTED BY IDOCK:   17.29 KCAL/MOL
REMARK 923 INTER-LIGAND FREE ENERGY PREDICTED BY IDOCK:    9.80 KCAL/MOL
REMARK 924 INTRA-LIGAND FREE ENERGY PREDICTED BY IDOCK:    7.49 KCAL/MOL
REMARK 927      BINDING AFFINITY PREDICTED BY RF-SCORE:    0.00 PKD
ROOT
HETATM    1  C   UNL     1      -5.758  13.456  65.690  1.00  0.00     8.006 C  
HETATM    2  N   UNL     1      -6.311  12.867  66.920  1.00  0.00     0.420 N  
HETATM    3  O   UNL     1      -6.151  14.903  67.892  1.00  0.00    -0.139 OA 
HETATM    4  C   UNL     1      -6.625  13.755  67.948  1.00  0.00    -0.160 C  
ENDROOT
BRANCH   2   5
HETATM    5  C   UNL     1      -6.863  11.583  66.745  1.00  0.00    -0.114 A  
HETATM    6  C   UNL     1      -8.438   9.923  66.115  1.00  0.00    -0.130 A  
HETATM    7  C   UNL     1      -6.073  10.506  67.179  1.00  0.00    -0.055 A  
HETATM    8  C   UNL     1      -8.130  11.312  66.194  1.00  0.00    -0.065 A  
HETATM    9  C   UNL     1      -7.543   8.896  66.449  1.00  0.00    -0.092 A  
HETATM   10  N   UNL     1      -6.375   9.205  67.026  1.00  0.00    -0.062 NA 
BRANCH   9  11
HETATM   11  N   UNL     1      -7.806   7.569  66.174  1.00  0.00    -0.093 NA 
HETATM   12  C   UNL     1      -6.698   6.602  66.072  1.00  0.00    -0.048 C  
HETATM   13  C   UNL     1      -9.051   6.307  64.418  1.00  0.00     0.882 C  
HETATM   14  C   UNL     1      -6.736   5.790  64.752  1.00  0.00    -0.047 C  
HETATM   15  N   UNL     1      -8.051   5.222  64.377  1.00  0.00    -0.115 NA 
HETATM   16  C   UNL     1      -8.429   4.108  65.244  1.00  0.00    -0.114 C  
HETATM   17  C   UNL     1      -9.127   7.090  65.752  1.00  0.00     0.058 C  
ENDBRANCH   9  11
BRANCH   8  18
HETATM   18  C   UNL     1      -9.117  12.293  65.573  1.00  0.00     0.269 A  
HETATM   19  C   UNL     1     -11.145  12.501  64.131  1.00  0.00    -0.426 A  
HETATM   20  C   UNL     1     -11.138  13.874  64.257  1.00  0.00    -0.250 A  
HETATM   21  C   UNL     1     -10.146  11.742  64.752  1.00  0.00    -0.302 A  
HETATM   22  C   UNL     1     -10.148  14.467  65.026  1.00  0.00    -0.325 A  
HETATM   23  C   UNL     1      -9.163  13.704  65.711  1.00  0.00     0.284 A  
HETATM   24  C   UNL     1      -8.225  14.533  66.537  1.00  0.00     0.389 C  
ENDBRANCH   8  18
ENDBRANCH   2   5
BRANCH   4  25
HETATM   25  C   UNL     1      -7.602  13.435  69.151  1.00  0.00     0.200 C  
HETATM   26  C   UNL     1      -6.842  14.004  70.378  1.00  0.00     0.327 C  
HETATM   27  C   UNL     1      -7.980  11.993  69.506  1.00  0.00     0.862 C  
BRANCH  25  28
HETATM   28  C   UNL     1      -8.959  14.158  68.921  1.00  0.00     0.019 A  
HETATM   29  C   UNL     1     -11.410  14.162  69.099  1.00  0.00    -0.318 A  
HETATM   30  C   UNL     1     -10.167  13.538  69.289  1.00  0.00     0.255 A  
HETATM   31  F   UNL     1     -11.536  18.009  67.451  1.00  0.00     0.142 F  
HETATM   32  C   UNL     1     -12.694  13.450  69.453  1.00  0.00     0.555 C  
HETATM   33  F   UNL     1      -9.658  17.600  66.437  1.00  0.00    -0.260 F  
HETATM   34  C   UNL     1     -11.445  15.456  68.559  1.00  0.00    -0.360 A  
HETATM   35  F   UNL     1     -13.428  14.127  70.379  1.00  0.00    -0.221 F  
HETATM   36  F   UNL     1     -12.501  12.204  69.971  1.00  0.00    -0.274 F  
HETATM   37  F   UNL     1      -9.650  18.418  68.450  1.00  0.00    -0.289 F  
HETATM   38  C   UNL     1     -10.280  17.519  67.645  1.00  0.00    -0.343 C  
HETATM   39  C   UNL     1     -10.259  16.120  68.215  1.00  0.00    -0.248 A  
HETATM   40  F   UNL     1     -13.510  13.283  68.377  1.00  0.00     2.173 F  
HETATM   41  C   UNL     1      -9.028  15.465  68.405  1.00  0.00    -0.189 A  
ENDBRANCH  25  28
ENDBRANCH   4  25
TORSDOF 5
ENDMDL
MODEL      289
REMARK 921   NORMALIZED FREE ENERGY PREDICTED BY IDOCK:   14.80 KCAL/MOL
REMARK 922        TOTAL FREE ENERGY PREDICTED BY IDOCK:   17.48 KCAL/MOL
REMARK 923 INTER-LIGAND FREE ENERGY PREDICTED BY IDOCK:    0.51 KCAL/MOL
REMARK 924 INTRA-LIGAND FREE ENERGY PREDICTED BY IDOCK:   16.97 KCAL/MOL
REMARK 927      BINDING AFFINITY PREDICTED BY RF-SCORE:    0.00 PKD
ROOT
HETATM    1  C   UNL     1      -6.265   9.564  71.521  1.00  0.00     0.035 C  
HETATM    2  N   UNL     1      -7.209   8.919  70.595  1.00  0.00    -0.065 N  
HETATM    3  O   UNL     1      -7.579   7.340  72.171  1.00  0.00    -0.086 OA 
HETATM    4  C   UNL     1      -7.958   7.860  71.107  1.00  0.00    -0.091 C  
ENDROOT
BRANCH   2   5
HETATM    5  C   UNL     1      -7.561   9.714  69.486  1.00  0.00    -0.104 A  
HETATM    6  C   UNL     1      -7.893  10.313  67.214  1.00  0.00    -0.103 A  
HETATM    7  C   UNL     1      -8.037  11.003  69.777  1.00  0.00     0.532 A  
HETATM    8  C   UNL     1      -7.453   9.323  68.139  1.00  0.00    -0.083 A  
HETATM    9  C   UNL     1      -8.481  11.533  67.584  1.00  0.00    -0.135 A  
HETATM   10  N   UNL     1      -8.505  11.885  68.876  1.00  0.00     0.051 NA 
BRANCH   9  11
HETATM   11  N   UNL     1      -9.072  12.376  66.665  1.00  0.00    -0.215 NA 
HETATM   12  C   UNL     1     -10.162  13.277  67.083  1.00  0.00    -0.246 C  
HETATM   13  C   UNL     1     -10.152  12.131  64.430  1.00  0.00    -0.274 C  
HETATM   14  C   UNL     1     -11.421  13.142  66.190  1.00  0.00    -0.330 C  
HETATM   15  N   UNL     1     -11.185  13.142  64.729  1.00  0.00    -0.311 NA 
HETATM   16  C   UNL     1     -10.801  14.464  64.240  1.00  0.00     0.098 C  
HETATM   17  C   UNL     1      -8.830  12.278  65.222  1.00  0.00     0.773 C  
ENDBRANCH   9  11
BRANCH   8  18
HETATM   18  C   UNL     1      -7.058   7.960  67.581  1.00  0.00    -0.083 A  
HETATM   19  C   UNL     1      -5.136   6.519  66.898  1.00  0.00    -0.008 A  
HETATM   20  C   UNL     1      -5.986   5.492  66.545  1.00  0.00    -0.019 A  
HETATM   21  C   UNL     1      -5.666   7.724  67.378  1.00  0.00    -0.037 A  
HETATM   22  C   UNL     1      -7.351   5.674  66.701  1.00  0.00    -0.083 A  
HETATM   23  C   UNL     1      -7.899   6.870  67.242  1.00  0.00    -0.110 A  
HETATM   24  C   UNL     1      -9.391   6.838  67.387  1.00  0.00    -0.140 C  
ENDBRANCH   8  18
ENDBRANCH   2   5
BRANCH   4  25
HETATM   25  C   UNL     1      -9.300   7.313  70.474  1.00  0.00    -0.158 C  
HETATM   26  C   UNL     1     -10.091   6.812  71.711  1.00  0.00    -0.195 C  
HETATM   27  C   UNL     1      -9.291   6.155  69.470  1.00  0.00    -0.147 C  
BRANCH  25  28
HETATM   28  C   UNL     1     -10.036   8.470  69.742  1.00  0.00    -0.191 A  
HETATM   29  C   UNL     1     -10.742   9.534  67.643  1.00  0.00    -0.314 A  
HETATM   30  C   UNL     1     -10.084   8.507  68.336  1.00  0.00    -0.221 A  
HETATM   31  F   UNL     1     -12.681  12.548  69.807  1.00  0.00    -0.054 F  
HETATM   32  C   UNL     1     -10.729   9.578  66.133  1.00  0.00     0.338 C  
HETATM   33  F   UNL     1     -11.300  12.210  71.451  1.00  0.00     1.106 F  
HETATM   34  C   UNL     1     -11.401  10.534  68.373  1.00  0.00    -0.328 A  
HETATM   35  F   UNL     1     -11.981   9.544  65.600  1.00  0.00     3.520 F  
HETATM   36  F   UNL     1     -10.055   8.540  65.563  1.00  0.00    -0.015 F  
HETATM   37  F   UNL     1     -13.140  11.060  71.324  1.00  0.00    -0.435 F  
HETATM   38  C   UNL     1     -12.124  11.572  70.576  1.00  0.00    -0.378 C  
HETATM   39  C   UNL     1     -11.407  10.510  69.775  1.00  0.00    -0.367 A  
HETATM   40  F   UNL     1     -10.147  10.710  65.650  1.00  0.00    -0.274 F  
HETATM   41  C   UNL     1     -10.729   9.473  70.444  1.00  0.00    -0.341 A  
ENDBRANCH  25  28
ENDBRANCH   4  25
TORSDOF 5
ENDMDL
MODEL      290
REMARK 921   NORMALIZED FREE ENERGY PREDICTED BY IDOCK:   14.86 KCAL/MOL
REMARK 922        TOTAL FREE ENERGY PREDICTED BY IDOCK:   17.57 KCAL/MOL
REMARK 923 INTER-LIGAND FREE ENERGY PREDICTED BY IDOCK:   18.20 KCAL/MOL
REMARK 924 INTRA-LIGAND FREE ENERGY PREDICTED BY IDOCK:   -0.63 KCAL/MOL
REMARK 927      BINDING AFFINITY PREDICTED BY RF-SCORE:    0.00 PKD
ROOT
HETATM    1  C   UNL     1     -13.117  10.143  68.611  1.00  0.00     4.667 C  
HETATM    2  N   UNL     1     -11.897  10.382  69.398  1.00  0.00    -0.172 N  
HETATM    3  O   UNL     1     -11.659   8.142  69.594  1.00  0.00     0.225 OA 
HETATM    4  C   UNL     1     -11.131   9.261  69.715  1.00  0.00    -0.150 C  
ENDROOT
BRANCH   2   5
HETATM    5  C   UNL     1     -11.427  11.709  69.341  1.00  0.00    -0.307 A  
HETATM    6  C   UNL     1     -10.426  13.661  68.435  1.00  0.00    -0.251 A  
HETATM    7  C   UNL     1     -11.611  12.480  70.500  1.00  0.00     0.342 A  
HETATM    8  C   UNL     1     -10.785  12.296  68.235  1.00  0.00    -0.244 A  
HETATM    9  C   UNL     1     -10.759  14.406  69.576  1.00  0.00    -0.107 A  
HETATM   10  N   UNL     1     -11.316  13.786  70.625  1.00  0.00     0.219 NA 
BRANCH   9  11
HETATM   11  N   UNL     1     -10.568  15.771  69.649  1.00  0.00    -0.270 NA 
HETATM   12  C   UNL     1     -10.104  16.386  70.905  1.00  0.00     1.777 C  
HETATM   13  C   UNL     1     -11.927  17.807  69.170  1.00  0.00     4.036 C  
HETATM   14  C   UNL     1     -11.014  17.552  71.369  1.00  0.00     2.005 C  
HETATM   15  N   UNL     1     -11.384  18.540  70.330  1.00  0.00     3.798 NA 
HETATM   16  C   UNL     1     -10.250  19.381  69.952  1.00  0.00     0.588 C  
HETATM   17  C   UNL     1     -11.014  16.694  68.600  1.00  0.00    -0.328 C  
ENDBRANCH   9  11
BRANCH   8  18
HETATM   18  C   UNL     1     -10.558  11.701  66.850  1.00  0.00    -0.276 A  
HETATM   19  C   UNL     1      -8.877  10.633  65.344  1.00  0.00    -0.204 A  
HETATM   20  C   UNL     1      -9.804  10.520  64.330  1.00  0.00    -0.402 A  
HETATM   21  C   UNL     1      -9.244  11.229  66.557  1.00  0.00    -0.200 A  
HETATM   22  C   UNL     1     -11.092  10.982  64.551  1.00  0.00    -0.034 A  
HETATM   23  C   UNL     1     -11.494  11.535  65.798  1.00  0.00    -0.076 A  
HETATM   24  C   UNL     1     -12.945  11.913  65.850  1.00  0.00     3.224 C  
ENDBRANCH   8  18
ENDBRANCH   2   5
BRANCH   4  25
HETATM   25  C   UNL     1      -9.611   9.299  70.151  1.00  0.00    -0.254 C  
HETATM   26  C   UNL     1      -9.637  10.173  71.433  1.00  0.00     2.269 C  
HETATM   27  C   UNL     1      -8.538   9.903  69.238  1.00  0.00    -0.169 C  
BRANCH  25  28
HETATM   28  C   UNL     1      -9.120   7.853  70.442  1.00  0.00    -0.154 A  
HETATM   29  C   UNL     1      -8.253   5.707  69.615  1.00  0.00    -0.107 A  
HETATM   30  C   UNL     1      -8.705   7.017  69.389  1.00  0.00    -0.133 A  
HETATM   31  F   UNL     1      -8.061   4.258  73.538  1.00  0.00    -0.086 F  
HETATM   32  C   UNL     1      -7.868   4.813  68.460  1.00  0.00    -0.081 C  
HETATM   33  F   UNL     1      -9.650   5.636  74.089  1.00  0.00    -0.133 F  
HETATM   34  C   UNL     1      -8.179   5.233  70.932  1.00  0.00    -0.112 A  
HETATM   35  F   UNL     1      -6.577   4.387  68.538  1.00  0.00    -0.040 F  
HETATM   36  F   UNL     1      -7.988   5.414  67.242  1.00  0.00    -0.098 F  
HETATM   37  F   UNL     1      -7.576   6.277  74.181  1.00  0.00    -0.090 F  
HETATM   38  C   UNL     1      -8.458   5.557  73.435  1.00  0.00    -0.116 C  
HETATM   39  C   UNL     1      -8.547   6.050  72.010  1.00  0.00    -0.136 A  
HETATM   40  F   UNL     1      -8.631   3.687  68.397  1.00  0.00    -0.093 F  
HETATM   41  C   UNL     1      -9.008   7.354  71.752  1.00  0.00    -0.135 A  
ENDBRANCH  25  28
ENDBRANCH   4  25
TORSDOF 5
ENDMDL
MODEL      291
REMARK 921   NORMALIZED FREE ENERGY PREDICTED BY IDOCK:   14.89 KCAL/MOL
REMARK 922        TOTAL FREE ENERGY PREDICTED BY IDOCK:   17.60 KCAL/MOL
REMARK 923 INTER-LIGAND FREE ENERGY PREDICTED BY IDOCK:   15.29 KCAL/MOL
REMARK 924 INTRA-LIGAND FREE ENERGY PREDICTED BY IDOCK:    2.32 KCAL/MOL
REMARK 927      BINDING AFFINITY PREDICTED BY RF-SCORE:    0.00 PKD
ROOT
HETATM    1  C   UNL     1     -10.527  16.918  64.931  1.00  0.00     0.370 C  
HETATM    2  N   UNL     1      -9.332  17.050  65.779  1.00  0.00    -0.038 N  
HETATM    3  O   UNL     1      -9.664  19.286  65.792  1.00  0.00    -0.421 OA 
HETATM    4  C   UNL     1      -9.077  18.317  66.302  1.00  0.00    -0.190 C  
ENDROOT
BRANCH   2   5
HETATM    5  C   UNL     1      -8.870  15.831  66.314  1.00  0.00    -0.343 A  
HETATM    6  C   UNL     1      -8.904  13.545  66.953  1.00  0.00    -0.194 A  
HETATM    7  C   UNL     1      -7.566  15.839  66.835  1.00  0.00    -0.200 A  
HETATM    8  C   UNL     1      -9.615  14.638  66.378  1.00  0.00    -0.323 A  
HETATM    9  C   UNL     1      -7.554  13.594  67.333  1.00  0.00    -0.130 A  
HETATM   10  N   UNL     1      -6.908  14.767  67.310  1.00  0.00    -0.256 NA 
BRANCH   9  11
HETATM   11  N   UNL     1      -6.849  12.466  67.700  1.00  0.00    -0.116 NA 
HETATM   12  C   UNL     1      -7.064  11.195  66.986  1.00  0.00    -0.124 C  
HETATM   13  C   UNL     1      -6.455  11.196  69.811  1.00  0.00    -0.137 C  
HETATM   14  C   UNL     1      -7.384  10.020  67.944  1.00  0.00    -0.088 C  
HETATM   15  N   UNL     1      -6.505   9.889  69.128  1.00  0.00    -0.047 NA 
HETATM   16  C   UNL     1      -5.170   9.420  68.764  1.00  0.00    -0.037 C  
HETATM   17  C   UNL     1      -6.041  12.395  68.923  1.00  0.00    -0.074 C  
ENDBRANCH   9  11
BRANCH   8  18
HETATM   18  C   UNL     1     -10.998  14.358  65.802  1.00  0.00    -0.314 A  
HETATM   19  C   UNL     1     -13.444  14.769  66.088  1.00  0.00     2.313 A  
HETATM   20  C   UNL     1     -13.738  14.014  64.971  1.00  0.00     1.711 A  
HETATM   21  C   UNL     1     -12.113  14.911  66.499  1.00  0.00     0.005 A  
HETATM   22  C   UNL     1     -12.695  13.434  64.267  1.00  0.00    -0.112 A  
HETATM   23  C   UNL     1     -11.335  13.619  64.639  1.00  0.00    -0.380 A  
HETATM   24  C   UNL     1     -10.360  12.961  63.708  1.00  0.00    -0.143 C  
ENDBRANCH   8  18
ENDBRANCH   2   5
BRANCH   4  25
HETATM   25  C   UNL     1      -8.146  18.609  67.548  1.00  0.00    -0.262 C  
HETATM   26  C   UNL     1      -7.731  20.088  67.333  1.00  0.00    -0.330 C  
HETATM   27  C   UNL     1      -6.849  17.824  67.773  1.00  0.00    -0.187 C  
BRANCH  25  28
HETATM   28  C   UNL     1      -8.961  18.417  68.858  1.00  0.00    -0.171 A  
HETATM   29  C   UNL     1      -9.573  19.207  71.103  1.00  0.00     3.231 A  
HETATM   30  C   UNL     1      -8.850  19.347  69.908  1.00  0.00     0.833 A  
HETATM   31  F   UNL     1     -12.191  15.970  71.543  1.00  0.00    -0.411 F  
HETATM   32  C   UNL     1      -9.391  20.190  72.235  1.00  0.00     2.829 C  
HETATM   33  F   UNL     1     -10.976  14.839  70.140  1.00  0.00    -0.256 F  
HETATM   34  C   UNL     1     -10.458  18.128  71.239  1.00  0.00     3.055 A  
HETATM   35  F   UNL     1     -10.552  20.814  72.575  1.00  0.00     3.822 F  
HETATM   36  F   UNL     1      -8.502  21.186  71.955  1.00  0.00     1.042 F  
HETATM   37  F   UNL     1     -12.590  16.098  69.410  1.00  0.00    -0.152 F  
HETATM   38  C   UNL     1     -11.584  16.043  70.326  1.00  0.00    -0.324 C  
HETATM   39  C   UNL     1     -10.623  17.202  70.199  1.00  0.00     0.420 A  
HETATM   40  F   UNL     1      -8.937  19.596  73.373  1.00  0.00     1.643 F  
HETATM   41  C   UNL     1      -9.877  17.361  69.017  1.00  0.00    -0.230 A  
ENDBRANCH  25  28
ENDBRANCH   4  25
TORSDOF 5
ENDMDL
MODEL      292
REMARK 921   NORMALIZED FREE ENERGY PREDICTED BY IDOCK:   14.97 KCAL/MOL
REMARK 922        TOTAL FREE ENERGY PREDICTED BY IDOCK:   17.71 KCAL/MOL
REMARK 923 INTER-LIGAND FREE ENERGY PREDICTED BY IDOCK:   15.46 KCAL/MOL
REMARK 924 INTRA-LIGAND FREE ENERGY PREDICTED BY IDOCK:    2.25 KCAL/MOL
REMARK 927      BINDING AFFINITY PREDICTED BY RF-SCORE:    0.00 PKD
ROOT
HETATM    1  C   UNL     1     -10.143  14.369  71.129  1.00  0.00     2.793 C  
HETATM    2  N   UNL     1      -9.654  14.533  69.750  1.00  0.00     0.367 N  
HETATM    3  O   UNL     1      -9.708  16.771  70.064  1.00  0.00     0.399 OA 
HETATM    4  C   UNL     1      -9.307  15.826  69.363  1.00  0.00    -0.269 C  
ENDROOT
BRANCH   2   5
HETATM    5  C   UNL     1      -9.178  13.343  69.165  1.00  0.00     0.582 A  
HETATM    6  C   UNL     1      -9.154  11.423  67.769  1.00  0.00    -0.158 A  
HETATM    7  C   UNL     1      -7.918  12.901  69.600  1.00  0.00     1.393 A  
HETATM    8  C   UNL     1      -9.870  12.574  68.211  1.00  0.00    -0.227 A  
HETATM    9  C   UNL     1      -7.840  11.116  68.153  1.00  0.00    -0.118 A  
HETATM   10  N   UNL     1      -7.248  11.843  69.109  1.00  0.00    -0.066 NA 
BRANCH   9  11
HETATM   11  N   UNL     1      -7.113  10.107  67.555  1.00  0.00    -0.086 NA 
HETATM   12  C   UNL     1      -5.696  10.321  67.211  1.00  0.00    -0.045 C  
HETATM   13  C   UNL     1      -7.367   8.654  65.543  1.00  0.00    -0.084 C  
HETATM   14  C   UNL     1      -5.385   9.984  65.730  1.00  0.00    -0.049 C  
HETATM   15  N   UNL     1      -5.926   8.701  65.228  1.00  0.00    -0.048 NA 
HETATM   16  C   UNL     1      -5.215   7.554  65.791  1.00  0.00    -0.025 C  
HETATM   17  C   UNL     1      -7.731   8.884  67.030  1.00  0.00    -0.098 C  
ENDBRANCH   9  11
BRANCH   8  18
HETATM   18  C   UNL     1     -11.192  12.892  67.522  1.00  0.00    -0.329 A  
HETATM   19  C   UNL     1     -13.292  14.237  67.668  1.00  0.00     4.079 A  
HETATM   20  C   UNL     1     -13.756  13.706  66.483  1.00  0.00     4.581 A  
HETATM   21  C   UNL     1     -12.056  13.819  68.179  1.00  0.00    -0.316 A  
HETATM   22  C   UNL     1     -12.968  12.784  65.812  1.00  0.00     0.708 A  
HETATM   23  C   UNL     1     -11.686  12.395  66.289  1.00  0.00    -0.457 A  
HETATM   24  C   UNL     1     -10.970  11.438  65.382  1.00  0.00    -0.249 C  
ENDBRANCH   8  18
ENDBRANCH   2   5
BRANCH   4  25
HETATM   25  C   UNL     1      -8.376  16.182  68.134  1.00  0.00    -0.166 C  
HETATM   26  C   UNL     1      -7.813  14.799  67.711  1.00  0.00    -0.163 C  
HETATM   27  C   UNL     1      -7.167  17.110  68.295  1.00  0.00    -0.204 C  
BRANCH  25  28
HETATM   28  C   UNL     1      -9.231  16.831  67.009  1.00  0.00    -0.238 A  
HETATM   29  C   UNL     1      -9.894  18.830  65.744  1.00  0.00     0.137 A  
HETATM   30  C   UNL     1      -9.140  18.211  66.754  1.00  0.00    -0.287 A  
HETATM   31  F   UNL     1     -12.440  16.502  63.373  1.00  0.00     1.187 F  
HETATM   32  C   UNL     1      -9.818  20.324  65.529  1.00  0.00     0.134 C  
HETATM   33  F   UNL     1     -12.617  15.086  65.013  1.00  0.00    -0.240 F  
HETATM   34  C   UNL     1     -10.735  18.043  64.945  1.00  0.00     1.328 A  
HETATM   35  F   UNL     1      -9.406  20.649  64.273  1.00  0.00     1.296 F  
HETATM   36  F   UNL     1      -8.957  20.953  66.378  1.00  0.00    -0.082 F  
HETATM   37  F   UNL     1     -11.010  14.876  63.566  1.00  0.00     0.831 F  
HETATM   38  C   UNL     1     -11.713  15.795  64.283  1.00  0.00    -0.162 C  
HETATM   39  C   UNL     1     -10.823  16.658  65.145  1.00  0.00    -0.199 A  
HETATM   40  F   UNL     1     -11.022  20.936  65.700  1.00  0.00     0.354 F  
HETATM   41  C   UNL     1     -10.064  16.067  66.173  1.00  0.00    -0.346 A  
ENDBRANCH  25  28
ENDBRANCH   4  25
TORSDOF 5
ENDMDL
MODEL      293
REMARK 921   NORMALIZED FREE ENERGY PREDICTED BY IDOCK:   15.61 KCAL/MOL
REMARK 922        TOTAL FREE ENERGY PREDICTED BY IDOCK:   18.53 KCAL/MOL
REMARK 923 INTER-LIGAND FREE ENERGY PREDICTED BY IDOCK:   12.52 KCAL/MOL
REMARK 924 INTRA-LIGAND FREE ENERGY PREDICTED BY IDOCK:    6.02 KCAL/MOL
REMARK 927      BINDING AFFINITY PREDICTED BY RF-SCORE:    0.00 PKD
ROOT
HETATM    1  C   UNL     1     -10.525  14.828  71.278  1.00  0.00     1.156 C  
HETATM    2  N   UNL     1     -10.434  14.331  69.895  1.00  0.00     0.217 N  
HETATM    3  O   UNL     1     -10.035  16.454  69.226  1.00  0.00    -0.260 OA 
HETATM    4  C   UNL     1     -10.010  15.246  68.933  1.00  0.00    -0.225 C  
ENDROOT
BRANCH   2   5
HETATM    5  C   UNL     1     -10.345  12.929  69.793  1.00  0.00     1.192 A  
HETATM    6  C   UNL     1      -9.340  10.788  69.591  1.00  0.00     0.215 A  
HETATM    7  C   UNL     1     -11.562  12.230  69.814  1.00  0.00    -0.243 A  
HETATM    8  C   UNL     1      -9.150  12.199  69.656  1.00  0.00     1.816 A  
HETATM    9  C   UNL     1     -10.580  10.151  69.750  1.00  0.00    -0.260 A  
HETATM   10  N   UNL     1     -11.695  10.891  69.816  1.00  0.00    -0.307 NA 
BRANCH   9  11
HETATM   11  N   UNL     1     -10.696   8.782  69.877  1.00  0.00    -0.225 NA 
HETATM   12  C   UNL     1     -11.625   8.208  70.867  1.00  0.00    -0.267 C  
HETATM   13  C   UNL     1      -9.137   6.871  70.252  1.00  0.00    -0.153 C  
HETATM   14  C   UNL     1     -10.939   7.177  71.799  1.00  0.00    -0.229 C  
HETATM   15  N   UNL     1     -10.088   6.165  71.134  1.00  0.00    -0.187 NA 
HETATM   16  C   UNL     1     -10.883   5.187  70.395  1.00  0.00     0.085 C  
HETATM   17  C   UNL     1      -9.775   7.841  69.229  1.00  0.00    -0.165 C  
ENDBRANCH   9  11
BRANCH   8  18
HETATM   18  C   UNL     1      -7.717  12.718  69.702  1.00  0.00     1.088 A  
HETATM   19  C   UNL     1      -6.296  14.772  69.731  1.00  0.00    -0.152 A  
HETATM   20  C   UNL     1      -5.143  14.016  69.777  1.00  0.00    -0.091 A  
HETATM   21  C   UNL     1      -7.541  14.134  69.670  1.00  0.00     0.315 A  
HETATM   22  C   UNL     1      -5.253  12.634  69.787  1.00  0.00    -0.079 A  
HETATM   23  C   UNL     1      -6.513  11.975  69.786  1.00  0.00    -0.066 A  
HETATM   24  C   UNL     1      -6.411  10.480  69.866  1.00  0.00    -0.104 C  
ENDBRANCH   8  18
ENDBRANCH   2   5
BRANCH   4  25
HETATM   25  C   UNL     1      -9.428  14.860  67.513  1.00  0.00    -0.200 C  
HETATM   26  C   UNL     1      -9.676  13.330  67.440  1.00  0.00    -0.221 C  
HETATM   27  C   UNL     1      -7.949  15.075  67.175  1.00  0.00    -0.238 C  
BRANCH  25  28
HETATM   28  C   UNL     1     -10.206  15.629  66.409  1.00  0.00    -0.300 A  
HETATM   29  C   UNL     1     -10.839  17.760  65.362  1.00  0.00     0.151 A  
HETATM   30  C   UNL     1     -10.152  17.033  66.347  1.00  0.00    -0.325 A  
HETATM   31  F   UNL     1     -13.059  15.696  62.474  1.00  0.00     3.230 F  
HETATM   32  C   UNL     1     -10.809  19.270  65.355  1.00  0.00     0.126 C  
HETATM   33  F   UNL     1     -13.322  14.067  63.888  1.00  0.00     0.694 F  
HETATM   34  C   UNL     1     -11.570  17.062  64.390  1.00  0.00     1.154 A  
HETATM   35  F   UNL     1     -10.301  19.775  64.197  1.00  0.00     2.782 F  
HETATM   36  F   UNL     1     -10.055  19.805  66.357  1.00  0.00    -0.427 F  
HETATM   37  F   UNL     1     -11.584  14.104  62.584  1.00  0.00     1.125 F  
HETATM   38  C   UNL     1     -12.387  14.896  63.347  1.00  0.00     1.094 C  
HETATM   39  C   UNL     1     -11.615  15.661  64.396  1.00  0.00    -0.250 A  
HETATM   40  F   UNL     1     -12.049  19.816  65.490  1.00  0.00     1.420 F  
HETATM   41  C   UNL     1     -10.927  14.960  65.403  1.00  0.00    -0.371 A  
ENDBRANCH  25  28
ENDBRANCH   4  25
TORSDOF 5
ENDMDL
MODEL      294
REMARK 921   NORMALIZED FREE ENERGY PREDICTED BY IDOCK:   15.70 KCAL/MOL
REMARK 922        TOTAL FREE ENERGY PREDICTED BY IDOCK:   18.65 KCAL/MOL
REMARK 923 INTER-LIGAND FREE ENERGY PREDICTED BY IDOCK:   -0.06 KCAL/MOL
REMARK 924 INTRA-LIGAND FREE ENERGY PREDICTED BY IDOCK:   18.72 KCAL/MOL
REMARK 927      BINDING AFFINITY PREDICTED BY RF-SCORE:    0.00 PKD
ROOT
HETATM    1  C   UNL     1      -8.808   9.948  64.463  1.00  0.00    -0.209 C  
HETATM    2  N   UNL     1      -8.786  10.985  65.507  1.00  0.00    -0.191 N  
HETATM    3  O   UNL     1      -8.463  12.524  63.883  1.00  0.00     2.050 OA 
HETATM    4  C   UNL     1      -8.766  12.308  65.069  1.00  0.00     1.229 C  
ENDROOT
BRANCH   2   5
HETATM    5  C   UNL     1      -9.238  10.542  66.766  1.00  0.00    -0.155 A  
HETATM    6  C   UNL     1     -10.609  10.404  68.698  1.00  0.00    -0.234 A  
HETATM    7  C   UNL     1      -8.473   9.535  67.377  1.00  0.00    -0.125 A  
HETATM    8  C   UNL     1     -10.364  11.040  67.446  1.00  0.00    -0.242 A  
HETATM    9  C   UNL     1      -9.875   9.312  69.186  1.00  0.00    -0.167 A  
HETATM   10  N   UNL     1      -8.776   8.915  68.532  1.00  0.00    -0.133 NA 
BRANCH   9  11
HETATM   11  N   UNL     1     -10.264   8.601  70.303  1.00  0.00    -0.189 NA 
HETATM   12  C   UNL     1     -10.625   7.177  70.184  1.00  0.00    -0.230 C  
HETATM   13  C   UNL     1     -11.969   8.868  72.104  1.00  0.00    -0.349 C  
HETATM   14  C   UNL     1     -12.012   6.861  70.800  1.00  0.00    -0.373 C  
HETATM   15  N   UNL     1     -12.269   7.424  72.144  1.00  0.00    -0.264 NA 
HETATM   16  C   UNL     1     -11.493   6.741  73.177  1.00  0.00     0.129 C  
HETATM   17  C   UNL     1     -10.556   9.239  71.591  1.00  0.00    -0.290 C  
ENDBRANCH   9  11
BRANCH   8  18
HETATM   18  C   UNL     1     -11.392  12.051  66.954  1.00  0.00    -0.400 A  
HETATM   19  C   UNL     1     -12.887  12.674  65.052  1.00  0.00    -0.242 A  
HETATM   20  C   UNL     1     -13.349  13.781  65.731  1.00  0.00     0.518 A  
HETATM   21  C   UNL     1     -11.918  11.852  65.642  1.00  0.00    -0.005 A  
HETATM   22  C   UNL     1     -12.857  14.037  67.002  1.00  0.00     0.704 A  
HETATM   23  C   UNL     1     -11.918  13.178  67.636  1.00  0.00    -0.363 A  
HETATM   24  C   UNL     1     -11.564  13.598  69.032  1.00  0.00    -0.356 C  
ENDBRANCH   8  18
ENDBRANCH   2   5
BRANCH   4  25
HETATM   25  C   UNL     1      -9.171  13.558  65.951  1.00  0.00     0.175 C  
HETATM   26  C   UNL     1     -10.657  13.274  66.296  1.00  0.00    -0.294 C  
HETATM   27  C   UNL     1      -9.122  14.980  65.383  1.00  0.00     0.801 C  
BRANCH  25  28
HETATM   28  C   UNL     1      -8.277  13.605  67.222  1.00  0.00    -0.164 A  
HETATM   29  C   UNL     1      -7.056  14.919  68.901  1.00  0.00    -0.117 A  
HETATM   30  C   UNL     1      -7.860  14.839  67.753  1.00  0.00    -0.163 A  
HETATM   31  F   UNL     1      -5.914  11.394  70.849  1.00  0.00    -0.129 F  
HETATM   32  C   UNL     1      -6.577  16.256  69.417  1.00  0.00    -0.202 C  
HETATM   33  F   UNL     1      -6.095  10.332  68.962  1.00  0.00    -0.038 F  
HETATM   34  C   UNL     1      -6.688  13.736  69.557  1.00  0.00    -0.044 A  
HETATM   35  F   UNL     1      -6.983  16.498  70.694  1.00  0.00     0.728 F  
HETATM   36  F   UNL     1      -7.019  17.314  68.680  1.00  0.00    -0.179 F  
HETATM   37  F   UNL     1      -7.824  10.538  70.262  1.00  0.00    -0.117 F  
HETATM   38  C   UNL     1      -6.738  11.206  69.782  1.00  0.00    -0.121 C  
HETATM   39  C   UNL     1      -7.116  12.489  69.078  1.00  0.00    -0.037 A  
HETATM   40  F   UNL     1      -5.220  16.353  69.430  1.00  0.00    -0.119 F  
HETATM   41  C   UNL     1      -7.911  12.439  67.918  1.00  0.00    -0.155 A  
ENDBRANCH  25  28
ENDBRANCH   4  25
TORSDOF 5
ENDMDL
MODEL      295
REMARK 921   NORMALIZED FREE ENERGY PREDICTED BY IDOCK:   16.93 KCAL/MOL
REMARK 922        TOTAL FREE ENERGY PREDICTED BY IDOCK:   20.24 KCAL/MOL
REMARK 923 INTER-LIGAND FREE ENERGY PREDICTED BY IDOCK:   12.74 KCAL/MOL
REMARK 924 INTRA-LIGAND FREE ENERGY PREDICTED BY IDOCK:    7.50 KCAL/MOL
REMARK 927      BINDING AFFINITY PREDICTED BY RF-SCORE:    0.00 PKD
ROOT
HETATM    1  C   UNL     1      -9.539   8.431  71.863  1.00  0.00    -0.254 C  
HETATM    2  N   UNL     1      -9.178   9.130  70.619  1.00  0.00    -0.238 N  
HETATM    3  O   UNL     1      -8.204   7.219  69.901  1.00  0.00    -0.128 OA 
HETATM    4  C   UNL     1      -8.630   8.348  69.602  1.00  0.00    -0.132 C  
ENDROOT
BRANCH   2   5
HETATM    5  C   UNL     1      -9.832  10.366  70.445  1.00  0.00     0.511 A  
HETATM    6  C   UNL     1     -11.512  12.027  70.667  1.00  0.00     0.602 A  
HETATM    7  C   UNL     1      -9.162  11.312  69.651  1.00  0.00     0.856 A  
HETATM    8  C   UNL     1     -11.088  10.703  70.982  1.00  0.00     0.426 A  
HETATM    9  C   UNL     1     -10.729  12.963  69.976  1.00  0.00     1.114 A  
HETATM   10  N   UNL     1      -9.568  12.575  69.432  1.00  0.00     0.850 NA 
BRANCH   9  11
HETATM   11  N   UNL     1     -11.092  14.290  69.862  1.00  0.00    -0.141 NA 
HETATM   12  C   UNL     1     -10.583  15.103  68.743  1.00  0.00    -0.236 C  
HETATM   13  C   UNL     1     -11.035  16.304  71.333  1.00  0.00     0.393 C  
HETATM   14  C   UNL     1      -9.919  16.420  69.218  1.00  0.00    -0.259 C  
HETATM   15  N   UNL     1     -10.674  17.205  70.220  1.00  0.00     0.300 NA 
HETATM   16  C   UNL     1     -11.853  17.840  69.636  1.00  0.00     4.393 C  
HETATM   17  C   UNL     1     -11.793  15.017  70.926  1.00  0.00    -0.324 C  
ENDBRANCH   9  11
BRANCH   8  18
HETATM   18  C   UNL     1     -11.953   9.892  71.939  1.00  0.00    -0.182 A  
HETATM   19  C   UNL     1     -12.046   7.836  73.354  1.00  0.00     1.370 A  
HETATM   20  C   UNL     1     -13.327   8.134  73.766  1.00  0.00     3.886 A  
HETATM   21  C   UNL     1     -11.394   8.681  72.447  1.00  0.00    -0.353 A  
HETATM   22  C   UNL     1     -13.929   9.287  73.287  1.00  0.00     0.942 A  
HETATM   23  C   UNL     1     -13.257  10.185  72.413  1.00  0.00    -0.211 A  
HETATM   24  C   UNL     1     -14.060  11.403  72.065  1.00  0.00     0.814 C  
ENDBRANCH   8  18
ENDBRANCH   2   5
BRANCH   4  25
HETATM   25  C   UNL     1      -8.574   8.761  68.076  1.00  0.00    -0.134 C  
HETATM   26  C   UNL     1      -7.714  10.052  68.096  1.00  0.00    -0.085 C  
HETATM   27  C   UNL     1      -9.849   9.103  67.298  1.00  0.00    -0.244 C  
BRANCH  25  28
HETATM   28  C   UNL     1      -7.899   7.625  67.258  1.00  0.00    -0.117 A  
HETATM   29  C   UNL     1      -6.963   6.817  65.134  1.00  0.00    -0.055 A  
HETATM   30  C   UNL     1      -7.576   7.819  65.903  1.00  0.00    -0.090 A  
HETATM   31  F   UNL     1      -6.004   3.160  66.933  1.00  0.00    -0.021 F  
HETATM   32  C   UNL     1      -6.679   7.034  63.667  1.00  0.00    -0.044 C  
HETATM   33  F   UNL     1      -7.615   3.476  68.357  1.00  0.00    -0.056 F  
HETATM   34  C   UNL     1      -6.632   5.599  65.746  1.00  0.00    -0.041 A  
HETATM   35  F   UNL     1      -5.356   6.915  63.369  1.00  0.00    -0.028 F  
HETATM   36  F   UNL     1      -7.051   8.266  63.216  1.00  0.00    -0.084 F  
HETATM   37  F   UNL     1      -5.629   4.250  68.776  1.00  0.00    -0.011 F  
HETATM   38  C   UNL     1      -6.541   4.081  67.780  1.00  0.00    -0.042 C  
HETATM   39  C   UNL     1      -6.905   5.383  67.104  1.00  0.00    -0.063 A  
HETATM   40  F   UNL     1      -7.324   6.136  62.873  1.00  0.00    -0.045 F  
HETATM   41  C   UNL     1      -7.531   6.402  67.846  1.00  0.00    -0.094 A  
ENDBRANCH  25  28
ENDBRANCH   4  25
TORSDOF 5
ENDMDL
MODEL      296
REMARK 921   NORMALIZED FREE ENERGY PREDICTED BY IDOCK:   18.35 KCAL/MOL
REMARK 922        TOTAL FREE ENERGY PREDICTED BY IDOCK:   22.07 KCAL/MOL
REMARK 923 INTER-LIGAND FREE ENERGY PREDICTED BY IDOCK:   -3.65 KCAL/MOL
REMARK 924 INTRA-LIGAND FREE ENERGY PREDICTED BY IDOCK:   25.72 KCAL/MOL
REMARK 927      BINDING AFFINITY PREDICTED BY RF-SCORE:    0.00 PKD
ROOT
HETATM    1  C   UNL     1      -6.710  10.557  69.068  1.00  0.00    -0.063 C  
HETATM    2  N   UNL     1      -8.042  10.957  68.585  1.00  0.00    -0.135 N  
HETATM    3  O   UNL     1      -8.918   9.250  69.781  1.00  0.00    -0.147 OA 
HETATM    4  C   UNL     1      -9.133  10.303  69.157  1.00  0.00    -0.191 C  
ENDROOT
BRANCH   2   5
HETATM    5  C   UNL     1      -8.073  12.223  67.967  1.00  0.00    -0.156 A  
HETATM    6  C   UNL     1      -8.172  13.826  66.220  1.00  0.00     1.097 A  
HETATM    7  C   UNL     1      -8.017  13.331  68.827  1.00  0.00     0.034 A  
HETATM    8  C   UNL     1      -8.136  12.448  66.580  1.00  0.00     0.212 A  
HETATM    9  C   UNL     1      -8.245  14.881  67.143  1.00  0.00    -0.215 A  
HETATM   10  N   UNL     1      -8.120  14.618  68.451  1.00  0.00    -0.140 NA 
BRANCH   9  11
HETATM   11  N   UNL     1      -8.477  16.185  66.757  1.00  0.00    -0.225 NA 
HETATM   12  C   UNL     1      -7.656  17.277  67.311  1.00  0.00    -0.180 C  
HETATM   13  C   UNL     1     -10.443  17.719  66.686  1.00  0.00    -0.300 C  
HETATM   14  C   UNL     1      -8.512  18.417  67.918  1.00  0.00    -0.261 C  
HETATM   15  N   UNL     1      -9.643  18.892  67.090  1.00  0.00    -0.300 NA 
HETATM   16  C   UNL     1      -9.185  19.656  65.932  1.00  0.00    -0.120 C  
HETATM   17  C   UNL     1      -9.655  16.588  65.981  1.00  0.00    -0.290 C  
ENDBRANCH   9  11
BRANCH   8  18
HETATM   18  C   UNL     1      -8.298  11.421  65.464  1.00  0.00     0.234 A  
HETATM   19  C   UNL     1      -7.194  10.375  63.483  1.00  0.00    -0.015 A  
HETATM   20  C   UNL     1      -8.292   9.573  63.251  1.00  0.00    -0.181 A  
HETATM   21  C   UNL     1      -7.215  11.288  64.546  1.00  0.00     1.319 A  
HETATM   22  C   UNL     1      -9.383   9.676  64.099  1.00  0.00    -0.148 A  
HETATM   23  C   UNL     1      -9.394  10.555  65.216  1.00  0.00    -0.258 A  
HETATM   24  C   UNL     1     -10.643  10.466  66.042  1.00  0.00    -0.136 C  
ENDBRANCH   8  18
ENDBRANCH   2   5
BRANCH   4  25
HETATM   25  C   UNL     1     -10.621  10.839  69.134  1.00  0.00    -0.254 C  
HETATM   26  C   UNL     1     -11.030  10.797  70.630  1.00  0.00     0.235 C  
HETATM   27  C   UNL     1     -11.720  10.100  68.364  1.00  0.00     0.227 C  
BRANCH  25  28
HETATM   28  C   UNL     1     -10.641  12.286  68.566  1.00  0.00    -0.254 A  
HETATM   29  C   UNL     1     -10.511  14.710  68.947  1.00  0.00    -0.248 A  
HETATM   30  C   UNL     1     -10.501  13.391  69.426  1.00  0.00     0.257 A  
HETATM   31  F   UNL     1     -10.897  15.392  64.835  1.00  0.00    -0.368 F  
HETATM   32  C   UNL     1     -10.416  15.878  69.900  1.00  0.00    -0.310 C  
HETATM   33  F   UNL     1     -11.955  13.502  64.655  1.00  0.00    -0.357 F  
HETATM   34  C   UNL     1     -10.627  14.931  67.568  1.00  0.00    -0.266 A  
HETATM   35  F   UNL     1      -9.340  16.672  69.646  1.00  0.00    -0.138 F  
HETATM   36  F   UNL     1     -10.304  15.507  71.208  1.00  0.00    -0.142 F  
HETATM   37  F   UNL     1      -9.788  13.552  64.501  1.00  0.00    -0.312 F  
HETATM   38  C   UNL     1     -10.842  14.077  65.186  1.00  0.00    -0.369 C  
HETATM   39  C   UNL     1     -10.730  13.854  66.676  1.00  0.00    -0.281 A  
HETATM   40  F   UNL     1     -11.506  16.692  69.837  1.00  0.00    -0.239 F  
HETATM   41  C   UNL     1     -10.729  12.543  67.185  1.00  0.00    -0.263 A  
ENDBRANCH  25  28
ENDBRANCH   4  25
TORSDOF 5
ENDMDL
MODEL      297
REMARK 921   NORMALIZED FREE ENERGY PREDICTED BY IDOCK:   24.36 KCAL/MOL
REMARK 922        TOTAL FREE ENERGY PREDICTED BY IDOCK:   29.83 KCAL/MOL
REMARK 923 INTER-LIGAND FREE ENERGY PREDICTED BY IDOCK:   27.05 KCAL/MOL
REMARK 924 INTRA-LIGAND FREE ENERGY PREDICTED BY IDOCK:    2.78 KCAL/MOL
REMARK 927      BINDING AFFINITY PREDICTED BY RF-SCORE:    0.00 PKD
ROOT
HETATM    1  C   UNL     1      -7.704  17.342  71.648  1.00  0.00     9.374 C  
HETATM    2  N   UNL     1      -7.717  16.715  70.316  1.00  0.00     1.659 N  
HETATM    3  O   UNL     1      -7.347  18.757  69.420  1.00  0.00    -0.166 OA 
HETATM    4  C   UNL     1      -7.355  17.527  69.242  1.00  0.00    -0.043 C  
ENDROOT
BRANCH   2   5
HETATM    5  C   UNL     1      -7.649  15.308  70.343  1.00  0.00     0.714 A  
HETATM    6  C   UNL     1      -8.266  13.057  69.911  1.00  0.00     2.380 A  
HETATM    7  C   UNL     1      -6.563  14.756  71.043  1.00  0.00     0.451 A  
HETATM    8  C   UNL     1      -8.581  14.437  69.748  1.00  0.00     0.702 A  
HETATM    9  C   UNL     1      -7.091  12.581  70.513  1.00  0.00     2.299 A  
HETATM   10  N   UNL     1      -6.266  13.446  71.118  1.00  0.00    -0.012 NA 
BRANCH   9  11
HETATM   11  N   UNL     1      -6.729  11.250  70.475  1.00  0.00    -0.025 NA 
HETATM   12  C   UNL     1      -5.970  10.722  69.328  1.00  0.00    -0.043 C  
HETATM   13  C   UNL     1      -7.902   9.059  70.688  1.00  0.00    -0.133 C  
HETATM   14  C   UNL     1      -6.632   9.470  68.700  1.00  0.00    -0.052 C  
HETATM   15  N   UNL     1      -7.069   8.421  69.649  1.00  0.00    -0.051 NA 
HETATM   16  C   UNL     1      -5.934   7.709  70.232  1.00  0.00    -0.026 C  
HETATM   17  C   UNL     1      -7.250  10.256  71.421  1.00  0.00     1.755 C  
ENDBRANCH   9  11
BRANCH   8  18
HETATM   18  C   UNL     1      -9.773  14.792  68.867  1.00  0.00    -0.215 A  
HETATM   19  C   UNL     1     -10.555  15.060  66.510  1.00  0.00    -0.305 A  
HETATM   20  C   UNL     1     -11.819  15.413  66.932  1.00  0.00     0.227 A  
HETATM   21  C   UNL     1      -9.559  14.783  67.457  1.00  0.00    -0.208 A  
HETATM   22  C   UNL     1     -12.078  15.459  68.293  1.00  0.00     0.039 A  
HETATM   23  C   UNL     1     -11.094  15.123  69.263  1.00  0.00    -0.279 A  
HETATM   24  C   UNL     1     -11.597  15.175  70.675  1.00  0.00    -0.351 C  
ENDBRANCH   8  18
ENDBRANCH   2   5
BRANCH   4  25
HETATM   25  C   UNL     1      -6.880  16.997  67.829  1.00  0.00    -0.162 C  
HETATM   26  C   UNL     1      -7.324  15.510  67.847  1.00  0.00    -0.155 C  
HETATM   27  C   UNL     1      -5.399  17.001  67.435  1.00  0.00    -0.161 C  
BRANCH  25  28
HETATM   28  C   UNL     1      -7.594  17.804  66.708  1.00  0.00    -0.248 A  
HETATM   29  C   UNL     1      -9.667  18.696  65.737  1.00  0.00     0.231 A  
HETATM   30  C   UNL     1      -8.990  17.971  66.731  1.00  0.00    -0.279 A  
HETATM   31  F   UNL     1      -7.470  20.476  62.649  1.00  0.00     1.109 F  
HETATM   32  C   UNL     1     -11.173  18.812  65.756  1.00  0.00     0.743 C  
HETATM   33  F   UNL     1      -5.937  18.957  62.910  1.00  0.00    -0.113 F  
HETATM   34  C   UNL     1      -8.924  19.301  64.713  1.00  0.00     3.787 A  
HETATM   35  F   UNL     1     -11.595  20.104  65.821  1.00  0.00     0.050 F  
HETATM   36  F   UNL     1     -11.755  18.177  66.813  1.00  0.00     0.784 F  
HETATM   37  F   UNL     1      -5.860  20.789  64.076  1.00  0.00    -0.244 F  
HETATM   38  C   UNL     1      -6.713  19.846  63.589  1.00  0.00     1.100 C  
HETATM   39  C   UNL     1      -7.527  19.188  64.679  1.00  0.00     2.044 A  
HETATM   40  F   UNL     1     -11.749  18.284  64.642  1.00  0.00     1.154 F  
HETATM   41  C   UNL     1      -6.877  18.445  65.682  1.00  0.00    -0.278 A  
ENDBRANCH  25  28
ENDBRANCH   4  25
TORSDOF 5
ENDMDL
MODEL      298
REMARK 921   NORMALIZED FREE ENERGY PREDICTED BY IDOCK:   25.10 KCAL/MOL
REMARK 922        TOTAL FREE ENERGY PREDICTED BY IDOCK:   30.80 KCAL/MOL
REMARK 923 INTER-LIGAND FREE ENERGY PREDICTED BY IDOCK:    5.38 KCAL/MOL
REMARK 924 INTRA-LIGAND FREE ENERGY PREDICTED BY IDOCK:   25.42 KCAL/MOL
REMARK 927      BINDING AFFINITY PREDICTED BY RF-SCORE:    0.00 PKD
ROOT
HETATM    1  C   UNL     1     -10.420   5.034  63.866  1.00  0.00     1.342 C  
HETATM    2  N   UNL     1      -9.242   5.213  64.730  1.00  0.00    -0.016 N  
HETATM    3  O   UNL     1      -8.081   3.883  63.317  1.00  0.00    -0.081 OA 
HETATM    4  C   UNL     1      -8.036   4.701  64.253  1.00  0.00    -0.103 C  
ENDROOT
BRANCH   2   5
HETATM    5  C   UNL     1      -9.378   6.244  65.681  1.00  0.00     0.191 A  
HETATM    6  C   UNL     1      -9.715   7.270  67.795  1.00  0.00    -0.167 A  
HETATM    7  C   UNL     1      -9.256   7.555  65.192  1.00  0.00     0.711 A  
HETATM    8  C   UNL     1      -9.642   6.057  67.050  1.00  0.00    -0.148 A  
HETATM    9  C   UNL     1      -9.452   8.540  67.261  1.00  0.00    -0.157 A  
HETATM   10  N   UNL     1      -9.267   8.672  65.941  1.00  0.00    -0.211 NA 
BRANCH   9  11
HETATM   11  N   UNL     1      -9.340   9.665  68.053  1.00  0.00    -0.132 NA 
HETATM   12  C   UNL     1      -8.582  10.834  67.573  1.00  0.00    -0.125 C  
HETATM   13  C   UNL     1      -8.601  10.160  70.383  1.00  0.00     0.466 C  
HETATM   14  C   UNL     1      -7.508  11.304  68.586  1.00  0.00    -0.118 C  
HETATM   15  N   UNL     1      -7.951  11.427  69.993  1.00  0.00     0.975 NA 
HETATM   16  C   UNL     1      -8.842  12.570  70.184  1.00  0.00     4.273 C  
HETATM   17  C   UNL     1      -9.753   9.693  69.460  1.00  0.00    -0.203 C  
ENDBRANCH   9  11
BRANCH   8  18
HETATM   18  C   UNL     1      -9.722   4.746  67.824  1.00  0.00    -0.202 A  
HETATM   19  C   UNL     1      -9.438   2.269  67.669  1.00  0.00    -0.108 A  
HETATM   20  C   UNL     1      -9.782   2.111  68.995  1.00  0.00     0.064 A  
HETATM   21  C   UNL     1      -9.434   3.550  67.101  1.00  0.00    -0.219 A  
HETATM   22  C   UNL     1     -10.093   3.237  69.741  1.00  0.00     0.708 A  
HETATM   23  C   UNL     1     -10.036   4.548  69.193  1.00  0.00    -0.169 A  
HETATM   24  C   UNL     1     -10.345   5.630  70.184  1.00  0.00    -0.341 C  
ENDBRANCH   8  18
ENDBRANCH   2   5
BRANCH   4  25
HETATM   25  C   UNL     1      -6.604   5.135  64.765  1.00  0.00    -0.043 C  
HETATM   26  C   UNL     1      -6.191   6.236  63.753  1.00  0.00    -0.026 C  
HETATM   27  C   UNL     1      -5.442   4.138  64.816  1.00  0.00    -0.013 C  
BRANCH  25  28
HETATM   28  C   UNL     1      -6.718   5.689  66.213  1.00  0.00    -0.057 A  
HETATM   29  C   UNL     1      -7.022   5.279  68.616  1.00  0.00    -0.057 A  
HETATM   30  C   UNL     1      -6.918   4.814  67.296  1.00  0.00    -0.061 A  
HETATM   31  F   UNL     1      -6.664   9.380  69.376  1.00  0.00    -0.045 F  
HETATM   32  C   UNL     1      -7.293   4.321  69.753  1.00  0.00    -0.050 C  
HETATM   33  F   UNL     1      -7.378   9.781  67.362  1.00  0.00    -0.087 F  
HETATM   34  C   UNL     1      -6.888   6.652  68.865  1.00  0.00    -0.062 A  
HETATM   35  F   UNL     1      -6.315   4.346  70.699  1.00  0.00    -0.022 F  
HETATM   36  F   UNL     1      -7.394   3.020  69.357  1.00  0.00    -0.044 F  
HETATM   37  F   UNL     1      -5.255   9.487  67.724  1.00  0.00    -0.036 F  
HETATM   38  C   UNL     1      -6.490   9.031  68.071  1.00  0.00    -0.060 C  
HETATM   39  C   UNL     1      -6.651   7.551  67.816  1.00  0.00    -0.061 A  
HETATM   40  F   UNL     1      -8.453   4.603  70.406  1.00  0.00    -0.075 F  
HETATM   41  C   UNL     1      -6.563   7.057  66.501  1.00  0.00    -0.052 A  
ENDBRANCH  25  28
ENDBRANCH   4  25
TORSDOF 5
ENDMDL
MODEL      299
REMARK 921   NORMALIZED FREE ENERGY PREDICTED BY IDOCK:   28.13 KCAL/MOL
REMARK 922        TOTAL FREE ENERGY PREDICTED BY IDOCK:   34.72 KCAL/MOL
REMARK 923 INTER-LIGAND FREE ENERGY PREDICTED BY IDOCK:   19.68 KCAL/MOL
REMARK 924 INTRA-LIGAND FREE ENERGY PREDICTED BY IDOCK:   15.04 KCAL/MOL
REMARK 927      BINDING AFFINITY PREDICTED BY RF-SCORE:    0.00 PKD
ROOT
HETATM    1  C   UNL     1      -7.263  15.521  67.062  1.00  0.00    -0.089 C  
HETATM    2  N   UNL     1      -8.446  15.642  67.928  1.00  0.00    -0.149 N  
HETATM    3  O   UNL     1      -8.506  17.847  67.433  1.00  0.00    -0.230 OA 
HETATM    4  C   UNL     1      -9.107  16.870  67.912  1.00  0.00    -0.233 C  
ENDROOT
BRANCH   2   5
HETATM    5  C   UNL     1      -9.015  14.407  68.299  1.00  0.00    -0.187 A  
HETATM    6  C   UNL     1     -10.400  12.485  68.168  1.00  0.00    -0.236 A  
HETATM    7  C   UNL     1      -8.542  13.845  69.496  1.00  0.00     0.881 A  
HETATM    8  C   UNL     1     -10.013  13.724  67.580  1.00  0.00    -0.238 A  
HETATM    9  C   UNL     1      -9.789  11.923  69.299  1.00  0.00     0.431 A  
HETATM   10  N   UNL     1      -8.887  12.639  69.982  1.00  0.00     3.136 NA 
BRANCH   9  11
HETATM   11  N   UNL     1     -10.056  10.636  69.720  1.00  0.00    -0.101 NA 
HETATM   12  C   UNL     1     -10.973  10.403  70.851  1.00  0.00     0.117 C  
HETATM   13  C   UNL     1      -8.711   8.655  70.422  1.00  0.00    -0.155 C  
HETATM   14  C   UNL     1     -10.349   9.505  71.948  1.00  0.00     0.466 C  
HETATM   15  N   UNL     1      -9.673   8.276  71.476  1.00  0.00    -0.176 NA 
HETATM   16  C   UNL     1     -10.629   7.279  70.998  1.00  0.00    -0.221 C  
HETATM   17  C   UNL     1      -9.302   9.470  69.246  1.00  0.00    -0.169 C  
ENDBRANCH   9  11
BRANCH   8  18
HETATM   18  C   UNL     1     -10.610  14.081  66.224  1.00  0.00    -0.281 A  
HETATM   19  C   UNL     1     -12.599  13.805  64.739  1.00  0.00    -0.330 A  
HETATM   20  C   UNL     1     -12.013  14.569  63.753  1.00  0.00     0.083 A  
HETATM   21  C   UNL     1     -11.902  13.552  65.927  1.00  0.00    -0.405 A  
HETATM   22  C   UNL     1     -10.749  15.092  63.978  1.00  0.00     1.183 A  
HETATM   23  C   UNL     1     -10.054  14.892  65.202  1.00  0.00    -0.354 A  
HETATM   24  C   UNL     1      -8.731  15.595  65.266  1.00  0.00     1.987 C  
ENDBRANCH   8  18
ENDBRANCH   2   5
BRANCH   4  25
HETATM   25  C   UNL     1     -10.596  17.101  68.392  1.00  0.00    -0.371 C  
HETATM   26  C   UNL     1     -11.412  16.964  67.080  1.00  0.00     0.761 C  
HETATM   27  C   UNL     1     -11.028  18.424  69.034  1.00  0.00     1.104 C  
BRANCH  25  28
HETATM   28  C   UNL     1     -10.979  16.010  69.432  1.00  0.00    -0.321 A  
HETATM   29  C   UNL     1     -12.016  13.840  69.936  1.00  0.00    -0.412 A  
HETATM   30  C   UNL     1     -11.658  14.847  69.025  1.00  0.00    -0.330 A  
HETATM   31  F   UNL     1     -10.981  14.267  73.970  1.00  0.00     0.927 F  
HETATM   32  C   UNL     1     -12.795  12.629  69.480  1.00  0.00     0.983 C  
HETATM   33  F   UNL     1     -11.005  16.425  73.713  1.00  0.00     1.054 F  
HETATM   34  C   UNL     1     -11.655  13.983  71.283  1.00  0.00     0.361 A  
HETATM   35  F   UNL     1     -12.135  11.463  69.725  1.00  0.00    -0.322 F  
HETATM   36  F   UNL     1     -13.069  12.628  68.145  1.00  0.00     1.263 F  
HETATM   37  F   UNL     1      -9.184  15.306  73.322  1.00  0.00     5.028 F  
HETATM   38  C   UNL     1     -10.536  15.271  73.164  1.00  0.00     2.879 C  
HETATM   39  C   UNL     1     -10.945  15.111  71.718  1.00  0.00     0.017 A  
HETATM   40  F   UNL     1     -13.998  12.517  70.107  1.00  0.00     2.034 F  
HETATM   41  C   UNL     1     -10.609  16.109  70.785  1.00  0.00     0.295 A  
ENDBRANCH  25  28
ENDBRANCH   4  25
TORSDOF 5
ENDMDL
MODEL      300
REMARK 921   NORMALIZED FREE ENERGY PREDICTED BY IDOCK:   33.92 KCAL/MOL
REMARK 922        TOTAL FREE ENERGY PREDICTED BY IDOCK:   42.20 KCAL/MOL
REMARK 923 INTER-LIGAND FREE ENERGY PREDICTED BY IDOCK:    3.20 KCAL/MOL
REMARK 924 INTRA-LIGAND FREE ENERGY PREDICTED BY IDOCK:   39.00 KCAL/MOL
REMARK 927      BINDING AFFINITY PREDICTED BY RF-SCORE:    0.00 PKD
ROOT
HETATM    1  C   UNL     1     -12.065  11.508  68.428  1.00  0.00    -0.049 C  
HETATM    2  N   UNL     1     -10.994  12.104  67.613  1.00  0.00    -0.231 N  
HETATM    3  O   UNL     1     -11.000  10.229  66.348  1.00  0.00    -0.029 OA 
HETATM    4  C   UNL     1     -10.636  11.413  66.456  1.00  0.00    -0.263 C  
ENDROOT
BRANCH   2   5
HETATM    5  C   UNL     1     -10.793  13.479  67.845  1.00  0.00    -0.247 A  
HETATM    6  C   UNL     1      -9.714  15.459  68.586  1.00  0.00    -0.210 A  
HETATM    7  C   UNL     1     -11.812  14.337  67.399  1.00  0.00    -0.409 A  
HETATM    8  C   UNL     1      -9.677  14.038  68.496  1.00  0.00    -0.215 A  
HETATM    9  C   UNL     1     -10.706  16.261  68.000  1.00  0.00    -0.331 A  
HETATM   10  N   UNL     1     -11.778  15.680  67.445  1.00  0.00     0.008 NA 
BRANCH   9  11
HETATM   11  N   UNL     1     -10.603  17.636  67.939  1.00  0.00    -0.395 NA 
HETATM   12  C   UNL     1     -11.250  18.378  66.843  1.00  0.00     0.532 C  
HETATM   13  C   UNL     1      -8.749  19.305  67.954  1.00  0.00    -0.313 C  
HETATM   14  C   UNL     1     -10.272  19.328  66.107  1.00  0.00    -0.470 C  
HETATM   15  N   UNL     1      -9.418  20.177  66.968  1.00  0.00    -0.384 NA 
HETATM   16  C   UNL     1     -10.186  21.235  67.620  1.00  0.00     0.957 C  
HETATM   17  C   UNL     1      -9.689  18.405  68.792  1.00  0.00    -0.343 C  
ENDBRANCH   9  11
BRANCH   8  18
HETATM   18  C   UNL     1      -8.416  13.331  68.979  1.00  0.00     0.402 A  
HETATM   19  C   UNL     1      -6.313  13.596  70.299  1.00  0.00    -0.003 A  
HETATM   20  C   UNL     1      -5.945  12.292  70.042  1.00  0.00    -0.153 A  
HETATM   21  C   UNL     1      -7.502  14.101  69.759  1.00  0.00     0.336 A  
HETATM   22  C   UNL     1      -6.784  11.503  69.271  1.00  0.00    -0.118 A  
HETATM   23  C   UNL     1      -8.023  11.985  68.766  1.00  0.00    -0.014 A  
HETATM   24  C   UNL     1      -8.809  10.954  68.012  1.00  0.00    -0.135 C  
ENDBRANCH   8  18
ENDBRANCH   2   5
BRANCH   4  25
HETATM   25  C   UNL     1      -9.858  12.044  65.232  1.00  0.00    -0.236 C  
HETATM   26  C   UNL     1     -10.896  11.965  64.081  1.00  0.00    -0.412 C  
HETATM   27  C   UNL     1      -8.570  11.410  64.696  1.00  0.00     0.462 C  
BRANCH  25  28
HETATM   28  C   UNL     1      -9.470  13.512  65.566  1.00  0.00     0.158 A  
HETATM   29  C   UNL     1      -9.887  15.920  65.312  1.00  0.00    -0.031 A  
HETATM   30  C   UNL     1     -10.207  14.583  65.028  1.00  0.00    -0.398 A  
HETATM   31  F   UNL     1      -6.693  16.759  67.885  1.00  0.00    -0.127 F  
HETATM   32  C   UNL     1     -10.661  17.051  64.675  1.00  0.00     0.887 C  
HETATM   33  F   UNL     1      -5.783  14.869  67.317  1.00  0.00    -0.039 F  
HETATM   34  C   UNL     1      -8.825  16.194  66.185  1.00  0.00    -0.367 A  
HETATM   35  F   UNL     1     -11.249  17.863  65.596  1.00  0.00    -0.057 F  
HETATM   36  F   UNL     1     -11.665  16.630  63.855  1.00  0.00    -0.287 F  
HETATM   37  F   UNL     1      -7.189  14.943  68.972  1.00  0.00    -0.104 F  
HETATM   38  C   UNL     1      -6.953  15.432  67.723  1.00  0.00    -0.163 C  
HETATM   39  C   UNL     1      -8.091  15.152  66.770  1.00  0.00    -0.113 A  
HETATM   40  F   UNL     1      -9.872  17.857  63.913  1.00  0.00     5.800 F  
HETATM   41  C   UNL     1      -8.427  13.821  66.458  1.00  0.00     0.299 A  
ENDBRANCH  25  28
ENDBRANCH   4  25
TORSDOF 5
ENDMDL
MODEL      301
REMARK 921   NORMALIZED FREE ENERGY PREDICTED BY IDOCK:   36.14 KCAL/MOL
REMARK 922        TOTAL FREE ENERGY PREDICTED BY IDOCK:   45.06 KCAL/MOL
REMARK 923 INTER-LIGAND FREE ENERGY PREDICTED BY IDOCK:   42.97 KCAL/MOL
REMARK 924 INTRA-LIGAND FREE ENERGY PREDICTED BY IDOCK:    2.10 KCAL/MOL
REMARK 927      BINDING AFFINITY PREDICTED BY RF-SCORE:    0.00 PKD
ROOT
HETATM    1  C   UNL     1      -6.562  10.399  68.989  1.00  0.00    -0.058 C  
HETATM    2  N   UNL     1      -7.537  11.057  68.105  1.00  0.00    -0.091 N  
HETATM    3  O   UNL     1      -9.180   9.959  69.204  1.00  0.00    -0.159 OA 
HETATM    4  C   UNL     1      -8.883  10.878  68.421  1.00  0.00    -0.147 C  
ENDROOT
BRANCH   2   5
HETATM    5  C   UNL     1      -7.004  12.123  67.354  1.00  0.00    -0.146 A  
HETATM    6  C   UNL     1      -6.111  13.276  65.481  1.00  0.00     8.523 A  
HETATM    7  C   UNL     1      -6.855  13.344  68.032  1.00  0.00    -0.132 A  
HETATM    8  C   UNL     1      -6.601  12.046  66.008  1.00  0.00     1.347 A  
HETATM    9  C   UNL     1      -6.113  14.492  66.183  1.00  0.00     5.753 A  
HETATM   10  N   UNL     1      -6.448  14.500  67.480  1.00  0.00    -0.309 NA 
BRANCH   9  11
HETATM   11  N   UNL     1      -5.816  15.695  65.576  1.00  0.00     5.845 NA 
HETATM   12  C   UNL     1      -5.143  16.761  66.339  1.00  0.00     0.236 C  
HETATM   13  C   UNL     1      -7.077  17.427  64.298  1.00  0.00     7.265 C  
HETATM   14  C   UNL     1      -5.894  18.114  66.263  1.00  0.00    -0.181 C  
HETATM   15  N   UNL     1      -6.329  18.541  64.914  1.00  0.00    -0.425 NA 
HETATM   16  C   UNL     1      -5.200  18.955  64.085  1.00  0.00    -0.218 C  
HETATM   17  C   UNL     1      -6.333  16.070  64.255  1.00  0.00    14.644 C  
ENDBRANCH   9  11
BRANCH   8  18
HETATM   18  C   UNL     1      -6.749  10.874  65.045  1.00  0.00     0.325 A  
HETATM   19  C   UNL     1      -5.530   9.361  63.476  1.00  0.00    -0.071 A  
HETATM   20  C   UNL     1      -6.692   8.687  63.166  1.00  0.00    -0.090 A  
HETATM   21  C   UNL     1      -5.570  10.438  64.370  1.00  0.00    -0.134 A  
HETATM   22  C   UNL     1      -7.873   9.082  63.774  1.00  0.00    -0.137 A  
HETATM   23  C   UNL     1      -7.918  10.135  64.729  1.00  0.00    -0.146 A  
HETATM   24  C   UNL     1      -9.280  10.360  65.316  1.00  0.00    -0.240 C  
ENDBRANCH   8  18
ENDBRANCH   2   5
BRANCH   4  25
HETATM   25  C   UNL     1     -10.062  11.804  67.914  1.00  0.00    -0.195 C  
HETATM   26  C   UNL     1     -11.320  10.928  68.150  1.00  0.00    -0.383 C  
HETATM   27  C   UNL     1     -10.131  12.276  66.458  1.00  0.00    -0.232 C  
BRANCH  25  28
HETATM   28  C   UNL     1     -10.094  13.109  68.758  1.00  0.00    -0.072 A  
HETATM   29  C   UNL     1     -10.784  14.291  70.799  1.00  0.00     1.000 A  
HETATM   30  C   UNL     1     -10.738  13.132  70.009  1.00  0.00     0.968 A  
HETATM   31  F   UNL     1      -8.895  17.771  69.438  1.00  0.00    -0.010 F  
HETATM   32  C   UNL     1     -11.531  14.301  72.112  1.00  0.00     1.109 C  
HETATM   33  F   UNL     1      -9.177  17.084  67.395  1.00  0.00    -0.225 F  
HETATM   34  C   UNL     1     -10.138  15.449  70.344  1.00  0.00     0.069 A  
HETATM   35  F   UNL     1     -10.728  14.614  73.166  1.00  0.00     0.545 F  
HETATM   36  F   UNL     1     -12.103  13.103  72.423  1.00  0.00     0.320 F  
HETATM   37  F   UNL     1      -7.399  16.503  68.501  1.00  0.00    -0.154 F  
HETATM   38  C   UNL     1      -8.742  16.690  68.624  1.00  0.00    -0.250 C  
HETATM   39  C   UNL     1      -9.454  15.454  69.120  1.00  0.00    -0.242 A  
HETATM   40  F   UNL     1     -12.543  15.212  72.128  1.00  0.00    -0.323 F  
HETATM   41  C   UNL     1      -9.435  14.280  68.344  1.00  0.00    -0.213 A  
ENDBRANCH  25  28
ENDBRANCH   4  25
TORSDOF 5
ENDMDL
MODEL      302
REMARK 921   NORMALIZED FREE ENERGY PREDICTED BY IDOCK:   36.27 KCAL/MOL
REMARK 922        TOTAL FREE ENERGY PREDICTED BY IDOCK:   45.23 KCAL/MOL
REMARK 923 INTER-LIGAND FREE ENERGY PREDICTED BY IDOCK:   33.75 KCAL/MOL
REMARK 924 INTRA-LIGAND FREE ENERGY PREDICTED BY IDOCK:   11.48 KCAL/MOL
REMARK 927      BINDING AFFINITY PREDICTED BY RF-SCORE:    0.00 PKD
ROOT
HETATM    1  C   UNL     1      -7.386  10.888  69.978  1.00  0.00     0.235 C  
HETATM    2  N   UNL     1      -6.970  11.435  68.676  1.00  0.00    -0.079 N  
HETATM    3  O   UNL     1      -5.840   9.513  68.300  1.00  0.00    -0.041 OA 
HETATM    4  C   UNL     1      -6.303  10.561  67.818  1.00  0.00    -0.059 C  
ENDROOT
BRANCH   2   5
HETATM    5  C   UNL     1      -7.675  12.591  68.288  1.00  0.00    -0.141 A  
HETATM    6  C   UNL     1      -9.429  14.189  68.215  1.00  0.00    -0.211 A  
HETATM    7  C   UNL     1      -7.042  13.412  67.340  1.00  0.00    -0.094 A  
HETATM    8  C   UNL     1      -8.949  12.962  68.758  1.00  0.00     0.175 A  
HETATM    9  C   UNL     1      -8.682  15.023  67.369  1.00  0.00    -0.194 A  
HETATM   10  N   UNL     1      -7.501  14.597  66.902  1.00  0.00     0.090 NA 
BRANCH   9  11
HETATM   11  N   UNL     1      -9.102  16.292  67.024  1.00  0.00    -0.201 NA 
HETATM   12  C   UNL     1      -8.391  17.047  65.977  1.00  0.00    -0.145 C  
HETATM   13  C   UNL     1      -9.563  18.426  68.231  1.00  0.00    -0.334 C  
HETATM   14  C   UNL     1      -7.964  18.461  66.448  1.00  0.00    -0.262 C  
HETATM   15  N   UNL     1      -9.002  19.254  67.145  1.00  0.00    -0.290 NA 
HETATM   16  C   UNL     1     -10.041  19.714  66.227  1.00  0.00    -0.480 C  
HETATM   17  C   UNL     1     -10.098  17.039  67.800  1.00  0.00    -0.302 C  
ENDBRANCH   9  11
BRANCH   8  18
HETATM   18  C   UNL     1      -9.785  12.294  69.843  1.00  0.00     2.334 A  
HETATM   19  C   UNL     1     -10.043  10.238  71.237  1.00  0.00     1.684 A  
HETATM   20  C   UNL     1     -11.154  10.761  71.866  1.00  0.00     3.185 A  
HETATM   21  C   UNL     1      -9.398  10.978  70.239  1.00  0.00     1.902 A  
HETATM   22  C   UNL     1     -11.588  12.027  71.506  1.00  0.00     2.212 A  
HETATM   23  C   UNL     1     -10.907  12.814  70.536  1.00  0.00     2.153 A  
HETATM   24  C   UNL     1     -11.501  14.177  70.341  1.00  0.00    -0.149 C  
ENDBRANCH   8  18
ENDBRANCH   2   5
BRANCH   4  25
HETATM   25  C   UNL     1      -6.153  10.768  66.257  1.00  0.00    -0.126 C  
HETATM   26  C   UNL     1      -5.537   9.424  65.786  1.00  0.00    -0.045 C  
HETATM   27  C   UNL     1      -5.262  11.876  65.684  1.00  0.00     1.375 C  
BRANCH  25  28
HETATM   28  C   UNL     1      -7.553  11.018  65.631  1.00  0.00     0.115 A  
HETATM   29  C   UNL     1      -9.261  12.593  64.832  1.00  0.00     0.696 A  
HETATM   30  C   UNL     1      -8.004  12.330  65.398  1.00  0.00     2.117 A  
HETATM   31  F   UNL     1     -11.722   9.388  63.735  1.00  0.00     6.539 F  
HETATM   32  C   UNL     1      -9.743  14.013  64.645  1.00  0.00     0.616 C  
HETATM   33  F   UNL     1     -10.753   8.169  65.252  1.00  0.00     2.104 F  
HETATM   34  C   UNL     1     -10.075  11.515  64.454  1.00  0.00    -0.328 A  
HETATM   35  F   UNL     1     -10.017  14.303  63.344  1.00  0.00     2.392 F  
HETATM   36  F   UNL     1      -8.842  14.952  65.053  1.00  0.00     0.853 F  
HETATM   37  F   UNL     1      -9.922   8.271  63.246  1.00  0.00     2.596 F  
HETATM   38  C   UNL     1     -10.504   9.023  64.221  1.00  0.00     4.686 C  
HETATM   39  C   UNL     1      -9.643  10.194  64.636  1.00  0.00    -0.379 A  
HETATM   40  F   UNL     1     -10.887  14.269  65.336  1.00  0.00    -0.294 F  
HETATM   41  C   UNL     1      -8.383   9.961  65.217  1.00  0.00    -0.153 A  
ENDBRANCH  25  28
ENDBRANCH   4  25
TORSDOF 5
ENDMDL
MODEL      303
REMARK 921   NORMALIZED FREE ENERGY PREDICTED BY IDOCK:   38.21 KCAL/MOL
REMARK 922        TOTAL FREE ENERGY PREDICTED BY IDOCK:   47.73 KCAL/MOL
REMARK 923 INTER-LIGAND FREE ENERGY PREDICTED BY IDOCK:    5.69 KCAL/MOL
REMARK 924 INTRA-LIGAND FREE ENERGY PREDICTED BY IDOCK:   42.04 KCAL/MOL
REMARK 927      BINDING AFFINITY PREDICTED BY RF-SCORE:    0.00 PKD
ROOT
HETATM    1  C   UNL     1     -11.158   8.566  69.750  1.00  0.00    -0.062 C  
HETATM    2  N   UNL     1     -10.318   9.187  68.712  1.00  0.00    -0.211 N  
HETATM    3  O   UNL     1      -9.898   7.118  67.903  1.00  0.00    -0.138 OA 
HETATM    4  C   UNL     1      -9.848   8.345  67.706  1.00  0.00    -0.174 C  
ENDROOT
BRANCH   2   5
HETATM    5  C   UNL     1     -10.468  10.585  68.612  1.00  0.00    -0.191 A  
HETATM    6  C   UNL     1      -9.849  12.858  68.331  1.00  0.00    -0.197 A  
HETATM    7  C   UNL     1     -11.777  11.076  68.745  1.00  0.00    -0.314 A  
HETATM    8  C   UNL     1      -9.420  11.502  68.413  1.00  0.00    -0.195 A  
HETATM    9  C   UNL     1     -11.192  13.263  68.342  1.00  0.00    -0.280 A  
HETATM   10  N   UNL     1     -12.148  12.360  68.596  1.00  0.00    -0.198 NA 
BRANCH   9  11
HETATM   11  N   UNL     1     -11.575  14.560  68.064  1.00  0.00    -0.320 NA 
HETATM   12  C   UNL     1     -10.633  15.484  67.408  1.00  0.00    -0.292 C  
HETATM   13  C   UNL     1     -12.530  16.471  69.352  1.00  0.00     1.538 C  
HETATM   14  C   UNL     1     -10.471  16.817  68.181  1.00  0.00    -0.332 C  
HETATM   15  N   UNL     1     -11.724  17.469  68.623  1.00  0.00     1.204 NA 
HETATM   16  C   UNL     1     -12.464  18.041  67.500  1.00  0.00     4.776 C  
HETATM   17  C   UNL     1     -12.810  15.155  68.586  1.00  0.00     1.116 C  
ENDBRANCH   9  11
BRANCH   8  18
HETATM   18  C   UNL     1      -7.948  11.209  68.149  1.00  0.00    -0.125 A  
HETATM   19  C   UNL     1      -6.130  11.292  66.439  1.00  0.00    -0.117 A  
HETATM   20  C   UNL     1      -5.218  10.767  67.330  1.00  0.00    -0.037 A  
HETATM   21  C   UNL     1      -7.459  11.481  66.836  1.00  0.00    -0.145 A  
HETATM   22  C   UNL     1      -5.642  10.462  68.614  1.00  0.00    -0.037 A  
HETATM   23  C   UNL     1      -6.975  10.705  69.049  1.00  0.00    -0.080 A  
HETATM   24  C   UNL     1      -7.209  10.365  70.491  1.00  0.00     0.294 C  
ENDBRANCH   8  18
ENDBRANCH   2   5
BRANCH   4  25
HETATM   25  C   UNL     1      -9.319   8.830  66.296  1.00  0.00    -0.283 C  
HETATM   26  C   UNL     1     -10.039   7.876  65.307  1.00  0.00     2.269 C  
HETATM   27  C   UNL     1      -7.828   8.772  65.944  1.00  0.00    -0.102 C  
BRANCH  25  28
HETATM   28  C   UNL     1      -9.725  10.314  66.074  1.00  0.00    -0.274 A  
HETATM   29  C   UNL     1      -9.250  12.705  66.382  1.00  0.00    -0.162 A  
HETATM   30  C   UNL     1      -8.917  11.354  66.568  1.00  0.00    -0.192 A  
HETATM   31  F   UNL     1     -12.713  13.681  64.242  1.00  0.00    -0.332 F  
HETATM   32  C   UNL     1      -8.394  13.800  66.972  1.00  0.00    -0.087 C  
HETATM   33  F   UNL     1     -13.574  11.774  64.830  1.00  0.00     0.505 F  
HETATM   34  C   UNL     1     -10.404  13.025  65.653  1.00  0.00    -0.294 A  
HETATM   35  F   UNL     1      -7.907  14.648  66.025  1.00  0.00     0.785 F  
HETATM   36  F   UNL     1      -7.305  13.335  67.649  1.00  0.00    -0.106 F  
HETATM   37  F   UNL     1     -12.371  11.912  63.026  1.00  0.00    -0.556 F  
HETATM   38  C   UNL     1     -12.453  12.347  64.314  1.00  0.00    -0.437 C  
HETATM   39  C   UNL     1     -11.214  12.016  65.113  1.00  0.00    -0.368 A  
HETATM   40  F   UNL     1      -9.078  14.577  67.856  1.00  0.00    -0.174 F  
HETATM   41  C   UNL     1     -10.861  10.670  65.325  1.00  0.00     0.020 A  
ENDBRANCH  25  28
ENDBRANCH   4  25
TORSDOF 5
ENDMDL
MODEL      304
REMARK 921   NORMALIZED FREE ENERGY PREDICTED BY IDOCK:   38.26 KCAL/MOL
REMARK 922        TOTAL FREE ENERGY PREDICTED BY IDOCK:   47.80 KCAL/MOL
REMARK 923 INTER-LIGAND FREE ENERGY PREDICTED BY IDOCK:   13.90 KCAL/MOL
REMARK 924 INTRA-LIGAND FREE ENERGY PREDICTED BY IDOCK:   33.90 KCAL/MOL
REMARK 927      BINDING AFFINITY PREDICTED BY RF-SCORE:    0.00 PKD
ROOT
HETATM    1  C   UNL     1      -8.771   8.175  66.939  1.00  0.00    -0.129 C  
HETATM    2  N   UNL     1      -8.823   9.557  66.435  1.00  0.00    -0.141 N  
HETATM    3  O   UNL     1      -8.669   8.730  64.336  1.00  0.00    -0.136 OA 
HETATM    4  C   UNL     1      -8.929   9.711  65.053  1.00  0.00    -0.212 C  
ENDROOT
BRANCH   2   5
HETATM    5  C   UNL     1      -9.208  10.507  67.401  1.00  0.00    -0.142 A  
HETATM    6  C   UNL     1     -10.054  11.356  69.450  1.00  0.00     0.147 A  
HETATM    7  C   UNL     1      -9.025  11.854  67.050  1.00  0.00    -0.190 A  
HETATM    8  C   UNL     1      -9.770  10.207  68.656  1.00  0.00    -0.167 A  
HETATM    9  C   UNL     1      -9.722  12.669  69.084  1.00  0.00     0.520 A  
HETATM   10  N   UNL     1      -9.246  12.908  67.855  1.00  0.00    -0.200 NA 
BRANCH   9  11
HETATM   11  N   UNL     1      -9.833  13.730  69.960  1.00  0.00     1.502 NA 
HETATM   12  C   UNL     1     -11.151  14.105  70.503  1.00  0.00     0.339 C  
HETATM   13  C   UNL     1      -9.160  16.132  69.974  1.00  0.00     0.764 C  
HETATM   14  C   UNL     1     -11.474  15.607  70.300  1.00  0.00    -0.349 C  
HETATM   15  N   UNL     1     -10.396  16.557  70.659  1.00  0.00     0.666 NA 
HETATM   16  C   UNL     1     -10.208  16.643  72.105  1.00  0.00     5.020 C  
HETATM   17  C   UNL     1      -8.733  14.665  70.223  1.00  0.00     1.314 C  
ENDBRANCH   9  11
BRANCH   8  18
HETATM   18  C   UNL     1      -9.976   8.838  69.294  1.00  0.00    -0.194 A  
HETATM   19  C   UNL     1      -8.861   6.986  70.545  1.00  0.00    -0.154 A  
HETATM   20  C   UNL     1     -10.032   6.259  70.583  1.00  0.00    -0.221 A  
HETATM   21  C   UNL     1      -8.836   8.227  69.896  1.00  0.00    -0.138 A  
HETATM   22  C   UNL     1     -11.168   6.794  69.995  1.00  0.00    -0.380 A  
HETATM   23  C   UNL     1     -11.170   8.079  69.384  1.00  0.00     0.206 A  
HETATM   24  C   UNL     1     -12.514   8.497  68.866  1.00  0.00     4.171 C  
ENDBRANCH   8  18
ENDBRANCH   2   5
BRANCH   4  25
HETATM   25  C   UNL     1      -9.427  11.025  64.327  1.00  0.00    -0.270 C  
HETATM   26  C   UNL     1     -10.235  10.473  63.122  1.00  0.00     0.059 C  
HETATM   27  C   UNL     1      -8.434  12.041  63.753  1.00  0.00     1.726 C  
BRANCH  25  28
HETATM   28  C   UNL     1     -10.321  11.846  65.299  1.00  0.00    -0.316 A  
HETATM   29  C   UNL     1     -11.491  13.938  65.839  1.00  0.00    -0.328 A  
HETATM   30  C   UNL     1     -10.683  13.169  64.987  1.00  0.00    -0.338 A  
HETATM   31  F   UNL     1     -12.926  12.236  69.384  1.00  0.00     0.388 F  
HETATM   32  C   UNL     1     -11.817  15.375  65.505  1.00  0.00     0.229 C  
HETATM   33  F   UNL     1     -11.208  10.904  69.401  1.00  0.00    -0.225 F  
HETATM   34  C   UNL     1     -11.979  13.358  67.018  1.00  0.00    -0.429 A  
HETATM   35  F   UNL     1     -13.157  15.593  65.398  1.00  0.00     0.970 F  
HETATM   36  F   UNL     1     -11.277  15.797  64.327  1.00  0.00    -0.378 F  
HETATM   37  F   UNL     1     -13.018  10.329  68.344  1.00  0.00     1.607 F  
HETATM   38  C   UNL     1     -12.201  11.387  68.605  1.00  0.00     0.032 C  
HETATM   39  C   UNL     1     -11.670  12.030  67.344  1.00  0.00    -0.352 A  
HETATM   40  F   UNL     1     -11.370  16.244  66.452  1.00  0.00    -0.048 F  
HETATM   41  C   UNL     1     -10.849  11.287  66.477  1.00  0.00    -0.319 A  
ENDBRANCH  25  28
ENDBRANCH   4  25
TORSDOF 5
ENDMDL
MODEL      305
REMARK 921   NORMALIZED FREE ENERGY PREDICTED BY IDOCK:   38.78 KCAL/MOL
REMARK 922        TOTAL FREE ENERGY PREDICTED BY IDOCK:   48.48 KCAL/MOL
REMARK 923 INTER-LIGAND FREE ENERGY PREDICTED BY IDOCK:   29.96 KCAL/MOL
REMARK 924 INTRA-LIGAND FREE ENERGY PREDICTED BY IDOCK:   18.52 KCAL/MOL
REMARK 927      BINDING AFFINITY PREDICTED BY RF-SCORE:    0.00 PKD
ROOT
HETATM    1  C   UNL     1      -7.632  15.846  73.012  1.00  0.00    11.467 C  
HETATM    2  N   UNL     1      -8.460  15.580  71.825  1.00  0.00     5.160 N  
HETATM    3  O   UNL     1     -10.018  14.675  73.192  1.00  0.00     4.173 OA 
HETATM    4  C   UNL     1      -9.754  15.117  72.060  1.00  0.00     3.991 C  
ENDROOT
BRANCH   2   5
HETATM    5  C   UNL     1      -8.021  16.237  70.659  1.00  0.00     3.028 A  
HETATM    6  C   UNL     1      -6.902  16.555  68.590  1.00  0.00    -0.160 A  
HETATM    7  C   UNL     1      -8.457  17.563  70.496  1.00  0.00     4.310 A  
HETATM    8  C   UNL     1      -7.180  15.679  69.679  1.00  0.00    -0.153 A  
HETATM    9  C   UNL     1      -7.480  17.823  68.431  1.00  0.00    -0.263 A  
HETATM   10  N   UNL     1      -8.225  18.335  69.420  1.00  0.00     0.272 NA 
BRANCH   9  11
HETATM   11  N   UNL     1      -7.340  18.558  67.270  1.00  0.00    -0.215 NA 
HETATM   12  C   UNL     1      -6.785  17.928  66.059  1.00  0.00    -0.295 C  
HETATM   13  C   UNL     1      -6.268  20.715  66.623  1.00  0.00    -0.222 C  
HETATM   14  C   UNL     1      -5.604  18.731  65.458  1.00  0.00    -0.184 C  
HETATM   15  N   UNL     1      -5.813  20.190  65.320  1.00  0.00    -0.179 NA 
HETATM   16  C   UNL     1      -6.760  20.504  64.253  1.00  0.00    -0.037 C  
HETATM   17  C   UNL     1      -7.510  20.015  67.225  1.00  0.00    -0.277 C  
ENDBRANCH   9  11
BRANCH   8  18
HETATM   18  C   UNL     1      -6.660  14.249  69.586  1.00  0.00    -0.137 A  
HETATM   19  C   UNL     1      -6.578  12.034  70.738  1.00  0.00     1.427 A  
HETATM   20  C   UNL     1      -5.826  11.491  69.717  1.00  0.00    -0.104 A  
HETATM   21  C   UNL     1      -6.959  13.380  70.679  1.00  0.00     1.540 A  
HETATM   22  C   UNL     1      -5.487  12.295  68.640  1.00  0.00    -0.053 A  
HETATM   23  C   UNL     1      -5.917  13.647  68.539  1.00  0.00    -0.092 A  
HETATM   24  C   UNL     1      -5.498  14.319  67.266  1.00  0.00     0.611 C  
ENDBRANCH   8  18
ENDBRANCH   2   5
BRANCH   4  25
HETATM   25  C   UNL     1     -10.939  15.178  71.014  1.00  0.00    -0.216 C  
HETATM   26  C   UNL     1     -12.000  16.047  71.739  1.00  0.00    -0.592 C  
HETATM   27  C   UNL     1     -11.662  13.906  70.557  1.00  0.00    -0.231 C  
BRANCH  25  28
HETATM   28  C   UNL     1     -10.438  15.845  69.702  1.00  0.00    -0.295 A  
HETATM   29  C   UNL     1      -9.377  15.637  67.495  1.00  0.00    -0.206 A  
HETATM   30  C   UNL     1      -9.838  15.069  68.693  1.00  0.00    -0.222 A  
HETATM   31  F   UNL     1      -9.854  19.749  66.865  1.00  0.00    -0.392 F  
HETATM   32  C   UNL     1      -8.687  14.789  66.454  1.00  0.00    -0.027 C  
HETATM   33  F   UNL     1      -9.829  20.048  69.017  1.00  0.00    -0.422 F  
HETATM   34  C   UNL     1      -9.552  17.012  67.285  1.00  0.00    -0.244 A  
HETATM   35  F   UNL     1      -9.327  14.815  65.252  1.00  0.00    -0.206 F  
HETATM   36  F   UNL     1      -8.595  13.472  66.797  1.00  0.00    -0.212 F  
HETATM   37  F   UNL     1     -11.704  19.632  68.000  1.00  0.00     0.260 F  
HETATM   38  C   UNL     1     -10.386  19.292  68.032  1.00  0.00    -0.405 C  
HETATM   39  C   UNL     1     -10.179  17.811  68.251  1.00  0.00    -0.382 A  
HETATM   40  F   UNL     1      -7.412  15.200  66.209  1.00  0.00     0.307 F  
HETATM   41  C   UNL     1     -10.620  17.216  69.448  1.00  0.00    -0.161 A  
ENDBRANCH  25  28
ENDBRANCH   4  25
TORSDOF 5
ENDMDL
MODEL      306
REMARK 921   NORMALIZED FREE ENERGY PREDICTED BY IDOCK:   40.19 KCAL/MOL
REMARK 922        TOTAL FREE ENERGY PREDICTED BY IDOCK:   50.30 KCAL/MOL
REMARK 923 INTER-LIGAND FREE ENERGY PREDICTED BY IDOCK:   42.59 KCAL/MOL
REMARK 924 INTRA-LIGAND FREE ENERGY PREDICTED BY IDOCK:    7.71 KCAL/MOL
REMARK 927      BINDING AFFINITY PREDICTED BY RF-SCORE:    0.00 PKD
ROOT
HETATM    1  C   UNL     1      -7.641   6.052  67.493  1.00  0.00    -0.090 C  
HETATM    2  N   UNL     1      -7.819   7.485  67.212  1.00  0.00    -0.115 N  
HETATM    3  O   UNL     1      -6.432   7.246  65.442  1.00  0.00    -0.043 OA 
HETATM    4  C   UNL     1      -7.272   7.958  66.019  1.00  0.00    -0.073 C  
ENDROOT
BRANCH   2   5
HETATM    5  C   UNL     1      -8.876   8.084  67.926  1.00  0.00    -0.130 A  
HETATM    6  C   UNL     1     -10.765   8.245  69.354  1.00  0.00    -0.160 A  
HETATM    7  C   UNL     1      -8.999   9.477  67.794  1.00  0.00    -0.122 A  
HETATM    8  C   UNL     1      -9.806   7.397  68.728  1.00  0.00    -0.164 A  
HETATM    9  C   UNL     1     -10.747   9.646  69.279  1.00  0.00    -0.226 A  
HETATM   10  N   UNL     1      -9.880  10.249  68.455  1.00  0.00    -0.152 NA 
BRANCH   9  11
HETATM   11  N   UNL     1     -11.569  10.437  70.055  1.00  0.00    -0.280 NA 
HETATM   12  C   UNL     1     -11.161  11.810  70.403  1.00  0.00     0.855 C  
HETATM   13  C   UNL     1     -12.703  10.230  72.268  1.00  0.00    -0.012 C  
HETATM   14  C   UNL     1     -11.225  12.083  71.927  1.00  0.00     5.576 C  
HETATM   15  N   UNL     1     -12.460  11.644  72.614  1.00  0.00     1.615 NA 
HETATM   16  C   UNL     1     -13.603  12.487  72.268  1.00  0.00    -0.342 C  
HETATM   17  C   UNL     1     -12.750   9.916  70.753  1.00  0.00    -0.224 C  
ENDBRANCH   9  11
BRANCH   8  18
HETATM   18  C   UNL     1      -9.821   5.918  69.097  1.00  0.00    -0.199 A  
HETATM   19  C   UNL     1     -10.366   3.622  68.281  1.00  0.00     1.194 A  
HETATM   20  C   UNL     1      -9.979   3.065  69.481  1.00  0.00     0.526 A  
HETATM   21  C   UNL     1     -10.310   5.011  68.110  1.00  0.00    -0.091 A  
HETATM   22  C   UNL     1      -9.516   3.901  70.485  1.00  0.00    -0.251 A  
HETATM   23  C   UNL     1      -9.398   5.307  70.305  1.00  0.00    -0.207 A  
HETATM   24  C   UNL     1      -8.816   6.020  71.489  1.00  0.00    -0.139 C  
ENDBRANCH   8  18
ENDBRANCH   2   5
BRANCH   4  25
HETATM   25  C   UNL     1      -7.692   9.305  65.304  1.00  0.00    -0.103 C  
HETATM   26  C   UNL     1      -7.038   9.174  63.903  1.00  0.00    -0.093 C  
HETATM   27  C   UNL     1      -7.259  10.667  65.857  1.00  0.00    -0.119 C  
BRANCH  25  28
HETATM   28  C   UNL     1      -9.242   9.383  65.218  1.00  0.00    -0.299 A  
HETATM   29  C   UNL     1     -11.440   8.407  65.721  1.00  0.00     6.077 A  
HETATM   30  C   UNL     1     -10.038   8.367  65.777  1.00  0.00     0.611 A  
HETATM   31  F   UNL     1     -13.322  11.674  63.901  1.00  0.00    -0.441 F  
HETATM   32  C   UNL     1     -12.268   7.274  66.280  1.00  0.00     7.042 C  
HETATM   33  F   UNL     1     -11.555  11.963  62.669  1.00  0.00     0.024 F  
HETATM   34  C   UNL     1     -12.065   9.510  65.122  1.00  0.00     9.772 A  
HETATM   35  F   UNL     1     -13.122   7.685  67.257  1.00  0.00     7.807 F  
HETATM   36  F   UNL     1     -11.522   6.276  66.834  1.00  0.00    -0.371 F  
HETATM   37  F   UNL     1     -11.690  12.918  64.617  1.00  0.00    -0.338 F  
HETATM   38  C   UNL     1     -11.964  11.762  63.952  1.00  0.00    -0.324 C  
HETATM   39  C   UNL     1     -11.305  10.560  64.588  1.00  0.00     1.465 A  
HETATM   40  F   UNL     1     -13.042   6.678  65.332  1.00  0.00     5.535 F  
HETATM   41  C   UNL     1      -9.901  10.487  64.648  1.00  0.00    -0.404 A  
ENDBRANCH  25  28
ENDBRANCH   4  25
TORSDOF 5
ENDMDL
MODEL      307
REMARK 921   NORMALIZED FREE ENERGY PREDICTED BY IDOCK:   42.79 KCAL/MOL
REMARK 922        TOTAL FREE ENERGY PREDICTED BY IDOCK:   53.66 KCAL/MOL
REMARK 923 INTER-LIGAND FREE ENERGY PREDICTED BY IDOCK:   15.48 KCAL/MOL
REMARK 924 INTRA-LIGAND FREE ENERGY PREDICTED BY IDOCK:   38.18 KCAL/MOL
REMARK 927      BINDING AFFINITY PREDICTED BY RF-SCORE:    0.00 PKD
ROOT
HETATM    1  C   UNL     1      -8.054   8.678  64.974  1.00  0.00    -0.143 C  
HETATM    2  N   UNL     1      -8.183   9.705  66.021  1.00  0.00    -0.118 N  
HETATM    3  O   UNL     1      -8.452  11.247  64.389  1.00  0.00     0.224 OA 
HETATM    4  C   UNL     1      -8.553  10.981  65.600  1.00  0.00    -0.130 C  
ENDROOT
BRANCH   2   5
HETATM    5  C   UNL     1      -8.360   9.184  67.318  1.00  0.00    -0.121 A  
HETATM    6  C   UNL     1      -9.347   8.856  69.452  1.00  0.00    -0.153 A  
HETATM    7  C   UNL     1      -7.408   8.241  67.740  1.00  0.00    -0.093 A  
HETATM    8  C   UNL     1      -9.389   9.548  68.206  1.00  0.00    -0.139 A  
HETATM    9  C   UNL     1      -8.439   7.829  69.754  1.00  0.00    -0.133 A  
HETATM   10  N   UNL     1      -7.442   7.562  68.901  1.00  0.00    -0.094 NA 
BRANCH   9  11
HETATM   11  N   UNL     1      -8.555   7.051  70.888  1.00  0.00    -0.138 NA 
HETATM   12  C   UNL     1      -7.527   6.042  71.200  1.00  0.00    -0.085 C  
HETATM   13  C   UNL     1     -10.295   5.566  71.883  1.00  0.00    -0.216 C  
HETATM   14  C   UNL     1      -8.130   4.637  71.455  1.00  0.00    -0.102 C  
HETATM   15  N   UNL     1      -9.300   4.587  72.361  1.00  0.00    -0.124 NA 
HETATM   16  C   UNL     1      -8.922   4.837  73.750  1.00  0.00    -0.106 C  
HETATM   17  C   UNL     1      -9.772   7.012  71.706  1.00  0.00    -0.158 C  
ENDBRANCH   9  11
BRANCH   8  18
HETATM   18  C   UNL     1     -10.578  10.465  67.947  1.00  0.00    -0.273 A  
HETATM   19  C   UNL     1     -11.961  12.321  68.887  1.00  0.00    -0.300 A  
HETATM   20  C   UNL     1     -12.764  12.337  67.767  1.00  0.00     2.072 A  
HETATM   21  C   UNL     1     -10.916  11.393  68.978  1.00  0.00    -0.288 A  
HETATM   22  C   UNL     1     -12.496  11.443  66.742  1.00  0.00     2.593 A  
HETATM   23  C   UNL     1     -11.402  10.536  66.795  1.00  0.00     0.267 A  
HETATM   24  C   UNL     1     -11.249   9.702  65.558  1.00  0.00     2.675 C  
ENDBRANCH   8  18
ENDBRANCH   2   5
BRANCH   4  25
HETATM   25  C   UNL     1      -9.164  12.100  66.536  1.00  0.00    -0.216 C  
HETATM   26  C   UNL     1     -10.638  11.647  66.705  1.00  0.00    -0.280 C  
HETATM   27  C   UNL     1      -9.211  13.567  66.095  1.00  0.00     0.006 C  
BRANCH  25  28
HETATM   28  C   UNL     1      -8.401  12.115  67.890  1.00  0.00    -0.161 A  
HETATM   29  C   UNL     1      -7.857  13.253  69.999  1.00  0.00     2.011 A  
HETATM   30  C   UNL     1      -8.529  13.207  68.767  1.00  0.00     0.142 A  
HETATM   31  F   UNL     1      -5.452  10.020  71.138  1.00  0.00    -0.055 F  
HETATM   32  C   UNL     1      -7.968  14.463  70.895  1.00  0.00     2.814 C  
HETATM   33  F   UNL     1      -5.139   9.556  69.038  1.00  0.00    -0.036 F  
HETATM   34  C   UNL     1      -7.064  12.161  70.380  1.00  0.00     1.814 A  
HETATM   35  F   UNL     1      -8.473  14.159  72.122  1.00  0.00     4.566 F  
HETATM   36  F   UNL     1      -8.777  15.440  70.394  1.00  0.00     0.084 F  
HETATM   37  F   UNL     1      -6.842   8.715  70.094  1.00  0.00    -0.037 F  
HETATM   38  C   UNL     1      -6.103   9.850  69.954  1.00  0.00    -0.048 C  
HETATM   39  C   UNL     1      -6.942  11.039  69.549  1.00  0.00    -0.126 A  
HETATM   40  F   UNL     1      -6.764  15.056  71.121  1.00  0.00     0.195 F  
HETATM   41  C   UNL     1      -7.618  11.026  68.315  1.00  0.00    -0.106 A  
ENDBRANCH  25  28
ENDBRANCH   4  25
TORSDOF 5
ENDMDL
MODEL      308
REMARK 921   NORMALIZED FREE ENERGY PREDICTED BY IDOCK:   44.06 KCAL/MOL
REMARK 922        TOTAL FREE ENERGY PREDICTED BY IDOCK:   55.30 KCAL/MOL
REMARK 923 INTER-LIGAND FREE ENERGY PREDICTED BY IDOCK:   13.92 KCAL/MOL
REMARK 924 INTRA-LIGAND FREE ENERGY PREDICTED BY IDOCK:   41.38 KCAL/MOL
REMARK 927      BINDING AFFINITY PREDICTED BY RF-SCORE:    0.00 PKD
ROOT
HETATM    1  C   UNL     1     -10.816  17.541  64.923  1.00  0.00     0.656 C  
HETATM    2  N   UNL     1      -9.578  17.103  65.588  1.00  0.00     0.051 N  
HETATM    3  O   UNL     1      -9.089  19.276  65.973  1.00  0.00    -0.433 OA 
HETATM    4  C   UNL     1      -8.840  18.088  66.242  1.00  0.00    -0.170 C  
ENDROOT
BRANCH   2   5
HETATM    5  C   UNL     1      -9.533  15.722  65.864  1.00  0.00    -0.342 A  
HETATM    6  C   UNL     1      -8.714  13.667  66.725  1.00  0.00    -0.101 A  
HETATM    7  C   UNL     1     -10.601  14.957  65.369  1.00  0.00    -0.373 A  
HETATM    8  C   UNL     1      -8.506  15.068  66.570  1.00  0.00    -0.093 A  
HETATM    9  C   UNL     1      -9.874  12.992  66.314  1.00  0.00    -0.278 A  
HETATM   10  N   UNL     1     -10.794  13.646  65.593  1.00  0.00    -0.275 NA 
BRANCH   9  11
HETATM   11  N   UNL     1     -10.124  11.678  66.656  1.00  0.00    -0.205 NA 
HETATM   12  C   UNL     1     -11.021  11.366  67.783  1.00  0.00    -0.247 C  
HETATM   13  C   UNL     1      -8.752   9.670  67.211  1.00  0.00    -0.132 C  
HETATM   14  C   UNL     1     -10.373  10.406  68.813  1.00  0.00    -0.196 C  
HETATM   15  N   UNL     1      -9.694   9.215  68.253  1.00  0.00    -0.151 NA 
HETATM   16  C   UNL     1     -10.649   8.242  67.728  1.00  0.00    -0.168 C  
HETATM   17  C   UNL     1      -9.368  10.552  66.098  1.00  0.00    -0.176 C  
ENDBRANCH   9  11
BRANCH   8  18
HETATM   18  C   UNL     1      -7.306  15.687  67.277  1.00  0.00    -0.255 A  
HETATM   19  C   UNL     1      -6.148  15.944  69.475  1.00  0.00    -0.152 A  
HETATM   20  C   UNL     1      -5.159  16.717  68.904  1.00  0.00    -0.124 A  
HETATM   21  C   UNL     1      -7.200  15.467  68.683  1.00  0.00    -0.123 A  
HETATM   22  C   UNL     1      -5.222  16.982  67.545  1.00  0.00    -0.140 A  
HETATM   23  C   UNL     1      -6.253  16.455  66.718  1.00  0.00     0.032 A  
HETATM   24  C   UNL     1      -6.101  16.806  65.268  1.00  0.00     3.176 C  
ENDBRANCH   8  18
ENDBRANCH   2   5
BRANCH   4  25
HETATM   25  C   UNL     1      -7.754  17.812  67.359  1.00  0.00    -0.214 C  
HETATM   26  C   UNL     1      -6.675  18.889  67.069  1.00  0.00    -0.204 C  
HETATM   27  C   UNL     1      -7.017  16.471  67.436  1.00  0.00    -0.186 C  
BRANCH  25  28
HETATM   28  C   UNL     1      -8.398  17.995  68.762  1.00  0.00    -0.223 A  
HETATM   29  C   UNL     1      -8.523  19.221  70.888  1.00  0.00     3.250 A  
HETATM   30  C   UNL     1      -7.962  19.025  69.616  1.00  0.00     0.408 A  
HETATM   31  F   UNL     1     -11.628  16.720  72.163  1.00  0.00    -0.519 F  
HETATM   32  C   UNL     1      -7.996  20.299  71.806  1.00  0.00     2.067 C  
HETATM   33  F   UNL     1     -10.864  15.160  70.855  1.00  0.00    -0.317 F  
HETATM   34  C   UNL     1      -9.571  18.388  71.304  1.00  0.00     5.455 A  
HETATM   35  F   UNL     1      -8.956  21.200  72.155  1.00  0.00     0.736 F  
HETATM   36  F   UNL     1      -6.981  21.029  71.262  1.00  0.00     0.734 F  
HETATM   37  F   UNL     1     -12.291  16.613  70.095  1.00  0.00     0.312 F  
HETATM   38  C   UNL     1     -11.196  16.480  70.894  1.00  0.00    -0.001 C  
HETATM   39  C   UNL     1     -10.057  17.375  70.465  1.00  0.00     1.860 A  
HETATM   40  F   UNL     1      -7.510  19.797  72.974  1.00  0.00     1.061 F  
HETATM   41  C   UNL     1      -9.468  17.195  69.200  1.00  0.00    -0.085 A  
ENDBRANCH  25  28
ENDBRANCH   4  25
TORSDOF 5
ENDMDL
MODEL      309
REMARK 921   NORMALIZED FREE ENERGY PREDICTED BY IDOCK:   46.12 KCAL/MOL
REMARK 922        TOTAL FREE ENERGY PREDICTED BY IDOCK:   57.96 KCAL/MOL
REMARK 923 INTER-LIGAND FREE ENERGY PREDICTED BY IDOCK:   25.66 KCAL/MOL
REMARK 924 INTRA-LIGAND FREE ENERGY PREDICTED BY IDOCK:   32.30 KCAL/MOL
REMARK 927      BINDING AFFINITY PREDICTED BY RF-SCORE:    0.00 PKD
ROOT
HETATM    1  C   UNL     1     -10.124  14.534  72.075  1.00  0.00     4.204 C  
HETATM    2  N   UNL     1     -10.098  14.604  70.605  1.00  0.00     0.811 N  
HETATM    3  O   UNL     1      -9.802  16.839  70.780  1.00  0.00     1.832 OA 
HETATM    4  C   UNL     1      -9.758  15.836  70.047  1.00  0.00     0.048 C  
ENDROOT
BRANCH   2   5
HETATM    5  C   UNL     1      -9.973  13.352  69.973  1.00  0.00     2.150 A  
HETATM    6  C   UNL     1      -9.058  11.663  68.579  1.00  0.00    -0.157 A  
HETATM    7  C   UNL     1     -10.959  12.401  70.284  1.00  0.00     1.183 A  
HETATM    8  C   UNL     1      -8.962  13.001  69.058  1.00  0.00     0.492 A  
HETATM    9  C   UNL     1      -9.999  10.726  69.035  1.00  0.00    -0.199 A  
HETATM   10  N   UNL     1     -10.976  11.126  69.859  1.00  0.00    -0.165 NA 
BRANCH   9  11
HETATM   11  N   UNL     1      -9.936   9.391  68.694  1.00  0.00    -0.167 NA 
HETATM   12  C   UNL     1     -11.168   8.655  68.358  1.00  0.00     0.548 C  
HETATM   13  C   UNL     1      -8.990   7.316  69.707  1.00  0.00    -0.142 C  
HETATM   14  C   UNL     1     -11.326   7.351  69.180  1.00  0.00     0.292 C  
HETATM   15  N   UNL     1     -10.127   6.486  69.264  1.00  0.00    -0.163 NA 
HETATM   16  C   UNL     1      -9.846   5.823  67.993  1.00  0.00    -0.131 C  
HETATM   17  C   UNL     1      -8.722   8.583  68.858  1.00  0.00    -0.131 C  
ENDBRANCH   9  11
BRANCH   8  18
HETATM   18  C   UNL     1      -7.745  13.817  68.640  1.00  0.00    -0.120 A  
HETATM   19  C   UNL     1      -6.905  15.556  67.056  1.00  0.00     0.061 A  
HETATM   20  C   UNL     1      -5.643  15.501  67.609  1.00  0.00    -0.101 A  
HETATM   21  C   UNL     1      -7.914  14.718  67.547  1.00  0.00    -0.207 A  
HETATM   22  C   UNL     1      -5.414  14.627  68.661  1.00  0.00    -0.094 A  
HETATM   23  C   UNL     1      -6.445  13.814  69.207  1.00  0.00    -0.112 A  
HETATM   24  C   UNL     1      -6.004  12.990  70.380  1.00  0.00    -0.111 C  
ENDBRANCH   8  18
ENDBRANCH   2   5
BRANCH   4  25
HETATM   25  C   UNL     1      -9.248  16.045  68.564  1.00  0.00    -0.206 C  
HETATM   26  C   UNL     1      -7.719  15.815  68.686  1.00  0.00    -0.153 C  
HETATM   27  C   UNL     1      -9.428  17.386  67.844  1.00  0.00    -0.265 C  
BRANCH  25  28
HETATM   28  C   UNL     1      -9.923  14.999  67.633  1.00  0.00    -0.225 A  
HETATM   29  C   UNL     1     -11.967  13.980  66.727  1.00  0.00    -0.473 A  
HETATM   30  C   UNL     1     -11.325  14.910  67.560  1.00  0.00    -0.351 A  
HETATM   31  F   UNL     1      -9.656  11.436  64.337  1.00  0.00    -0.235 F  
HETATM   32  C   UNL     1     -13.473  13.869  66.711  1.00  0.00     3.490 C  
HETATM   33  F   UNL     1      -8.038  11.607  65.778  1.00  0.00     0.007 F  
HETATM   34  C   UNL     1     -11.187  13.140  65.919  1.00  0.00    -0.311 A  
HETATM   35  F   UNL     1     -13.999  14.093  65.475  1.00  0.00     0.171 F  
HETATM   36  F   UNL     1     -14.094  14.753  67.544  1.00  0.00     5.554 F  
HETATM   37  F   UNL     1      -8.205  13.045  64.158  1.00  0.00     3.544 F  
HETATM   38  C   UNL     1      -8.936  12.337  65.062  1.00  0.00     0.778 C  
HETATM   39  C   UNL     1      -9.788  13.226  65.937  1.00  0.00    -0.241 A  
HETATM   40  F   UNL     1     -13.908  12.636  67.086  1.00  0.00     5.236 F  
HETATM   41  C   UNL     1      -9.172  14.160  66.791  1.00  0.00    -0.282 A  
ENDBRANCH  25  28
ENDBRANCH   4  25
TORSDOF 5
ENDMDL
MODEL      310
REMARK 921   NORMALIZED FREE ENERGY PREDICTED BY IDOCK:   47.84 KCAL/MOL
REMARK 922        TOTAL FREE ENERGY PREDICTED BY IDOCK:   60.19 KCAL/MOL
REMARK 923 INTER-LIGAND FREE ENERGY PREDICTED BY IDOCK:   29.19 KCAL/MOL
REMARK 924 INTRA-LIGAND FREE ENERGY PREDICTED BY IDOCK:   31.00 KCAL/MOL
REMARK 927      BINDING AFFINITY PREDICTED BY RF-SCORE:    0.00 PKD
ROOT
HETATM    1  C   UNL     1      -9.539   8.431  71.863  1.00  0.00    -0.254 C  
HETATM    2  N   UNL     1      -9.170   9.115  70.613  1.00  0.00    -0.238 N  
HETATM    3  O   UNL     1      -8.165   7.205  69.937  1.00  0.00    -0.129 OA 
HETATM    4  C   UNL     1      -8.601   8.325  69.616  1.00  0.00    -0.129 C  
ENDROOT
BRANCH   2   5
HETATM    5  C   UNL     1      -9.835  10.341  70.412  1.00  0.00     0.316 A  
HETATM    6  C   UNL     1     -11.078  12.021  69.287  1.00  0.00    -0.246 A  
HETATM    7  C   UNL     1      -9.839  11.227  71.501  1.00  0.00     8.608 A  
HETATM    8  C   UNL     1     -10.465  10.737  69.217  1.00  0.00    -0.243 A  
HETATM    9  C   UNL     1     -11.154  12.797  70.454  1.00  0.00     1.197 A  
HETATM   10  N   UNL     1     -10.487  12.405  71.547  1.00  0.00     7.310 NA 
BRANCH   9  11
HETATM   11  N   UNL     1     -11.924  13.940  70.532  1.00  0.00    -0.328 NA 
HETATM   12  C   UNL     1     -11.997  14.696  71.794  1.00  0.00    -0.285 C  
HETATM   13  C   UNL     1     -14.292  14.552  70.044  1.00  0.00     3.257 C  
HETATM   14  C   UNL     1     -13.456  14.953  72.251  1.00  0.00    -0.409 C  
HETATM   15  N   UNL     1     -14.384  15.450  71.212  1.00  0.00    -0.519 NA 
HETATM   16  C   UNL     1     -14.100  16.837  70.848  1.00  0.00     7.100 C  
HETATM   17  C   UNL     1     -12.866  14.339  69.481  1.00  0.00     0.426 C  
ENDBRANCH   9  11
BRANCH   8  18
HETATM   18  C   UNL     1     -10.673   9.922  67.946  1.00  0.00    -0.316 A  
HETATM   19  C   UNL     1     -10.822   7.611  67.010  1.00  0.00    -0.219 A  
HETATM   20  C   UNL     1     -11.029   8.101  65.738  1.00  0.00     3.642 A  
HETATM   21  C   UNL     1     -10.625   8.501  68.073  1.00  0.00    -0.197 A  
HETATM   22  C   UNL     1     -11.063   9.474  65.551  1.00  0.00     2.508 A  
HETATM   23  C   UNL     1     -10.924  10.389  66.631  1.00  0.00    -0.067 A  
HETATM   24  C   UNL     1     -11.056  11.826  66.223  1.00  0.00    -0.364 C  
ENDBRANCH   8  18
ENDBRANCH   2   5
BRANCH   4  25
HETATM   25  C   UNL     1      -8.529   8.715  68.084  1.00  0.00    -0.131 C  
HETATM   26  C   UNL     1      -7.684  10.017  68.095  1.00  0.00    -0.085 C  
HETATM   27  C   UNL     1      -9.798   9.030  67.284  1.00  0.00    -0.252 C  
BRANCH  25  28
HETATM   28  C   UNL     1      -7.831   7.575  67.292  1.00  0.00    -0.118 A  
HETATM   29  C   UNL     1      -6.859   6.746  65.193  1.00  0.00    -0.051 A  
HETATM   30  C   UNL     1      -7.492   7.753  65.938  1.00  0.00    -0.081 A  
HETATM   31  F   UNL     1      -5.880   3.128  67.059  1.00  0.00    -0.020 F  
HETATM   32  C   UNL     1      -6.558   6.944  63.726  1.00  0.00    -0.043 C  
HETATM   33  F   UNL     1      -7.514   3.446  68.457  1.00  0.00    -0.050 F  
HETATM   34  C   UNL     1      -6.522   5.542  65.827  1.00  0.00    -0.040 A  
HETATM   35  F   UNL     1      -5.229   6.836  63.447  1.00  0.00    -0.024 F  
HETATM   36  F   UNL     1      -6.938   8.164  63.252  1.00  0.00    -0.080 F  
HETATM   37  F   UNL     1      -5.542   4.250  68.890  1.00  0.00    -0.013 F  
HETATM   38  C   UNL     1      -6.439   4.055  67.885  1.00  0.00    -0.038 C  
HETATM   39  C   UNL     1      -6.809   5.342  67.185  1.00  0.00    -0.063 A  
HETATM   40  F   UNL     1      -7.182   6.027  62.938  1.00  0.00    -0.044 F  
HETATM   41  C   UNL     1      -7.456   6.365  67.904  1.00  0.00    -0.094 A  
ENDBRANCH  25  28
ENDBRANCH   4  25
TORSDOF 5
ENDMDL
MODEL      311
REMARK 921   NORMALIZED FREE ENERGY PREDICTED BY IDOCK:   56.78 KCAL/MOL
REMARK 922        TOTAL FREE ENERGY PREDICTED BY IDOCK:   71.74 KCAL/MOL
REMARK 923 INTER-LIGAND FREE ENERGY PREDICTED BY IDOCK:   27.86 KCAL/MOL
REMARK 924 INTRA-LIGAND FREE ENERGY PREDICTED BY IDOCK:   43.87 KCAL/MOL
REMARK 927      BINDING AFFINITY PREDICTED BY RF-SCORE:    0.00 PKD
ROOT
HETATM    1  C   UNL     1      -8.999  11.445  71.483  1.00  0.00    11.299 C  
HETATM    2  N   UNL     1      -9.342  11.214  70.071  1.00  0.00     1.192 N  
HETATM    3  O   UNL     1      -9.444  13.456  69.793  1.00  0.00     1.339 OA 
HETATM    4  C   UNL     1      -9.387  12.339  69.249  1.00  0.00     0.832 C  
ENDROOT
BRANCH   2   5
HETATM    5  C   UNL     1      -9.137   9.888  69.640  1.00  0.00    -0.227 A  
HETATM    6  C   UNL     1      -8.467   7.613  69.734  1.00  0.00    -0.134 A  
HETATM    7  C   UNL     1      -9.557   9.592  68.333  1.00  0.00    -0.142 A  
HETATM    8  C   UNL     1      -8.537   8.870  70.403  1.00  0.00    -0.198 A  
HETATM    9  C   UNL     1      -9.027   7.358  68.473  1.00  0.00    -0.128 A  
HETATM   10  N   UNL     1      -9.532   8.375  67.762  1.00  0.00    -0.147 NA 
BRANCH   9  11
HETATM   11  N   UNL     1      -9.111   6.086  67.946  1.00  0.00    -0.118 NA 
HETATM   12  C   UNL     1      -7.912   5.436  67.389  1.00  0.00    -0.101 C  
HETATM   13  C   UNL     1     -10.514   4.935  66.234  1.00  0.00    -0.304 C  
HETATM   14  C   UNL     1      -8.136   4.906  65.950  1.00  0.00    -0.108 C  
HETATM   15  N   UNL     1      -9.381   4.136  65.728  1.00  0.00    -0.150 NA 
HETATM   16  C   UNL     1      -9.326   2.819  66.360  1.00  0.00    -0.010 C  
HETATM   17  C   UNL     1     -10.389   5.408  67.703  1.00  0.00    -0.177 C  
ENDBRANCH   9  11
BRANCH   8  18
HETATM   18  C   UNL     1      -8.092   8.921  71.860  1.00  0.00     0.005 A  
HETATM   19  C   UNL     1      -6.254   9.611  73.404  1.00  0.00     0.702 A  
HETATM   20  C   UNL     1      -6.959   9.162  74.501  1.00  0.00     0.161 A  
HETATM   21  C   UNL     1      -6.800   9.468  72.123  1.00  0.00     0.674 A  
HETATM   22  C   UNL     1      -8.211   8.601  74.304  1.00  0.00     0.160 A  
HETATM   23  C   UNL     1      -8.803   8.504  73.014  1.00  0.00    -0.124 A  
HETATM   24  C   UNL     1     -10.186   7.926  73.028  1.00  0.00    -0.394 C  
ENDBRANCH   8  18
ENDBRANCH   2   5
BRANCH   4  25
HETATM   25  C   UNL     1      -9.300  12.309  67.670  1.00  0.00    -0.186 C  
HETATM   26  C   UNL     1      -7.999  13.103  67.377  1.00  0.00    -0.174 C  
HETATM   27  C   UNL     1     -10.395  12.937  66.801  1.00  0.00    -0.250 C  
BRANCH  25  28
HETATM   28  C   UNL     1      -9.202  10.835  67.186  1.00  0.00    -0.160 A  
HETATM   29  C   UNL     1      -7.823   8.888  66.600  1.00  0.00    -0.100 A  
HETATM   30  C   UNL     1      -7.948  10.218  67.031  1.00  0.00    -0.111 A  
HETATM   31  F   UNL     1     -11.278   6.660  65.811  1.00  0.00     1.035 F  
HETATM   32  C   UNL     1      -6.461   8.269  66.389  1.00  0.00    -0.054 C  
HETATM   33  F   UNL     1     -12.328   8.509  65.362  1.00  0.00     8.840 F  
HETATM   34  C   UNL     1      -8.984   8.143  66.350  1.00  0.00    -0.207 A  
HETATM   35  F   UNL     1      -6.264   7.165  67.161  1.00  0.00    -0.040 F  
HETATM   36  F   UNL     1      -5.429   9.112  66.676  1.00  0.00    -0.037 F  
HETATM   37  F   UNL     1     -12.264   7.764  67.403  1.00  0.00     2.227 F  
HETATM   38  C   UNL     1     -11.512   7.917  66.277  1.00  0.00     3.810 C  
HETATM   39  C   UNL     1     -10.253   8.712  66.529  1.00  0.00    -0.295 A  
HETATM   40  F   UNL     1      -6.265   7.867  65.103  1.00  0.00    -0.040 F  
HETATM   41  C   UNL     1     -10.347  10.051  66.952  1.00  0.00    -0.297 A  
ENDBRANCH  25  28
ENDBRANCH   4  25
TORSDOF 5
ENDMDL
MODEL      312
REMARK 921   NORMALIZED FREE ENERGY PREDICTED BY IDOCK:   61.25 KCAL/MOL
REMARK 922        TOTAL FREE ENERGY PREDICTED BY IDOCK:   77.51 KCAL/MOL
REMARK 923 INTER-LIGAND FREE ENERGY PREDICTED BY IDOCK:   70.41 KCAL/MOL
REMARK 924 INTRA-LIGAND FREE ENERGY PREDICTED BY IDOCK:    7.10 KCAL/MOL
REMARK 927      BINDING AFFINITY PREDICTED BY RF-SCORE:    0.00 PKD
ROOT
HETATM    1  C   UNL     1      -8.079   6.161  67.132  1.00  0.00    -0.106 C  
HETATM    2  N   UNL     1      -8.015   7.447  66.419  1.00  0.00    -0.105 N  
HETATM    3  O   UNL     1      -6.800   6.423  64.810  1.00  0.00    -0.047 OA 
HETATM    4  C   UNL     1      -7.464   7.422  65.139  1.00  0.00    -0.086 C  
ENDROOT
BRANCH   2   5
HETATM    5  C   UNL     1      -8.904   8.422  66.913  1.00  0.00    -0.142 A  
HETATM    6  C   UNL     1     -10.465   9.450  68.376  1.00  0.00    -0.256 A  
HETATM    7  C   UNL     1      -9.049   9.579  66.130  1.00  0.00    -0.166 A  
HETATM    8  C   UNL     1      -9.654   8.311  68.098  1.00  0.00    -0.163 A  
HETATM    9  C   UNL     1     -10.460  10.627  67.613  1.00  0.00    -0.227 A  
HETATM   10  N   UNL     1      -9.777  10.660  66.461  1.00  0.00    -0.187 NA 
BRANCH   9  11
HETATM   11  N   UNL     1     -11.106  11.776  68.022  1.00  0.00    -0.225 NA 
HETATM   12  C   UNL     1     -10.669  13.090  67.519  1.00  0.00    -0.238 C  
HETATM   13  C   UNL     1     -11.701  12.826  70.205  1.00  0.00    -0.107 C  
HETATM   14  C   UNL     1     -10.393  14.103  68.659  1.00  0.00    -0.243 C  
HETATM   15  N   UNL     1     -11.427  14.191  69.714  1.00  0.00    -0.264 NA 
HETATM   16  C   UNL     1     -12.642  14.843  69.231  1.00  0.00     0.129 C  
HETATM   17  C   UNL     1     -12.082  11.792  69.118  1.00  0.00    -0.228 C  
ENDBRANCH   9  11
BRANCH   8  18
HETATM   18  C   UNL     1      -9.598   7.210  69.150  1.00  0.00    -0.154 A  
HETATM   19  C   UNL     1     -10.262   4.860  69.675  1.00  0.00    -0.265 A  
HETATM   20  C   UNL     1      -9.671   4.933  70.919  1.00  0.00    -0.264 A  
HETATM   21  C   UNL     1     -10.243   5.978  68.831  1.00  0.00    -0.246 A  
HETATM   22  C   UNL     1      -9.047   6.114  71.291  1.00  0.00    -0.147 A  
HETATM   23  C   UNL     1      -8.970   7.236  70.421  1.00  0.00    -0.151 A  
HETATM   24  C   UNL     1      -8.197   8.388  70.991  1.00  0.00    -0.145 C  
ENDBRANCH   8  18
ENDBRANCH   2   5
BRANCH   4  25
HETATM   25  C   UNL     1      -7.679   8.540  64.041  1.00  0.00    -0.137 C  
HETATM   26  C   UNL     1      -7.093   7.888  62.760  1.00  0.00    -0.087 C  
HETATM   27  C   UNL     1      -7.016   9.916  64.167  1.00  0.00    -0.128 C  
BRANCH  25  28
HETATM   28  C   UNL     1      -9.197   8.840  63.898  1.00  0.00     0.729 A  
HETATM   29  C   UNL     1     -11.512   8.025  63.781  1.00  0.00    19.182 A  
HETATM   30  C   UNL     1     -10.134   7.790  63.904  1.00  0.00     6.447 A  
HETATM   31  F   UNL     1     -12.897  11.963  63.457  1.00  0.00    -0.637 F  
HETATM   32  C   UNL     1     -12.490   6.874  63.733  1.00  0.00    17.918 C  
HETATM   33  F   UNL     1     -10.984  12.528  62.592  1.00  0.00    -0.030 F  
HETATM   34  C   UNL     1     -11.970   9.347  63.686  1.00  0.00    12.677 A  
HETATM   35  F   UNL     1     -13.410   6.931  64.734  1.00  0.00     8.278 F  
HETATM   36  F   UNL     1     -11.898   5.651  63.841  1.00  0.00     3.243 F  
HETATM   37  F   UNL     1     -11.256  12.567  64.748  1.00  0.00    -0.310 F  
HETATM   38  C   UNL     1     -11.550  11.851  63.628  1.00  0.00    -0.464 C  
HETATM   39  C   UNL     1     -11.070  10.421  63.715  1.00  0.00     1.811 A  
HETATM   40  F   UNL     1     -13.200   6.843  62.572  1.00  0.00     6.153 F  
HETATM   41  C   UNL     1      -9.693  10.155  63.827  1.00  0.00    -0.203 A  
ENDBRANCH  25  28
ENDBRANCH   4  25
TORSDOF 5
ENDMDL
MODEL      313
REMARK 921   NORMALIZED FREE ENERGY PREDICTED BY IDOCK:   70.49 KCAL/MOL
REMARK 922        TOTAL FREE ENERGY PREDICTED BY IDOCK:   89.45 KCAL/MOL
REMARK 923 INTER-LIGAND FREE ENERGY PREDICTED BY IDOCK:    4.13 KCAL/MOL
REMARK 924 INTRA-LIGAND FREE ENERGY PREDICTED BY IDOCK:   85.32 KCAL/MOL
REMARK 927      BINDING AFFINITY PREDICTED BY RF-SCORE:    0.00 PKD
ROOT
HETATM    1  C   UNL     1     -11.189   9.623  68.626  1.00  0.00     0.046 C  
HETATM    2  N   UNL     1     -10.099   8.698  68.273  1.00  0.00    -0.185 N  
HETATM    3  O   UNL     1      -9.239  10.318  66.950  1.00  0.00    -0.148 OA 
HETATM    4  C   UNL     1      -9.052   9.230  67.521  1.00  0.00    -0.120 C  
ENDROOT
BRANCH   2   5
HETATM    5  C   UNL     1     -10.025   7.557  69.095  1.00  0.00    -0.179 A  
HETATM    6  C   UNL     1      -9.984   5.259  69.686  1.00  0.00    -0.302 A  
HETATM    7  C   UNL     1      -9.879   7.796  70.471  1.00  0.00    -0.182 A  
HETATM    8  C   UNL     1     -10.105   6.226  68.646  1.00  0.00    -0.185 A  
HETATM    9  C   UNL     1      -9.709   5.571  71.026  1.00  0.00    -0.175 A  
HETATM   10  N   UNL     1      -9.703   6.853  71.414  1.00  0.00    -0.174 NA 
BRANCH   9  11
HETATM   11  N   UNL     1      -9.405   4.603  71.962  1.00  0.00    -0.135 NA 
HETATM   12  C   UNL     1      -9.200   3.206  71.540  1.00  0.00    -0.118 C  
HETATM   13  C   UNL     1     -10.395   3.797  74.105  1.00  0.00    -0.191 C  
HETATM   14  C   UNL     1     -10.073   2.207  72.343  1.00  0.00    -0.157 C  
HETATM   15  N   UNL     1     -10.079   2.385  73.812  1.00  0.00    -0.101 NA 
HETATM   16  C   UNL     1      -8.809   1.982  74.413  1.00  0.00    -0.061 C  
HETATM   17  C   UNL     1      -9.488   4.839  73.407  1.00  0.00    -0.122 C  
ENDBRANCH   9  11
BRANCH   8  18
HETATM   18  C   UNL     1     -10.168   5.717  67.211  1.00  0.00    -0.248 A  
HETATM   19  C   UNL     1      -9.062   4.248  65.521  1.00  0.00    -0.138 A  
HETATM   20  C   UNL     1     -10.002   4.577  64.567  1.00  0.00     0.036 A  
HETATM   21  C   UNL     1      -9.135   4.825  66.795  1.00  0.00    -0.117 A  
HETATM   22  C   UNL     1     -11.017   5.457  64.909  1.00  0.00     1.784 A  
HETATM   23  C   UNL     1     -11.137   6.004  66.216  1.00  0.00     0.361 A  
HETATM   24  C   UNL     1     -12.341   6.881  66.395  1.00  0.00     6.332 C  
ENDBRANCH   8  18
ENDBRANCH   2   5
BRANCH   4  25
HETATM   25  C   UNL     1      -7.612   8.587  67.397  1.00  0.00    -0.097 C  
HETATM   26  C   UNL     1      -6.763   9.440  68.377  1.00  0.00    -0.058 C  
HETATM   27  C   UNL     1      -6.856   8.581  66.064  1.00  0.00    -0.061 C  
BRANCH  25  28
HETATM   28  C   UNL     1      -7.673   7.094  67.828  1.00  0.00    -0.112 A  
HETATM   29  C   UNL     1      -7.467   4.715  67.248  1.00  0.00    -0.085 A  
HETATM   30  C   UNL     1      -7.423   6.073  66.893  1.00  0.00    -0.084 A  
HETATM   31  F   UNL     1      -8.297   3.662  71.214  1.00  0.00    -0.064 F  
HETATM   32  C   UNL     1      -7.249   3.639  66.211  1.00  0.00    -0.064 C  
HETATM   33  F   UNL     1      -9.397   5.523  71.442  1.00  0.00    -0.150 F  
HETATM   34  C   UNL     1      -7.732   4.370  68.580  1.00  0.00    -0.071 A  
HETATM   35  F   UNL     1      -6.197   2.830  66.512  1.00  0.00    -0.022 F  
HETATM   36  F   UNL     1      -6.998   4.128  64.963  1.00  0.00    -0.052 F  
HETATM   37  F   UNL     1      -7.260   5.469  71.833  1.00  0.00    -0.075 F  
HETATM   38  C   UNL     1      -8.223   5.004  70.990  1.00  0.00    -0.109 C  
HETATM   39  C   UNL     1      -7.949   5.361  69.548  1.00  0.00    -0.089 A  
HETATM   40  F   UNL     1      -8.327   2.818  66.079  1.00  0.00    -0.084 F  
HETATM   41  C   UNL     1      -7.911   6.713  69.161  1.00  0.00    -0.112 A  
ENDBRANCH  25  28
ENDBRANCH   4  25
TORSDOF 5
ENDMDL
MODEL      314
REMARK 921   NORMALIZED FREE ENERGY PREDICTED BY IDOCK:   79.94 KCAL/MOL
REMARK 922        TOTAL FREE ENERGY PREDICTED BY IDOCK:  101.67 KCAL/MOL
REMARK 923 INTER-LIGAND FREE ENERGY PREDICTED BY IDOCK:   95.59 KCAL/MOL
REMARK 924 INTRA-LIGAND FREE ENERGY PREDICTED BY IDOCK:    6.08 KCAL/MOL
REMARK 927      BINDING AFFINITY PREDICTED BY RF-SCORE:    0.00 PKD
ROOT
HETATM    1  C   UNL     1      -9.707   8.344  73.326  1.00  0.00     0.115 C  
HETATM    2  N   UNL     1     -10.195   9.007  72.106  1.00  0.00    -0.225 N  
HETATM    3  O   UNL     1     -12.117   7.834  72.313  1.00  0.00    -0.311 OA 
HETATM    4  C   UNL     1     -11.529   8.785  71.769  1.00  0.00    -0.342 C  
ENDROOT
BRANCH   2   5
HETATM    5  C   UNL     1      -9.416  10.109  71.701  1.00  0.00     3.346 A  
HETATM    6  C   UNL     1      -7.667  11.304  70.630  1.00  0.00     3.090 A  
HETATM    7  C   UNL     1      -9.845  11.368  72.153  1.00  0.00    13.915 A  
HETATM    8  C   UNL     1      -8.255  10.036  70.909  1.00  0.00     0.966 A  
HETATM    9  C   UNL     1      -8.227  12.534  71.009  1.00  0.00     9.408 A  
HETATM   10  N   UNL     1      -9.298  12.548  71.813  1.00  0.00    16.241 NA 
BRANCH   9  11
HETATM   11  N   UNL     1      -7.736  13.740  70.553  1.00  0.00     1.988 NA 
HETATM   12  C   UNL     1      -8.652  14.871  70.321  1.00  0.00     0.983 C  
HETATM   13  C   UNL     1      -6.331  14.504  68.638  1.00  0.00    -0.086 C  
HETATM   14  C   UNL     1      -8.503  15.478  68.903  1.00  0.00    -0.207 C  
HETATM   15  N   UNL     1      -7.118  15.739  68.450  1.00  0.00    -0.113 NA 
HETATM   16  C   UNL     1      -6.520  16.871  69.156  1.00  0.00    -0.215 C  
HETATM   17  C   UNL     1      -6.362  13.908  70.066  1.00  0.00    -0.099 C  
ENDBRANCH   9  11
BRANCH   8  18
HETATM   18  C   UNL     1      -7.653   8.812  70.229  1.00  0.00    -0.073 A  
HETATM   19  C   UNL     1      -7.244   6.358  70.445  1.00  0.00    -0.083 A  
HETATM   20  C   UNL     1      -6.613   6.319  69.220  1.00  0.00    -0.044 A  
HETATM   21  C   UNL     1      -7.725   7.577  70.940  1.00  0.00    -0.090 A  
HETATM   22  C   UNL     1      -6.494   7.494  68.495  1.00  0.00    -0.045 A  
HETATM   23  C   UNL     1      -7.031   8.727  68.958  1.00  0.00    -0.064 A  
HETATM   24  C   UNL     1      -6.852   9.863  67.994  1.00  0.00    -0.072 C  
ENDBRANCH   8  18
ENDBRANCH   2   5
BRANCH   4  25
HETATM   25  C   UNL     1     -12.379   9.697  70.795  1.00  0.00    -0.279 C  
HETATM   26  C   UNL     1     -11.957  11.133  71.207  1.00  0.00    -0.051 C  
HETATM   27  C   UNL     1     -13.911   9.674  70.819  1.00  0.00     0.331 C  
BRANCH  25  28
HETATM   28  C   UNL     1     -11.997   9.378  69.323  1.00  0.00     0.908 A  
HETATM   29  C   UNL     1     -12.340   9.758  66.919  1.00  0.00     6.888 A  
HETATM   30  C   UNL     1     -12.660  10.020  68.261  1.00  0.00     3.830 A  
HETATM   31  F   UNL     1      -9.276   7.044  66.040  1.00  0.00    -0.181 F  
HETATM   32  C   UNL     1     -13.107  10.420  65.799  1.00  0.00    11.559 C  
HETATM   33  F   UNL     1      -9.666   6.043  67.929  1.00  0.00    -0.116 F  
HETATM   34  C   UNL     1     -11.304   8.858  66.632  1.00  0.00     1.871 A  
HETATM   35  F   UNL     1     -12.305  11.158  64.983  1.00  0.00     0.528 F  
HETATM   36  F   UNL     1     -14.079  11.271  66.233  1.00  0.00     9.754 F  
HETATM   37  F   UNL     1      -8.271   7.706  67.850  1.00  0.00    -0.116 F  
HETATM   38  C   UNL     1      -9.467   7.267  67.370  1.00  0.00    -0.132 C  
HETATM   39  C   UNL     1     -10.595   8.229  67.665  1.00  0.00    -0.264 A  
HETATM   40  F   UNL     1     -13.733   9.519  64.994  1.00  0.00    12.996 F  
HETATM   41  C   UNL     1     -10.946   8.501  69.000  1.00  0.00     0.082 A  
ENDBRANCH  25  28
ENDBRANCH   4  25
TORSDOF 5
ENDMDL
MODEL      315
REMARK 921   NORMALIZED FREE ENERGY PREDICTED BY IDOCK:   84.97 KCAL/MOL
REMARK 922        TOTAL FREE ENERGY PREDICTED BY IDOCK:  108.16 KCAL/MOL
REMARK 923 INTER-LIGAND FREE ENERGY PREDICTED BY IDOCK:   91.30 KCAL/MOL
REMARK 924 INTRA-LIGAND FREE ENERGY PREDICTED BY IDOCK:   16.86 KCAL/MOL
REMARK 927      BINDING AFFINITY PREDICTED BY RF-SCORE:    0.00 PKD
ROOT
HETATM    1  C   UNL     1     -12.487  18.997  68.430  1.00  0.00     6.476 C  
HETATM    2  N   UNL     1     -11.352  18.234  68.975  1.00  0.00     1.783 N  
HETATM    3  O   UNL     1     -11.702  19.254  70.963  1.00  0.00     6.617 OA 
HETATM    4  C   UNL     1     -11.142  18.328  70.350  1.00  0.00     3.054 C  
ENDROOT
BRANCH   2   5
HETATM    5  C   UNL     1     -10.918  17.181  68.147  1.00  0.00    -0.231 A  
HETATM    6  C   UNL     1      -9.492  15.949  66.704  1.00  0.00    -0.263 A  
HETATM    7  C   UNL     1     -11.809  16.106  67.996  1.00  0.00     0.223 A  
HETATM    8  C   UNL     1      -9.690  17.140  67.461  1.00  0.00    -0.256 A  
HETATM    9  C   UNL     1     -10.374  14.857  66.705  1.00  0.00    -0.283 A  
HETATM   10  N   UNL     1     -11.556  14.969  67.324  1.00  0.00    -0.318 NA 
BRANCH   9  11
HETATM   11  N   UNL     1     -10.054  13.649  66.119  1.00  0.00    -0.299 NA 
HETATM   12  C   UNL     1     -10.561  12.391  66.696  1.00  0.00    -0.231 C  
HETATM   13  C   UNL     1      -7.960  12.477  65.438  1.00  0.00     2.733 C  
HETATM   14  C   UNL     1      -9.434  11.360  66.959  1.00  0.00    -0.173 C  
HETATM   15  N   UNL     1      -8.469  11.156  65.855  1.00  0.00    -0.144 NA 
HETATM   16  C   UNL     1      -9.070  10.432  64.737  1.00  0.00    -0.213 C  
HETATM   17  C   UNL     1      -9.043  13.518  65.064  1.00  0.00     1.530 C  
ENDBRANCH   9  11
BRANCH   8  18
HETATM   18  C   UNL     1      -8.533  18.129  67.539  1.00  0.00    -0.248 A  
HETATM   19  C   UNL     1      -6.073  18.359  67.908  1.00  0.00    -0.180 A  
HETATM   20  C   UNL     1      -6.143  19.728  67.754  1.00  0.00    -0.221 A  
HETATM   21  C   UNL     1      -7.242  17.592  67.827  1.00  0.00    -0.196 A  
HETATM   22  C   UNL     1      -7.375  20.307  67.494  1.00  0.00    -0.340 A  
HETATM   23  C   UNL     1      -8.560  19.534  67.350  1.00  0.00    -0.346 A  
HETATM   24  C   UNL     1      -9.772  20.347  67.007  1.00  0.00    -0.588 C  
ENDBRANCH   8  18
ENDBRANCH   2   5
BRANCH   4  25
HETATM   25  C   UNL     1     -10.300  17.300  71.208  1.00  0.00     2.943 C  
HETATM   26  C   UNL     1     -10.733  17.622  72.662  1.00  0.00     3.615 C  
HETATM   27  C   UNL     1      -8.768  17.324  71.198  1.00  0.00     7.591 C  
BRANCH  25  28
HETATM   28  C   UNL     1     -10.679  15.850  70.795  1.00  0.00    -0.048 A  
HETATM   29  C   UNL     1     -10.378  13.426  71.066  1.00  0.00     5.019 A  
HETATM   30  C   UNL     1     -10.058  14.749  71.412  1.00  0.00     2.114 A  
HETATM   31  F   UNL     1     -13.312  12.723  68.164  1.00  0.00     2.144 F  
HETATM   32  C   UNL     1      -9.654  12.264  71.706  1.00  0.00    16.487 C  
HETATM   33  F   UNL     1     -12.855  14.656  67.282  1.00  0.00     0.021 F  
HETATM   34  C   UNL     1     -11.370  13.197  70.103  1.00  0.00     0.127 A  
HETATM   35  F   UNL     1     -10.499  11.421  72.361  1.00  0.00     6.964 F  
HETATM   36  F   UNL     1      -8.721  12.643  72.625  1.00  0.00    16.007 F  
HETATM   37  F   UNL     1     -14.332  14.508  68.869  1.00  0.00     5.326 F  
HETATM   38  C   UNL     1     -13.120  14.037  68.465  1.00  0.00     2.426 C  
HETATM   39  C   UNL     1     -12.038  14.269  69.494  1.00  0.00    -0.376 A  
HETATM   40  F   UNL     1      -8.992  11.499  70.796  1.00  0.00     3.423 F  
HETATM   41  C   UNL     1     -11.688  15.584  69.852  1.00  0.00    -0.368 A  
ENDBRANCH  25  28
ENDBRANCH   4  25
TORSDOF 5
ENDMDL
MODEL      316
REMARK 921   NORMALIZED FREE ENERGY PREDICTED BY IDOCK:   93.25 KCAL/MOL
REMARK 922        TOTAL FREE ENERGY PREDICTED BY IDOCK:  118.87 KCAL/MOL
REMARK 923 INTER-LIGAND FREE ENERGY PREDICTED BY IDOCK:   -2.98 KCAL/MOL
REMARK 924 INTRA-LIGAND FREE ENERGY PREDICTED BY IDOCK:  121.84 KCAL/MOL
REMARK 927      BINDING AFFINITY PREDICTED BY RF-SCORE:    0.00 PKD
ROOT
HETATM    1  C   UNL     1     -11.197   9.634  68.615  1.00  0.00     0.046 C  
HETATM    2  N   UNL     1     -10.143   8.722  68.144  1.00  0.00    -0.182 N  
HETATM    3  O   UNL     1      -9.293  10.431  66.931  1.00  0.00    -0.159 OA 
HETATM    4  C   UNL     1      -9.111   9.294  67.401  1.00  0.00    -0.126 C  
ENDROOT
BRANCH   2   5
HETATM    5  C   UNL     1     -10.066   7.513  68.863  1.00  0.00    -0.192 A  
HETATM    6  C   UNL     1      -9.829   5.183  69.249  1.00  0.00    -0.260 A  
HETATM    7  C   UNL     1     -10.198   7.615  70.258  1.00  0.00    -0.205 A  
HETATM    8  C   UNL     1      -9.890   6.238  68.293  1.00  0.00    -0.134 A  
HETATM    9  C   UNL     1      -9.837   5.376  70.639  1.00  0.00    -0.191 A  
HETATM   10  N   UNL     1     -10.069   6.600  71.131  1.00  0.00    -0.183 NA 
BRANCH   9  11
HETATM   11  N   UNL     1      -9.579   4.352  71.528  1.00  0.00    -0.152 NA 
HETATM   12  C   UNL     1      -9.102   3.048  71.034  1.00  0.00    -0.115 C  
HETATM   13  C   UNL     1     -10.828   3.190  73.348  1.00  0.00    -0.207 C  
HETATM   14  C   UNL     1      -9.957   1.865  71.553  1.00  0.00    -0.102 C  
HETATM   15  N   UNL     1     -10.264   1.870  73.002  1.00  0.00    -0.106 NA 
HETATM   16  C   UNL     1      -9.085   1.561  73.807  1.00  0.00    -0.061 C  
HETATM   17  C   UNL     1      -9.965   4.409  72.942  1.00  0.00    -0.153 C  
ENDBRANCH   9  11
BRANCH   8  18
HETATM   18  C   UNL     1      -9.632   5.886  66.833  1.00  0.00    -0.156 A  
HETATM   19  C   UNL     1     -10.677   5.047  64.726  1.00  0.00     0.773 A  
HETATM   20  C   UNL     1      -9.475   5.133  64.054  1.00  0.00     0.460 A  
HETATM   21  C   UNL     1     -10.739   5.391  66.082  1.00  0.00    -0.158 A  
HETATM   22  C   UNL     1      -8.360   5.587  64.739  1.00  0.00    -0.136 A  
HETATM   23  C   UNL     1      -8.422   5.997  66.100  1.00  0.00    -0.134 A  
HETATM   24  C   UNL     1      -7.120   6.516  66.634  1.00  0.00    -0.068 C  
ENDBRANCH   8  18
ENDBRANCH   2   5
BRANCH   4  25
HETATM   25  C   UNL     1      -7.692   8.635  67.168  1.00  0.00    -0.096 C  
HETATM   26  C   UNL     1      -6.821   9.281  68.278  1.00  0.00    -0.064 C  
HETATM   27  C   UNL     1      -6.931   8.830  65.852  1.00  0.00    -0.076 C  
BRANCH  25  28
HETATM   28  C   UNL     1      -7.804   7.094  67.340  1.00  0.00    -0.112 A  
HETATM   29  C   UNL     1      -7.058   5.029  68.443  1.00  0.00    -0.062 A  
HETATM   30  C   UNL     1      -6.981   6.419  68.260  1.00  0.00    -0.080 A  
HETATM   31  F   UNL     1      -9.855   2.826  66.242  1.00  0.00     0.029 F  
HETATM   32  C   UNL     1      -6.123   4.324  69.398  1.00  0.00    -0.027 C  
HETATM   33  F   UNL     1      -9.775   4.342  64.686  1.00  0.00    -0.152 F  
HETATM   34  C   UNL     1      -8.006   4.299  67.712  1.00  0.00    -0.087 A  
HETATM   35  F   UNL     1      -6.788   3.655  70.380  1.00  0.00    -0.031 F  
HETATM   36  F   UNL     1      -5.262   5.164  70.038  1.00  0.00    -0.003 F  
HETATM   37  F   UNL     1     -11.175   4.550  66.335  1.00  0.00     0.128 F  
HETATM   38  C   UNL     1      -9.904   4.170  66.030  1.00  0.00    -0.196 C  
HETATM   39  C   UNL     1      -8.868   4.942  66.814  1.00  0.00    -0.110 A  
HETATM   40  F   UNL     1      -5.345   3.397  68.775  1.00  0.00    -0.010 F  
HETATM   41  C   UNL     1      -8.761   6.335  66.642  1.00  0.00    -0.126 A  
ENDBRANCH  25  28
ENDBRANCH   4  25
TORSDOF 5
ENDMDL
MODEL      317
REMARK 921   NORMALIZED FREE ENERGY PREDICTED BY IDOCK:   94.94 KCAL/MOL
REMARK 922        TOTAL FREE ENERGY PREDICTED BY IDOCK:  121.05 KCAL/MOL
REMARK 923 INTER-LIGAND FREE ENERGY PREDICTED BY IDOCK:  117.87 KCAL/MOL
REMARK 924 INTRA-LIGAND FREE ENERGY PREDICTED BY IDOCK:    3.19 KCAL/MOL
REMARK 927      BINDING AFFINITY PREDICTED BY RF-SCORE:    0.00 PKD
ROOT
HETATM    1  C   UNL     1      -6.780  18.741  72.382  1.00  0.00     3.446 C  
HETATM    2  N   UNL     1      -7.127  17.851  71.261  1.00  0.00     4.205 N  
HETATM    3  O   UNL     1      -6.470  19.485  69.843  1.00  0.00    -0.305 OA 
HETATM    4  C   UNL     1      -6.766  18.286  69.987  1.00  0.00     0.369 C  
ENDROOT
BRANCH   2   5
HETATM    5  C   UNL     1      -7.356  16.514  71.640  1.00  0.00     6.713 A  
HETATM    6  C   UNL     1      -8.566  14.581  72.298  1.00  0.00     7.339 A  
HETATM    7  C   UNL     1      -6.222  15.688  71.709  1.00  0.00     1.558 A  
HETATM    8  C   UNL     1      -8.611  15.966  71.965  1.00  0.00     8.508 A  
HETATM    9  C   UNL     1      -7.411  13.787  72.219  1.00  0.00     6.668 A  
HETATM   10  N   UNL     1      -6.231  14.368  71.965  1.00  0.00     0.178 NA 
BRANCH   9  11
HETATM   11  N   UNL     1      -7.448  12.415  72.359  1.00  0.00    10.674 NA 
HETATM   12  C   UNL     1      -8.595  11.650  71.839  1.00  0.00    15.599 C  
HETATM   13  C   UNL     1      -7.233  10.789  74.239  1.00  0.00     5.466 C  
HETATM   14  C   UNL     1      -9.222  10.717  72.907  1.00  0.00    13.052 C  
HETATM   15  N   UNL     1      -8.271   9.895  73.690  1.00  0.00     3.968 NA 
HETATM   16  C   UNL     1      -7.689   8.824  72.885  1.00  0.00     0.240 C  
HETATM   17  C   UNL     1      -6.501  11.674  73.200  1.00  0.00     5.439 C  
ENDBRANCH   9  11
BRANCH   8  18
HETATM   18  C   UNL     1      -9.981  16.627  71.874  1.00  0.00     5.531 A  
HETATM   19  C   UNL     1     -12.437  16.268  72.151  1.00  0.00    -0.308 A  
HETATM   20  C   UNL     1     -12.704  17.574  71.795  1.00  0.00     7.410 A  
HETATM   21  C   UNL     1     -11.114  15.809  72.164  1.00  0.00     0.118 A  
HETATM   22  C   UNL     1     -11.642  18.409  71.482  1.00  0.00     5.658 A  
HETATM   23  C   UNL     1     -10.291  17.972  71.548  1.00  0.00     3.788 A  
HETATM   24  C   UNL     1      -9.294  19.048  71.234  1.00  0.00     4.434 C  
ENDBRANCH   8  18
ENDBRANCH   2   5
BRANCH   4  25
HETATM   25  C   UNL     1      -6.634  17.351  68.718  1.00  0.00    -0.206 C  
HETATM   26  C   UNL     1      -7.461  16.101  69.118  1.00  0.00    -0.221 C  
HETATM   27  C   UNL     1      -5.269  16.835  68.250  1.00  0.00    -0.115 C  
BRANCH  25  28
HETATM   28  C   UNL     1      -7.233  18.074  67.479  1.00  0.00    -0.202 A  
HETATM   29  C   UNL     1      -9.180  19.031  66.325  1.00  0.00    -0.307 A  
HETATM   30  C   UNL     1      -8.606  18.377  67.426  1.00  0.00    -0.261 A  
HETATM   31  F   UNL     1      -6.737  20.182  63.126  1.00  0.00     0.154 F  
HETATM   32  C   UNL     1     -10.667  19.293  66.272  1.00  0.00    -0.384 C  
HETATM   33  F   UNL     1      -5.371  18.568  63.633  1.00  0.00    -0.192 F  
HETATM   34  C   UNL     1      -8.354  19.426  65.263  1.00  0.00     1.142 A  
HETATM   35  F   UNL     1     -10.959  20.618  66.159  1.00  0.00    -0.035 F  
HETATM   36  F   UNL     1     -11.337  18.857  67.376  1.00  0.00    -0.407 F  
HETATM   37  F   UNL     1      -5.141  20.518  64.564  1.00  0.00    -0.177 F  
HETATM   38  C   UNL     1      -6.071  19.607  64.166  1.00  0.00    -0.153 C  
HETATM   39  C   UNL     1      -6.975  19.175  65.297  1.00  0.00    -0.073 A  
HETATM   40  F   UNL     1     -11.265  18.686  65.210  1.00  0.00    -0.217 F  
HETATM   41  C   UNL     1      -6.429  18.506  66.408  1.00  0.00    -0.228 A  
ENDBRANCH  25  28
ENDBRANCH   4  25
TORSDOF 5
ENDMDL
MODEL      318
REMARK 921   NORMALIZED FREE ENERGY PREDICTED BY IDOCK:   99.49 KCAL/MOL
REMARK 922        TOTAL FREE ENERGY PREDICTED BY IDOCK:  126.94 KCAL/MOL
REMARK 923 INTER-LIGAND FREE ENERGY PREDICTED BY IDOCK:   10.27 KCAL/MOL
REMARK 924 INTRA-LIGAND FREE ENERGY PREDICTED BY IDOCK:  116.67 KCAL/MOL
REMARK 927      BINDING AFFINITY PREDICTED BY RF-SCORE:    0.00 PKD
ROOT
HETATM    1  C   UNL     1     -10.079  14.541  72.137  1.00  0.00     4.438 C  
HETATM    2  N   UNL     1     -10.057  14.890  70.707  1.00  0.00     0.587 N  
HETATM    3  O   UNL     1      -9.851  17.061  71.305  1.00  0.00     3.528 OA 
HETATM    4  C   UNL     1      -9.767  16.217  70.395  1.00  0.00     1.165 C  
ENDROOT
BRANCH   2   5
HETATM    5  C   UNL     1      -9.882  13.786  69.849  1.00  0.00     1.494 A  
HETATM    6  C   UNL     1      -9.183  12.561  67.940  1.00  0.00    -0.200 A  
HETATM    7  C   UNL     1     -10.418  12.567  70.294  1.00  0.00     2.444 A  
HETATM    8  C   UNL     1      -9.239  13.824  68.598  1.00  0.00    -0.069 A  
HETATM    9  C   UNL     1      -9.627  11.356  68.506  1.00  0.00    -0.189 A  
HETATM   10  N   UNL     1     -10.287  11.382  69.671  1.00  0.00     0.162 NA 
BRANCH   9  11
HETATM   11  N   UNL     1      -9.378  10.130  67.923  1.00  0.00    -0.141 NA 
HETATM   12  C   UNL     1     -10.431   9.099  67.891  1.00  0.00    -0.237 C  
HETATM   13  C   UNL     1      -7.654   8.343  68.156  1.00  0.00    -0.098 C  
HETATM   14  C   UNL     1      -9.952   7.741  68.462  1.00  0.00    -0.182 C  
HETATM   15  N   UNL     1      -8.639   7.258  67.976  1.00  0.00    -0.125 NA 
HETATM   16  C   UNL     1      -8.705   6.816  66.585  1.00  0.00    -0.127 C  
HETATM   17  C   UNL     1      -8.036   9.700  67.516  1.00  0.00    -0.106 C  
ENDBRANCH   9  11
BRANCH   8  18
HETATM   18  C   UNL     1      -8.504  14.992  67.951  1.00  0.00    -0.149 A  
HETATM   19  C   UNL     1      -8.779  17.067  66.589  1.00  0.00    -0.282 A  
HETATM   20  C   UNL     1      -7.421  17.305  66.613  1.00  0.00    -0.287 A  
HETATM   21  C   UNL     1      -9.294  15.928  67.220  1.00  0.00    -0.218 A  
HETATM   22  C   UNL     1      -6.600  16.416  67.290  1.00  0.00    -0.222 A  
HETATM   23  C   UNL     1      -7.117  15.288  67.985  1.00  0.00    -0.139 A  
HETATM   24  C   UNL     1      -6.070  14.492  68.705  1.00  0.00    -0.084 C  
ENDBRANCH   8  18
ENDBRANCH   2   5
BRANCH   4  25
HETATM   25  C   UNL     1      -9.268  16.725  68.983  1.00  0.00    -0.199 C  
HETATM   26  C   UNL     1      -7.728  16.789  69.160  1.00  0.00    -0.165 C  
HETATM   27  C   UNL     1      -9.697  18.089  68.431  1.00  0.00    -0.348 C  
BRANCH  25  28
HETATM   28  C   UNL     1      -9.686  15.703  67.888  1.00  0.00    -0.211 A  
HETATM   29  C   UNL     1      -9.350  13.536  66.780  1.00  0.00    -0.262 A  
HETATM   30  C   UNL     1      -8.998  14.483  67.754  1.00  0.00    -0.190 A  
HETATM   31  F   UNL     1     -12.583  14.321  64.237  1.00  0.00    -0.426 F  
HETATM   32  C   UNL     1      -8.559  12.259  66.622  1.00  0.00    -0.099 C  
HETATM   33  F   UNL     1     -12.230  16.450  64.501  1.00  0.00     0.060 F  
HETATM   34  C   UNL     1     -10.442  13.799  65.940  1.00  0.00    -0.300 A  
HETATM   35  F   UNL     1      -9.325  11.146  66.791  1.00  0.00    -0.169 F  
HETATM   36  F   UNL     1      -7.531  12.142  67.511  1.00  0.00    -0.108 F  
HETATM   37  F   UNL     1     -13.524  15.384  65.884  1.00  0.00     1.203 F  
HETATM   38  C   UNL     1     -12.362  15.278  65.181  1.00  0.00     0.301 C  
HETATM   39  C   UNL     1     -11.175  14.987  66.069  1.00  0.00    -0.310 A  
HETATM   40  F   UNL     1      -7.998  12.144  65.387  1.00  0.00     0.777 F  
HETATM   41  C   UNL     1     -10.791  15.924  67.047  1.00  0.00    -0.252 A  
ENDBRANCH  25  28
ENDBRANCH   4  25
TORSDOF 5
ENDMDL
MODEL      319
REMARK 921   NORMALIZED FREE ENERGY PREDICTED BY IDOCK:   99.91 KCAL/MOL
REMARK 922        TOTAL FREE ENERGY PREDICTED BY IDOCK:  127.47 KCAL/MOL
REMARK 923 INTER-LIGAND FREE ENERGY PREDICTED BY IDOCK:   64.58 KCAL/MOL
REMARK 924 INTRA-LIGAND FREE ENERGY PREDICTED BY IDOCK:   62.89 KCAL/MOL
REMARK 927      BINDING AFFINITY PREDICTED BY RF-SCORE:    0.00 PKD
ROOT
HETATM    1  C   UNL     1      -6.814  16.595  72.604  1.00  0.00     7.650 C  
HETATM    2  N   UNL     1      -8.121  16.456  71.942  1.00  0.00     9.129 N  
HETATM    3  O   UNL     1      -9.013  15.926  73.951  1.00  0.00    13.072 OA 
HETATM    4  C   UNL     1      -9.224  16.267  72.774  1.00  0.00    12.251 C  
ENDROOT
BRANCH   2   5
HETATM    5  C   UNL     1      -8.159  16.973  70.631  1.00  0.00     4.340 A  
HETATM    6  C   UNL     1      -7.995  17.005  68.264  1.00  0.00    -0.222 A  
HETATM    7  C   UNL     1      -8.501  18.329  70.512  1.00  0.00     3.994 A  
HETATM    8  C   UNL     1      -7.865  16.246  69.463  1.00  0.00     0.056 A  
HETATM    9  C   UNL     1      -8.470  18.324  68.213  1.00  0.00    -0.295 A  
HETATM   10  N   UNL     1      -8.677  18.992  69.355  1.00  0.00     0.104 NA 
BRANCH   9  11
HETATM   11  N   UNL     1      -8.768  18.956  67.023  1.00  0.00    -0.286 NA 
HETATM   12  C   UNL     1      -9.817  19.990  66.978  1.00  0.00    -0.430 C  
HETATM   13  C   UNL     1      -9.389  18.246  64.713  1.00  0.00     4.536 C  
HETATM   14  C   UNL     1     -10.876  19.718  65.879  1.00  0.00    -0.284 C  
HETATM   15  N   UNL     1     -10.348  19.356  64.544  1.00  0.00     2.142 NA 
HETATM   16  C   UNL     1      -9.734  20.500  63.874  1.00  0.00     5.891 C  
HETATM   17  C   UNL     1      -8.248  18.503  65.728  1.00  0.00     0.281 C  
ENDBRANCH   9  11
BRANCH   8  18
HETATM   18  C   UNL     1      -7.564  14.758  69.329  1.00  0.00    -0.144 A  
HETATM   19  C   UNL     1      -6.010  12.925  70.011  1.00  0.00    -0.139 A  
HETATM   20  C   UNL     1      -6.723  12.000  69.278  1.00  0.00    -0.093 A  
HETATM   21  C   UNL     1      -6.410  14.267  70.011  1.00  0.00    -0.150 A  
HETATM   22  C   UNL     1      -7.841  12.424  68.577  1.00  0.00    -0.112 A  
HETATM   23  C   UNL     1      -8.293  13.772  68.616  1.00  0.00    -0.067 A  
HETATM   24  C   UNL     1      -9.556  14.007  67.842  1.00  0.00    -0.221 C  
ENDBRANCH   8  18
ENDBRANCH   2   5
BRANCH   4  25
HETATM   25  C   UNL     1     -10.727  16.524  72.354  1.00  0.00     2.674 C  
HETATM   26  C   UNL     1     -11.102  17.795  73.160  1.00  0.00     2.233 C  
HETATM   27  C   UNL     1     -11.821  15.490  72.643  1.00  0.00    -0.575 C  
BRANCH  25  28
HETATM   28  C   UNL     1     -10.802  16.764  70.820  1.00  0.00     0.487 A  
HETATM   29  C   UNL     1     -11.348  15.933  68.573  1.00  0.00    -0.374 A  
HETATM   30  C   UNL     1     -11.265  15.750  69.962  1.00  0.00    -0.346 A  
HETATM   31  F   UNL     1     -10.256  19.625  66.927  1.00  0.00    -0.419 F  
HETATM   32  C   UNL     1     -11.795  14.807  67.671  1.00  0.00    -0.292 C  
HETATM   33  F   UNL     1      -8.925  19.946  68.615  1.00  0.00    -0.360 F  
HETATM   34  C   UNL     1     -10.994  17.176  68.029  1.00  0.00    -0.229 A  
HETATM   35  F   UNL     1     -12.902  15.129  66.945  1.00  0.00     0.486 F  
HETATM   36  F   UNL     1     -12.111  13.663  68.342  1.00  0.00    -0.369 F  
HETATM   37  F   UNL     1     -11.003  20.568  68.738  1.00  0.00    -0.176 F  
HETATM   38  C   UNL     1     -10.192  19.572  68.287  1.00  0.00    -0.443 C  
HETATM   39  C   UNL     1     -10.564  18.223  68.857  1.00  0.00     0.141 A  
HETATM   40  F   UNL     1     -10.842  14.456  66.765  1.00  0.00    -0.285 F  
HETATM   41  C   UNL     1     -10.479  18.007  70.245  1.00  0.00     1.428 A  
ENDBRANCH  25  28
ENDBRANCH   4  25
TORSDOF 5
ENDMDL
MODEL      320
REMARK 921   NORMALIZED FREE ENERGY PREDICTED BY IDOCK:  116.23 KCAL/MOL
REMARK 922        TOTAL FREE ENERGY PREDICTED BY IDOCK:  148.56 KCAL/MOL
REMARK 923 INTER-LIGAND FREE ENERGY PREDICTED BY IDOCK:   47.10 KCAL/MOL
REMARK 924 INTRA-LIGAND FREE ENERGY PREDICTED BY IDOCK:  101.47 KCAL/MOL
REMARK 927      BINDING AFFINITY PREDICTED BY RF-SCORE:    0.00 PKD
ROOT
HETATM    1  C   UNL     1     -10.068  14.548  72.158  1.00  0.00     4.438 C  
HETATM    2  N   UNL     1     -10.070  15.015  70.762  1.00  0.00     0.445 N  
HETATM    3  O   UNL     1      -9.844  17.128  71.535  1.00  0.00     4.498 OA 
HETATM    4  C   UNL     1      -9.780  16.363  70.557  1.00  0.00     1.619 C  
ENDROOT
BRANCH   2   5
HETATM    5  C   UNL     1      -9.916  13.987  69.812  1.00  0.00     0.813 A  
HETATM    6  C   UNL     1      -9.341  12.944  67.759  1.00  0.00    -0.203 A  
HETATM    7  C   UNL     1     -10.327  12.706  70.215  1.00  0.00     2.773 A  
HETATM    8  C   UNL     1      -9.407  14.153  68.510  1.00  0.00    -0.191 A  
HETATM    9  C   UNL     1      -9.649  11.676  68.274  1.00  0.00    -0.198 A  
HETATM   10  N   UNL     1     -10.187  11.578  69.497  1.00  0.00     0.184 NA 
BRANCH   9  11
HETATM   11  N   UNL     1      -9.385  10.513  67.580  1.00  0.00    -0.148 NA 
HETATM   12  C   UNL     1     -10.368   9.414  67.580  1.00  0.00    -0.255 C  
HETATM   13  C   UNL     1      -7.536   8.840  67.506  1.00  0.00    -0.089 C  
HETATM   14  C   UNL     1      -9.745   8.058  67.998  1.00  0.00    -0.160 C  
HETATM   15  N   UNL     1      -8.463   7.703  67.348  1.00  0.00    -0.122 NA 
HETATM   16  C   UNL     1      -8.647   7.351  65.941  1.00  0.00    -0.153 C  
HETATM   17  C   UNL     1      -8.069  10.207  67.010  1.00  0.00    -0.117 C  
ENDBRANCH   9  11
BRANCH   8  18
HETATM   18  C   UNL     1      -8.815  15.410  67.883  1.00  0.00    -0.168 A  
HETATM   19  C   UNL     1      -6.721  16.461  67.018  1.00  0.00    -0.239 A  
HETATM   20  C   UNL     1      -7.394  17.623  66.701  1.00  0.00    -0.265 A  
HETATM   21  C   UNL     1      -7.414  15.400  67.614  1.00  0.00    -0.195 A  
HETATM   22  C   UNL     1      -8.753  17.697  66.960  1.00  0.00    -0.254 A  
HETATM   23  C   UNL     1      -9.480  16.605  67.510  1.00  0.00    -0.229 A  
HETATM   24  C   UNL     1     -10.950  16.869  67.650  1.00  0.00    -0.165 C  
ENDBRANCH   8  18
ENDBRANCH   2   5
BRANCH   4  25
HETATM   25  C   UNL     1      -9.303  16.986  69.183  1.00  0.00    -0.088 C  
HETATM   26  C   UNL     1      -7.900  16.355  68.983  1.00  0.00    -0.231 C  
HETATM   27  C   UNL     1      -9.125  18.499  69.016  1.00  0.00    -0.099 C  
BRANCH  25  28
HETATM   28  C   UNL     1     -10.293  16.574  68.058  1.00  0.00    -0.294 A  
HETATM   29  C   UNL     1     -11.201  14.842  66.569  1.00  0.00    -0.335 A  
HETATM   30  C   UNL     1     -10.318  15.250  67.582  1.00  0.00    -0.250 A  
HETATM   31  F   UNL     1     -13.889  17.618  64.957  1.00  0.00     9.469 F  
HETATM   32  C   UNL     1     -11.167  13.428  66.038  1.00  0.00    -0.296 C  
HETATM   33  F   UNL     1     -12.503  19.211  65.476  1.00  0.00     4.363 F  
HETATM   34  C   UNL     1     -12.108  15.774  66.043  1.00  0.00     1.121 A  
HETATM   35  F   UNL     1     -12.358  12.786  66.191  1.00  0.00    -0.477 F  
HETATM   36  F   UNL     1     -10.239  12.639  66.650  1.00  0.00    -0.226 F  
HETATM   37  F   UNL     1     -13.987  18.550  66.919  1.00  0.00     7.595 F  
HETATM   38  C   UNL     1     -13.118  18.102  65.971  1.00  0.00    12.173 C  
HETATM   39  C   UNL     1     -12.137  17.092  66.519  1.00  0.00     3.106 A  
HETATM   40  F   UNL     1     -10.881  13.378  64.709  1.00  0.00    -0.302 F  
HETATM   41  C   UNL     1     -11.233  17.475  67.526  1.00  0.00     0.250 A  
ENDBRANCH  25  28
ENDBRANCH   4  25
TORSDOF 5
ENDMDL
MODEL      321
REMARK 921   NORMALIZED FREE ENERGY PREDICTED BY IDOCK:  119.25 KCAL/MOL
REMARK 922        TOTAL FREE ENERGY PREDICTED BY IDOCK:  152.46 KCAL/MOL
REMARK 923 INTER-LIGAND FREE ENERGY PREDICTED BY IDOCK:    9.70 KCAL/MOL
REMARK 924 INTRA-LIGAND FREE ENERGY PREDICTED BY IDOCK:  142.76 KCAL/MOL
REMARK 927      BINDING AFFINITY PREDICTED BY RF-SCORE:    0.00 PKD
ROOT
HETATM    1  C   UNL     1     -11.223   9.622  68.610  1.00  0.00     0.046 C  
HETATM    2  N   UNL     1     -10.293   8.600  68.102  1.00  0.00    -0.219 N  
HETATM    3  O   UNL     1      -9.225  10.231  66.956  1.00  0.00    -0.148 OA 
HETATM    4  C   UNL     1      -9.193   9.063  67.381  1.00  0.00    -0.138 C  
ENDROOT
BRANCH   2   5
HETATM    5  C   UNL     1     -10.375   7.364  68.774  1.00  0.00    -0.199 A  
HETATM    6  C   UNL     1      -9.830   5.132  69.367  1.00  0.00    -0.269 A  
HETATM    7  C   UNL     1     -11.389   7.253  69.740  1.00  0.00    -0.071 A  
HETATM    8  C   UNL     1      -9.544   6.254  68.537  1.00  0.00    -0.128 A  
HETATM    9  C   UNL     1     -10.776   5.138  70.404  1.00  0.00    -0.059 A  
HETATM   10  N   UNL     1     -11.584   6.197  70.549  1.00  0.00    -0.280 NA 
BRANCH   9  11
HETATM   11  N   UNL     1     -10.886   4.103  71.310  1.00  0.00     0.701 NA 
HETATM   12  C   UNL     1     -12.207   3.526  71.617  1.00  0.00     6.411 C  
HETATM   13  C   UNL     1     -10.173   3.688  73.664  1.00  0.00    -0.142 C  
HETATM   14  C   UNL     1     -12.501   3.486  73.138  1.00  0.00     1.003 C  
HETATM   15  N   UNL     1     -11.415   2.961  73.996  1.00  0.00     0.090 NA 
HETATM   16  C   UNL     1     -11.250   1.517  73.842  1.00  0.00    -0.159 C  
HETATM   17  C   UNL     1      -9.775   3.675  72.168  1.00  0.00    -0.163 C  
ENDBRANCH   9  11
BRANCH   8  18
HETATM   18  C   UNL     1      -8.331   6.163  67.619  1.00  0.00    -0.112 A  
HETATM   19  C   UNL     1      -6.129   7.195  67.049  1.00  0.00    -0.041 A  
HETATM   20  C   UNL     1      -5.914   6.269  66.049  1.00  0.00    -0.025 A  
HETATM   21  C   UNL     1      -7.315   7.152  67.791  1.00  0.00    -0.097 A  
HETATM   22  C   UNL     1      -6.877   5.298  65.822  1.00  0.00    -0.064 A  
HETATM   23  C   UNL     1      -8.060   5.207  66.608  1.00  0.00    -0.108 A  
HETATM   24  C   UNL     1      -8.938   4.048  66.242  1.00  0.00    -0.127 C  
ENDBRANCH   8  18
ENDBRANCH   2   5
BRANCH   4  25
HETATM   25  C   UNL     1      -7.870   8.235  67.121  1.00  0.00    -0.097 C  
HETATM   26  C   UNL     1      -6.898   8.784  68.199  1.00  0.00    -0.069 C  
HETATM   27  C   UNL     1      -7.127   8.324  65.784  1.00  0.00    -0.071 C  
BRANCH  25  28
HETATM   28  C   UNL     1      -8.161   6.721  67.317  1.00  0.00    -0.121 A  
HETATM   29  C   UNL     1      -9.551   4.754  66.829  1.00  0.00    -0.184 A  
HETATM   30  C   UNL     1      -9.261   6.119  66.678  1.00  0.00    -0.155 A  
HETATM   31  F   UNL     1      -7.041   2.378  69.192  1.00  0.00    -0.041 F  
HETATM   32  C   UNL     1     -10.770   4.147  66.177  1.00  0.00     0.718 C  
HETATM   33  F   UNL     1      -6.499   4.146  70.335  1.00  0.00    -0.027 F  
HETATM   34  C   UNL     1      -8.699   3.961  67.611  1.00  0.00    -0.121 A  
HETATM   35  F   UNL     1     -10.455   3.136  65.321  1.00  0.00     0.183 F  
HETATM   36  F   UNL     1     -11.498   5.038  65.446  1.00  0.00    -0.133 F  
HETATM   37  F   UNL     1      -5.379   3.623  68.548  1.00  0.00    -0.010 F  
HETATM   38  C   UNL     1      -6.637   3.673  69.066  1.00  0.00    -0.040 C  
HETATM   39  C   UNL     1      -7.572   4.518  68.232  1.00  0.00    -0.072 A  
HETATM   40  F   UNL     1     -11.635   3.614  67.083  1.00  0.00     4.318 F  
HETATM   41  C   UNL     1      -7.313   5.892  68.073  1.00  0.00    -0.080 A  
ENDBRANCH  25  28
ENDBRANCH   4  25
TORSDOF 5
ENDMDL
