MODEL        1
REMARK 921   NORMALIZED FREE ENERGY PREDICTED BY IDOCK:   -6.91 KCAL/MOL
REMARK 922        TOTAL FREE ENERGY PREDICTED BY IDOCK:   -7.62 KCAL/MOL
REMARK 923 INTER-LIGAND FREE ENERGY PREDICTED BY IDOCK:   -7.32 KCAL/MOL
REMARK 924 INTRA-LIGAND FREE ENERGY PREDICTED BY IDOCK:   -0.30 KCAL/MOL
REMARK 927      BINDING AFFINITY PREDICTED BY RF-SCORE:    0.00 PKD
ROOT
HETATM    1  C   UNL     1     -13.425  13.927  72.010  1.00  0.00    -0.543 C  
HETATM    2  C   UNL     1     -12.901  12.686  71.356  1.00  0.00    -0.358 A  
HETATM    3  C   UNL     1     -12.242  12.730  70.127  1.00  0.00    -0.249 A  
HETATM    4  N   UNL     1     -11.344  13.820  69.918  1.00  0.00    -0.469 N  
HETATM    5  C   UNL     1     -11.571  14.634  68.832  1.00  0.00    -0.310 C  
HETATM    6  H   UNL     1     -10.563  13.990  70.551  1.00  0.00     0.000 HD 
HETATM    7  C   UNL     1     -11.472  14.059  67.477  1.00  0.00    -0.369 A  
HETATM    8  O   UNL     1     -11.816  15.826  68.965  1.00  0.00    -0.391 OA 
HETATM    9  C   UNL     1     -11.900  12.772  67.159  1.00  0.00    -0.350 A  
HETATM   10  N   UNL     1     -11.664  11.646  68.011  1.00  0.00    -0.513 NA 
HETATM   11  N   UNL     1     -12.331  12.511  65.893  1.00  0.00    -0.603 NA 
HETATM   12  C   UNL     1     -12.031  11.560  69.387  1.00  0.00    -0.325 A  
HETATM   13  C   UNL     1     -12.199  13.466  64.945  1.00  0.00    -0.408 A  
HETATM   14  C   UNL     1     -13.054  11.441  71.949  1.00  0.00    -0.505 A  
HETATM   15  C   UNL     1     -12.629  10.322  71.253  1.00  0.00    -0.418 A  
HETATM   16  C   UNL     1     -11.516  14.645  65.146  1.00  0.00    -0.375 A  
HETATM   17  N   UNL     1     -12.170  10.356  69.984  1.00  0.00    -0.231 NA 
HETATM   18  C   UNL     1     -11.151  14.951  66.445  1.00  0.00    -0.342 A  
ENDROOT
BRANCH  10  19
HETATM   19  C   UNL     1     -10.402  10.925  67.672  1.00  0.00    -0.197 C  
HETATM   20  C   UNL     1      -9.294  11.523  66.856  1.00  0.00    -0.189 C  
HETATM   21  C   UNL     1      -9.083  11.265  68.316  1.00  0.00    -0.173 C  
ENDBRANCH  10  19
TORSDOF 1
ENDMDL
MODEL        2
REMARK 921   NORMALIZED FREE ENERGY PREDICTED BY IDOCK:   -6.79 KCAL/MOL
REMARK 922        TOTAL FREE ENERGY PREDICTED BY IDOCK:   -7.49 KCAL/MOL
REMARK 923 INTER-LIGAND FREE ENERGY PREDICTED BY IDOCK:   -7.19 KCAL/MOL
REMARK 924 INTRA-LIGAND FREE ENERGY PREDICTED BY IDOCK:   -0.30 KCAL/MOL
REMARK 927      BINDING AFFINITY PREDICTED BY RF-SCORE:    0.00 PKD
ROOT
HETATM    1  C   UNL     1     -13.632  13.444  72.206  1.00  0.00    -0.703 C  
HETATM    2  C   UNL     1     -13.019  12.262  71.521  1.00  0.00    -0.390 A  
HETATM    3  C   UNL     1     -12.326  12.393  70.317  1.00  0.00    -0.188 A  
HETATM    4  N   UNL     1     -11.486  13.540  70.181  1.00  0.00    -0.510 N  
HETATM    5  C   UNL     1     -11.726  14.383  69.121  1.00  0.00    -0.317 C  
HETATM    6  H   UNL     1     -10.735  13.726  70.845  1.00  0.00     0.000 HD 
HETATM    7  C   UNL     1     -11.554  13.872  67.748  1.00  0.00    -0.381 A  
HETATM    8  O   UNL     1     -12.042  15.554  69.293  1.00  0.00    -0.332 OA 
HETATM    9  C   UNL     1     -11.898  12.578  67.365  1.00  0.00    -0.312 A  
HETATM   10  N   UNL     1     -11.625  11.432  68.179  1.00  0.00    -0.436 NA 
HETATM   11  N   UNL     1     -12.276  12.345  66.077  1.00  0.00    -0.624 NA 
HETATM   12  C   UNL     1     -12.028  11.269  69.538  1.00  0.00    -0.351 A  
HETATM   13  C   UNL     1     -12.170  13.345  65.172  1.00  0.00    -0.434 A  
HETATM   14  C   UNL     1     -13.118  10.987  72.059  1.00  0.00    -0.449 A  
HETATM   15  C   UNL     1     -12.610   9.923  71.333  1.00  0.00    -0.398 A  
HETATM   16  C   UNL     1     -11.561  14.551  65.442  1.00  0.00    -0.355 A  
HETATM   17  N   UNL     1     -12.116  10.035  70.082  1.00  0.00    -0.151 NA 
HETATM   18  C   UNL     1     -11.253  14.822  66.763  1.00  0.00    -0.344 A  
ENDROOT
BRANCH  10  19
HETATM   19  C   UNL     1     -10.314  10.796  67.853  1.00  0.00    -0.185 C  
HETATM   20  C   UNL     1      -9.129  11.553  67.330  1.00  0.00    -0.166 C  
HETATM   21  C   UNL     1      -9.093  10.983  68.715  1.00  0.00    -0.161 C  
ENDBRANCH  10  19
TORSDOF 1
ENDMDL
MODEL        3
REMARK 921   NORMALIZED FREE ENERGY PREDICTED BY IDOCK:   -6.49 KCAL/MOL
REMARK 922        TOTAL FREE ENERGY PREDICTED BY IDOCK:   -7.17 KCAL/MOL
REMARK 923 INTER-LIGAND FREE ENERGY PREDICTED BY IDOCK:   -6.87 KCAL/MOL
REMARK 924 INTRA-LIGAND FREE ENERGY PREDICTED BY IDOCK:   -0.30 KCAL/MOL
REMARK 927      BINDING AFFINITY PREDICTED BY RF-SCORE:    0.00 PKD
ROOT
HETATM    1  C   UNL     1     -10.408  17.318  68.724  1.00  0.00    -0.358 C  
HETATM    2  C   UNL     1     -11.009  16.011  69.142  1.00  0.00    -0.297 A  
HETATM    3  C   UNL     1     -10.980  14.893  68.308  1.00  0.00    -0.264 A  
HETATM    4  N   UNL     1      -9.778  14.675  67.568  1.00  0.00    -0.209 N  
HETATM    5  C   UNL     1      -9.878  14.603  66.198  1.00  0.00    -0.312 C  
HETATM    6  H   UNL     1      -8.879  14.576  68.038  1.00  0.00     0.000 HD 
HETATM    7  C   UNL     1     -10.660  13.506  65.596  1.00  0.00    -0.284 A  
HETATM    8  O   UNL     1      -9.304  15.404  65.471  1.00  0.00    -0.237 OA 
HETATM    9  C   UNL     1     -11.841  13.016  66.148  1.00  0.00    -0.409 A  
HETATM   10  N   UNL     1     -12.008  12.804  67.554  1.00  0.00    -0.381 NA 
HETATM   11  N   UNL     1     -12.784  12.479  65.326  1.00  0.00    -0.590 NA 
HETATM   12  C   UNL     1     -11.797  13.786  68.568  1.00  0.00    -0.370 A  
HETATM   13  C   UNL     1     -12.492  12.306  64.017  1.00  0.00    -0.458 A  
HETATM   14  C   UNL     1     -11.621  15.864  70.378  1.00  0.00    -0.387 A  
HETATM   15  C   UNL     1     -12.238  14.659  70.669  1.00  0.00    -0.325 A  
HETATM   16  C   UNL     1     -11.236  12.505  63.488  1.00  0.00    -0.525 A  
HETATM   17  N   UNL     1     -12.373  13.650  69.782  1.00  0.00    -0.276 NA 
HETATM   18  C   UNL     1     -10.301  13.127  64.296  1.00  0.00    -0.361 A  
ENDROOT
BRANCH  10  19
HETATM   19  C   UNL     1     -11.656  11.415  67.970  1.00  0.00    -0.286 C  
HETATM   20  C   UNL     1     -10.702  10.536  67.217  1.00  0.00    -0.333 C  
HETATM   21  C   UNL     1     -10.315  11.067  68.562  1.00  0.00    -0.204 C  
ENDBRANCH  10  19
TORSDOF 1
ENDMDL
MODEL        4
REMARK 921   NORMALIZED FREE ENERGY PREDICTED BY IDOCK:   -6.49 KCAL/MOL
REMARK 922        TOTAL FREE ENERGY PREDICTED BY IDOCK:   -7.16 KCAL/MOL
REMARK 923 INTER-LIGAND FREE ENERGY PREDICTED BY IDOCK:   -6.87 KCAL/MOL
REMARK 924 INTRA-LIGAND FREE ENERGY PREDICTED BY IDOCK:   -0.30 KCAL/MOL
REMARK 927      BINDING AFFINITY PREDICTED BY RF-SCORE:    0.00 PKD
ROOT
HETATM    1  C   UNL     1     -11.154  16.436  69.761  1.00  0.00    -0.305 C  
HETATM    2  C   UNL     1     -10.890  16.394  68.288  1.00  0.00    -0.347 A  
HETATM    3  C   UNL     1     -10.985  15.206  67.562  1.00  0.00    -0.310 A  
HETATM    4  N   UNL     1     -12.061  14.331  67.900  1.00  0.00    -0.567 N  
HETATM    5  C   UNL     1     -11.743  13.047  68.278  1.00  0.00    -0.353 C  
HETATM    6  H   UNL     1     -13.030  14.646  67.863  1.00  0.00     0.000 HD 
HETATM    7  C   UNL     1     -11.090  12.156  67.299  1.00  0.00    -0.341 A  
HETATM    8  O   UNL     1     -12.023  12.618  69.390  1.00  0.00    -0.301 OA 
HETATM    9  C   UNL     1     -10.134  12.595  66.386  1.00  0.00    -0.253 A  
HETATM   10  N   UNL     1     -10.254  13.831  65.674  1.00  0.00    -0.305 NA 
HETATM   11  N   UNL     1      -9.181  11.722  65.953  1.00  0.00    -0.206 NA 
HETATM   12  C   UNL     1     -10.447  15.112  66.272  1.00  0.00    -0.307 A  
HETATM   13  C   UNL     1      -9.272  10.421  66.310  1.00  0.00    -0.166 A  
HETATM   14  C   UNL     1     -10.537  17.538  67.588  1.00  0.00    -0.355 A  
HETATM   15  C   UNL     1     -10.217  17.418  66.246  1.00  0.00    -0.341 A  
HETATM   16  C   UNL     1     -10.358   9.890  66.970  1.00  0.00    -0.303 A  
HETATM   17  N   UNL     1     -10.123  16.238  65.599  1.00  0.00    -0.489 NA 
HETATM   18  C   UNL     1     -11.285  10.781  67.482  1.00  0.00    -0.346 A  
ENDROOT
BRANCH  10  19
HETATM   19  C   UNL     1     -10.926  13.669  64.351  1.00  0.00    -0.366 C  
HETATM   20  C   UNL     1     -11.960  12.621  64.066  1.00  0.00    -0.530 C  
HETATM   21  C   UNL     1     -12.363  14.062  64.126  1.00  0.00    -0.374 C  
ENDBRANCH  10  19
TORSDOF 1
ENDMDL
MODEL        5
REMARK 921   NORMALIZED FREE ENERGY PREDICTED BY IDOCK:   -6.23 KCAL/MOL
REMARK 922        TOTAL FREE ENERGY PREDICTED BY IDOCK:   -6.89 KCAL/MOL
REMARK 923 INTER-LIGAND FREE ENERGY PREDICTED BY IDOCK:   -6.59 KCAL/MOL
REMARK 924 INTRA-LIGAND FREE ENERGY PREDICTED BY IDOCK:   -0.30 KCAL/MOL
REMARK 927      BINDING AFFINITY PREDICTED BY RF-SCORE:    0.00 PKD
ROOT
HETATM    1  C   UNL     1     -13.154  11.199  71.894  1.00  0.00    -0.513 C  
HETATM    2  C   UNL     1     -12.225  10.481  70.966  1.00  0.00    -0.505 A  
HETATM    3  C   UNL     1     -11.715  11.095  69.821  1.00  0.00    -0.345 A  
HETATM    4  N   UNL     1     -11.337  12.466  69.942  1.00  0.00    -0.513 N  
HETATM    5  C   UNL     1     -11.935  13.370  69.095  1.00  0.00    -0.317 C  
HETATM    6  H   UNL     1     -10.648  12.765  70.632  1.00  0.00     0.000 HD 
HETATM    7  C   UNL     1     -11.702  13.249  67.643  1.00  0.00    -0.408 A  
HETATM    8  O   UNL     1     -12.622  14.289  69.520  1.00  0.00    -0.226 OA 
HETATM    9  C   UNL     1     -11.606  12.025  66.984  1.00  0.00    -0.317 A  
HETATM   10  N   UNL     1     -10.891  10.909  67.524  1.00  0.00    -0.252 NA 
HETATM   11  N   UNL     1     -11.977  11.946  65.675  1.00  0.00    -0.390 NA 
HETATM   12  C   UNL     1     -11.107  10.336  68.813  1.00  0.00    -0.228 A  
HETATM   13  C   UNL     1     -12.294  13.082  65.013  1.00  0.00    -0.473 A  
HETATM   14  C   UNL     1     -11.835   9.172  71.209  1.00  0.00    -0.396 A  
HETATM   15  C   UNL     1     -11.047   8.532  70.267  1.00  0.00    -0.214 A  
HETATM   16  C   UNL     1     -12.121  14.342  65.543  1.00  0.00    -0.397 A  
HETATM   17  N   UNL     1     -10.720   9.068  69.072  1.00  0.00    -0.186 NA 
HETATM   18  C   UNL     1     -11.825  14.425  66.892  1.00  0.00    -0.433 A  
ENDROOT
BRANCH  10  19
HETATM   19  C   UNL     1      -9.471  10.862  67.068  1.00  0.00    -0.164 C  
HETATM   20  C   UNL     1      -8.709  12.062  66.589  1.00  0.00    -0.171 C  
HETATM   21  C   UNL     1      -8.342  11.423  67.892  1.00  0.00    -0.137 C  
ENDBRANCH  10  19
TORSDOF 1
ENDMDL
MODEL        6
REMARK 921   NORMALIZED FREE ENERGY PREDICTED BY IDOCK:   -6.19 KCAL/MOL
REMARK 922        TOTAL FREE ENERGY PREDICTED BY IDOCK:   -6.85 KCAL/MOL
REMARK 923 INTER-LIGAND FREE ENERGY PREDICTED BY IDOCK:   -6.55 KCAL/MOL
REMARK 924 INTRA-LIGAND FREE ENERGY PREDICTED BY IDOCK:   -0.30 KCAL/MOL
REMARK 927      BINDING AFFINITY PREDICTED BY RF-SCORE:    0.00 PKD
ROOT
HETATM    1  C   UNL     1     -11.132  12.677  63.475  1.00  0.00    -0.449 C  
HETATM    2  C   UNL     1     -10.737  12.597  64.917  1.00  0.00    -0.327 A  
HETATM    3  C   UNL     1     -10.609  13.742  65.705  1.00  0.00    -0.298 A  
HETATM    4  N   UNL     1     -11.583  14.767  65.511  1.00  0.00    -0.330 N  
HETATM    5  C   UNL     1     -11.130  16.020  65.167  1.00  0.00    -0.283 C  
HETATM    6  H   UNL     1     -12.579  14.578  65.624  1.00  0.00     0.000 HD 
HETATM    7  C   UNL     1     -10.281  16.759  66.120  1.00  0.00    -0.363 A  
HETATM    8  O   UNL     1     -11.446  16.546  64.107  1.00  0.00    -1.059 OA 
HETATM    9  C   UNL     1      -9.317  16.148  66.918  1.00  0.00    -0.227 A  
HETATM   10  N   UNL     1      -9.538  14.897  67.578  1.00  0.00    -0.203 NA 
HETATM   11  N   UNL     1      -8.222  16.862  67.300  1.00  0.00    -0.179 NA 
HETATM   12  C   UNL     1      -9.953  13.689  66.941  1.00  0.00    -0.260 A  
HETATM   13  C   UNL     1      -8.168  18.183  67.015  1.00  0.00    -0.235 A  
HETATM   14  C   UNL     1     -10.481  11.378  65.526  1.00  0.00    -0.322 A  
HETATM   15  C   UNL     1     -10.032  11.375  66.836  1.00  0.00    -0.206 A  
HETATM   16  C   UNL     1      -9.227  18.888  66.486  1.00  0.00    -0.342 A  
HETATM   17  N   UNL     1      -9.725  12.493  67.527  1.00  0.00    -0.193 NA 
HETATM   18  C   UNL     1     -10.306  18.156  66.022  1.00  0.00    -0.360 A  
ENDROOT
BRANCH  10  19
HETATM   19  C   UNL     1     -10.065  15.065  68.965  1.00  0.00    -0.241 C  
HETATM   20  C   UNL     1     -10.789  16.291  69.437  1.00  0.00    -0.331 C  
HETATM   21  C   UNL     1     -11.537  15.003  69.279  1.00  0.00    -0.338 C  
ENDBRANCH  10  19
TORSDOF 1
ENDMDL
MODEL        7
REMARK 921   NORMALIZED FREE ENERGY PREDICTED BY IDOCK:   -6.14 KCAL/MOL
REMARK 922        TOTAL FREE ENERGY PREDICTED BY IDOCK:   -6.79 KCAL/MOL
REMARK 923 INTER-LIGAND FREE ENERGY PREDICTED BY IDOCK:   -6.49 KCAL/MOL
REMARK 924 INTRA-LIGAND FREE ENERGY PREDICTED BY IDOCK:   -0.30 KCAL/MOL
REMARK 927      BINDING AFFINITY PREDICTED BY RF-SCORE:    0.00 PKD
ROOT
HETATM    1  C   UNL     1      -9.953  10.807  63.332  1.00  0.00    -0.385 C  
HETATM    2  C   UNL     1     -10.829  11.822  63.997  1.00  0.00    -0.446 A  
HETATM    3  C   UNL     1     -10.846  11.977  65.384  1.00  0.00    -0.291 A  
HETATM    4  N   UNL     1      -9.589  11.886  66.056  1.00  0.00    -0.233 N  
HETATM    5  C   UNL     1      -9.462  10.938  67.043  1.00  0.00    -0.164 C  
HETATM    6  H   UNL     1      -8.814  12.503  65.812  1.00  0.00     0.000 HD 
HETATM    7  C   UNL     1     -10.302  11.047  68.251  1.00  0.00    -0.197 A  
HETATM    8  O   UNL     1      -8.644  10.030  66.958  1.00  0.00    -0.125 OA 
HETATM    9  C   UNL     1     -11.626  11.478  68.225  1.00  0.00    -0.308 A  
HETATM   10  N   UNL     1     -12.067  12.576  67.419  1.00  0.00    -0.455 NA 
HETATM   11  N   UNL     1     -12.491  11.022  69.174  1.00  0.00    -0.361 NA 
HETATM   12  C   UNL     1     -11.871  12.697  66.011  1.00  0.00    -0.436 A  
HETATM   13  C   UNL     1     -12.011  10.278  70.196  1.00  0.00    -0.234 A  
HETATM   14  C   UNL     1     -11.662  12.649  63.258  1.00  0.00    -0.466 A  
HETATM   15  C   UNL     1     -12.514  13.504  63.936  1.00  0.00    -0.228 A  
HETATM   16  C   UNL     1     -10.667  10.074  70.419  1.00  0.00    -0.369 A  
HETATM   17  N   UNL     1     -12.663  13.509  65.277  1.00  0.00    -0.657 NA 
HETATM   18  C   UNL     1      -9.793  10.462  69.418  1.00  0.00    -0.235 A  
ENDROOT
BRANCH  10  19
HETATM   19  C   UNL     1     -12.032  13.876  68.152  1.00  0.00    -0.350 C  
HETATM   20  C   UNL     1     -11.128  14.151  69.316  1.00  0.00    -0.286 C  
HETATM   21  C   UNL     1     -10.890  14.848  68.012  1.00  0.00    -0.263 C  
ENDBRANCH  10  19
TORSDOF 1
ENDMDL
MODEL        8
REMARK 921   NORMALIZED FREE ENERGY PREDICTED BY IDOCK:   -6.08 KCAL/MOL
REMARK 922        TOTAL FREE ENERGY PREDICTED BY IDOCK:   -6.74 KCAL/MOL
REMARK 923 INTER-LIGAND FREE ENERGY PREDICTED BY IDOCK:   -6.46 KCAL/MOL
REMARK 924 INTRA-LIGAND FREE ENERGY PREDICTED BY IDOCK:   -0.27 KCAL/MOL
REMARK 927      BINDING AFFINITY PREDICTED BY RF-SCORE:    0.00 PKD
ROOT
HETATM    1  C   UNL     1     -11.224  16.191  70.671  1.00  0.00    -0.371 C  
HETATM    2  C   UNL     1     -11.030  16.267  69.189  1.00  0.00    -0.324 A  
HETATM    3  C   UNL     1     -11.162  15.141  68.375  1.00  0.00    -0.299 A  
HETATM    4  N   UNL     1     -12.222  14.239  68.693  1.00  0.00    -0.568 N  
HETATM    5  C   UNL     1     -11.888  12.930  68.951  1.00  0.00    -0.309 C  
HETATM    6  H   UNL     1     -13.191  14.554  68.728  1.00  0.00     0.000 HD 
HETATM    7  C   UNL     1     -11.284  12.122  67.875  1.00  0.00    -0.329 A  
HETATM    8  O   UNL     1     -12.115  12.413  70.038  1.00  0.00    -0.309 OA 
HETATM    9  C   UNL     1     -10.372  12.634  66.954  1.00  0.00    -0.233 A  
HETATM   10  N   UNL     1     -10.524  13.923  66.351  1.00  0.00    -0.280 NA 
HETATM   11  N   UNL     1      -9.442  11.801  66.408  1.00  0.00    -0.216 NA 
HETATM   12  C   UNL     1     -10.687  15.152  67.058  1.00  0.00    -0.307 A  
HETATM   13  C   UNL     1      -9.518  10.476  66.665  1.00  0.00    -0.168 A  
HETATM   14  C   UNL     1     -10.710  17.464  68.566  1.00  0.00    -0.279 A  
HETATM   15  C   UNL     1     -10.454  17.453  67.205  1.00  0.00    -0.321 A  
HETATM   16  C   UNL     1     -10.572   9.891  67.330  1.00  0.00    -0.338 A  
HETATM   17  N   UNL     1     -10.393  16.328  66.462  1.00  0.00    -0.300 NA 
HETATM   18  C   UNL     1     -11.472  10.736  67.956  1.00  0.00    -0.333 A  
ENDROOT
BRANCH  10  19
HETATM   19  C   UNL     1     -11.259  13.866  65.053  1.00  0.00    -0.342 C  
HETATM   20  C   UNL     1     -12.012  12.660  64.575  1.00  0.00    -0.464 C  
HETATM   21  C   UNL     1     -12.763  13.891  64.979  1.00  0.00    -0.372 C  
ENDBRANCH  10  19
TORSDOF 1
ENDMDL
MODEL        9
REMARK 921   NORMALIZED FREE ENERGY PREDICTED BY IDOCK:   -5.98 KCAL/MOL
REMARK 922        TOTAL FREE ENERGY PREDICTED BY IDOCK:   -6.62 KCAL/MOL
REMARK 923 INTER-LIGAND FREE ENERGY PREDICTED BY IDOCK:   -6.33 KCAL/MOL
REMARK 924 INTRA-LIGAND FREE ENERGY PREDICTED BY IDOCK:   -0.30 KCAL/MOL
REMARK 927      BINDING AFFINITY PREDICTED BY RF-SCORE:    0.00 PKD
ROOT
HETATM    1  C   UNL     1     -11.028  20.003  65.471  1.00  0.00    -0.061 C  
HETATM    2  C   UNL     1     -10.212  19.350  66.544  1.00  0.00    -0.544 A  
HETATM    3  C   UNL     1     -10.047  17.965  66.596  1.00  0.00    -0.362 A  
HETATM    4  N   UNL     1      -9.863  17.293  65.350  1.00  0.00     0.285 N  
HETATM    5  C   UNL     1     -10.751  16.293  65.027  1.00  0.00    -0.298 C  
HETATM    6  H   UNL     1      -9.100  17.544  64.722  1.00  0.00     0.000 HD 
HETATM    7  C   UNL     1     -10.806  15.087  65.874  1.00  0.00    -0.339 A  
HETATM    8  O   UNL     1     -11.466  16.368  64.036  1.00  0.00    -1.048 OA 
HETATM    9  C   UNL     1     -10.665  15.118  67.260  1.00  0.00    -0.305 A  
HETATM   10  N   UNL     1      -9.695  15.938  67.920  1.00  0.00    -0.216 NA 
HETATM   11  N   UNL     1     -11.282  14.163  68.011  1.00  0.00    -0.269 NA 
HETATM   12  C   UNL     1      -9.552  17.347  67.751  1.00  0.00    -0.264 A  
HETATM   13  C   UNL     1     -11.895  13.132  67.387  1.00  0.00    -0.361 A  
HETATM   14  C   UNL     1      -9.589  20.099  67.530  1.00  0.00    -0.547 A  
HETATM   15  C   UNL     1      -8.925  19.432  68.545  1.00  0.00    -0.370 A  
HETATM   16  C   UNL     1     -11.808  12.907  66.030  1.00  0.00    -0.485 A  
HETATM   17  N   UNL     1      -8.935  18.090  68.695  1.00  0.00    -0.295 NA 
HETATM   18  C   UNL     1     -11.257  13.913  65.256  1.00  0.00    -0.313 A  
ENDROOT
BRANCH  10  19
HETATM   19  C   UNL     1      -8.408  15.221  68.162  1.00  0.00    -0.149 C  
HETATM   20  C   UNL     1      -7.877  14.139  67.270  1.00  0.00    -0.154 C  
HETATM   21  C   UNL     1      -7.181  15.464  67.323  1.00  0.00    -0.229 C  
ENDBRANCH  10  19
TORSDOF 1
ENDMDL
MODEL       10
REMARK 921   NORMALIZED FREE ENERGY PREDICTED BY IDOCK:   -5.95 KCAL/MOL
REMARK 922        TOTAL FREE ENERGY PREDICTED BY IDOCK:   -6.60 KCAL/MOL
REMARK 923 INTER-LIGAND FREE ENERGY PREDICTED BY IDOCK:   -6.70 KCAL/MOL
REMARK 924 INTRA-LIGAND FREE ENERGY PREDICTED BY IDOCK:    0.10 KCAL/MOL
REMARK 927      BINDING AFFINITY PREDICTED BY RF-SCORE:    0.00 PKD
ROOT
HETATM    1  C   UNL     1     -13.452  12.606  72.085  1.00  0.00    -0.561 C  
HETATM    2  C   UNL     1     -12.874  13.983  71.989  1.00  0.00    -0.415 A  
HETATM    3  C   UNL     1     -12.185  14.409  70.852  1.00  0.00    -0.342 A  
HETATM    4  N   UNL     1     -12.713  14.001  69.590  1.00  0.00    -0.348 N  
HETATM    5  C   UNL     1     -11.885  13.291  68.752  1.00  0.00    -0.334 C  
HETATM    6  H   UNL     1     -13.670  14.227  69.320  1.00  0.00     0.000 HD 
HETATM    7  C   UNL     1     -10.667  13.941  68.233  1.00  0.00    -0.261 A  
HETATM    8  O   UNL     1     -12.155  12.149  68.401  1.00  0.00    -0.369 OA 
HETATM    9  C   UNL     1      -9.886  14.814  68.988  1.00  0.00    -0.206 A  
HETATM   10  N   UNL     1     -10.449  15.810  69.848  1.00  0.00    -0.307 NA 
HETATM   11  N   UNL     1      -8.553  14.908  68.723  1.00  0.00    -0.171 NA 
HETATM   12  C   UNL     1     -11.395  15.565  70.886  1.00  0.00    -0.369 A  
HETATM   13  C   UNL     1      -8.051  14.261  67.646  1.00  0.00    -0.179 A  
HETATM   14  C   UNL     1     -13.000  14.891  73.030  1.00  0.00    -0.599 A  
HETATM   15  C   UNL     1     -12.366  16.117  72.917  1.00  0.00    -0.511 A  
HETATM   16  C   UNL     1      -8.836  13.628  66.708  1.00  0.00    -0.150 A  
HETATM   17  N   UNL     1     -11.542  16.446  71.900  1.00  0.00    -0.389 NA 
HETATM   18  C   UNL     1     -10.174  13.458  67.014  1.00  0.00    -0.249 A  
ENDROOT
BRANCH  10  19
HETATM   19  C   UNL     1     -10.623  17.126  69.164  1.00  0.00    -0.259 C  
HETATM   20  C   UNL     1      -9.490  17.917  68.580  1.00  0.00    -0.316 C  
HETATM   21  C   UNL     1     -10.494  17.279  67.671  1.00  0.00    -0.363 C  
ENDBRANCH  10  19
TORSDOF 1
ENDMDL
MODEL       11
REMARK 921   NORMALIZED FREE ENERGY PREDICTED BY IDOCK:   -5.94 KCAL/MOL
REMARK 922        TOTAL FREE ENERGY PREDICTED BY IDOCK:   -6.59 KCAL/MOL
REMARK 923 INTER-LIGAND FREE ENERGY PREDICTED BY IDOCK:   -6.89 KCAL/MOL
REMARK 924 INTRA-LIGAND FREE ENERGY PREDICTED BY IDOCK:    0.30 KCAL/MOL
REMARK 927      BINDING AFFINITY PREDICTED BY RF-SCORE:    0.00 PKD
ROOT
HETATM    1  C   UNL     1     -12.331  12.570  65.053  1.00  0.00    -0.522 C  
HETATM    2  C   UNL     1     -11.656  13.805  65.565  1.00  0.00    -0.335 A  
HETATM    3  C   UNL     1     -11.480  14.029  66.931  1.00  0.00    -0.356 A  
HETATM    4  N   UNL     1     -11.122  12.898  67.726  1.00  0.00    -0.248 N  
HETATM    5  C   UNL     1     -11.945  12.573  68.779  1.00  0.00    -0.238 C  
HETATM    6  H   UNL     1     -10.286  12.352  67.521  1.00  0.00     0.000 HD 
HETATM    7  C   UNL     1     -12.096  13.532  69.890  1.00  0.00    -0.408 A  
HETATM    8  O   UNL     1     -12.523  11.495  68.830  1.00  0.00    -0.331 OA 
HETATM    9  C   UNL     1     -12.141  14.912  69.708  1.00  0.00    -0.314 A  
HETATM   10  N   UNL     1     -11.279  15.601  68.796  1.00  0.00    -0.309 NA 
HETATM   11  N   UNL     1     -12.839  15.675  70.595  1.00  0.00    -0.434 NA 
HETATM   12  C   UNL     1     -11.135  15.299  67.409  1.00  0.00    -0.326 A  
HETATM   13  C   UNL     1     -13.349  15.092  71.703  1.00  0.00    -0.431 A  
HETATM   14  C   UNL     1     -11.181  14.777  64.698  1.00  0.00    -0.350 A  
HETATM   15  C   UNL     1     -10.648  15.937  65.234  1.00  0.00    -0.419 A  
HETATM   16  C   UNL     1     -13.079  13.792  72.068  1.00  0.00    -0.485 A  
HETATM   17  N   UNL     1     -10.660  16.229  66.552  1.00  0.00    -0.291 NA 
HETATM   18  C   UNL     1     -12.444  12.992  71.135  1.00  0.00    -0.364 A  
ENDROOT
BRANCH  10  19
HETATM   19  C   UNL     1     -10.026  16.086  69.446  1.00  0.00    -0.262 C  
HETATM   20  C   UNL     1      -8.732  15.327  69.431  1.00  0.00    -0.216 C  
HETATM   21  C   UNL     1      -8.855  16.600  68.651  1.00  0.00    -0.249 C  
ENDBRANCH  10  19
TORSDOF 1
ENDMDL
MODEL       12
REMARK 921   NORMALIZED FREE ENERGY PREDICTED BY IDOCK:   -5.85 KCAL/MOL
REMARK 922        TOTAL FREE ENERGY PREDICTED BY IDOCK:   -6.49 KCAL/MOL
REMARK 923 INTER-LIGAND FREE ENERGY PREDICTED BY IDOCK:   -6.84 KCAL/MOL
REMARK 924 INTRA-LIGAND FREE ENERGY PREDICTED BY IDOCK:    0.35 KCAL/MOL
REMARK 927      BINDING AFFINITY PREDICTED BY RF-SCORE:    0.00 PKD
ROOT
HETATM    1  C   UNL     1     -12.071  16.238  72.315  1.00  0.00    -0.567 C  
HETATM    2  C   UNL     1     -11.662  15.687  70.984  1.00  0.00    -0.444 A  
HETATM    3  C   UNL     1     -11.953  14.373  70.616  1.00  0.00    -0.323 A  
HETATM    4  N   UNL     1     -13.235  13.870  70.990  1.00  0.00    -0.244 N  
HETATM    5  C   UNL     1     -13.273  12.733  71.763  1.00  0.00    -0.374 C  
HETATM    6  H   UNL     1     -14.093  14.336  70.695  1.00  0.00     0.000 HD 
HETATM    7  C   UNL     1     -12.743  11.473  71.207  1.00  0.00    -0.469 A  
HETATM    8  O   UNL     1     -13.768  12.736  72.883  1.00  0.00    -0.345 OA 
HETATM    9  C   UNL     1     -11.615  11.413  70.391  1.00  0.00    -0.172 A  
HETATM   10  N   UNL     1     -11.360  12.363  69.352  1.00  0.00    -0.246 NA 
HETATM   11  N   UNL     1     -10.853  10.284  70.397  1.00  0.00    -0.291 NA 
HETATM   12  C   UNL     1     -11.312  13.779  69.521  1.00  0.00    -0.224 A  
HETATM   13  C   UNL     1     -11.286   9.203  71.084  1.00  0.00    -0.322 A  
HETATM   14  C   UNL     1     -10.974  16.465  70.065  1.00  0.00    -0.322 A  
HETATM   15  C   UNL     1     -10.544  15.873  68.890  1.00  0.00    -0.244 A  
HETATM   16  C   UNL     1     -12.534   9.122  71.662  1.00  0.00    -0.434 A  
HETATM   17  N   UNL     1     -10.659  14.554  68.627  1.00  0.00    -0.248 NA 
HETATM   18  C   UNL     1     -13.275  10.288  71.731  1.00  0.00    -0.534 A  
ENDROOT
BRANCH  10  19
HETATM   19  C   UNL     1     -11.900  11.927  68.030  1.00  0.00    -0.253 C  
HETATM   20  C   UNL     1     -11.549  12.585  66.729  1.00  0.00    -0.446 C  
HETATM   21  C   UNL     1     -11.055  11.201  67.016  1.00  0.00    -0.339 C  
ENDBRANCH  10  19
TORSDOF 1
ENDMDL
MODEL       13
REMARK 921   NORMALIZED FREE ENERGY PREDICTED BY IDOCK:   -5.81 KCAL/MOL
REMARK 922        TOTAL FREE ENERGY PREDICTED BY IDOCK:   -6.45 KCAL/MOL
REMARK 923 INTER-LIGAND FREE ENERGY PREDICTED BY IDOCK:   -6.14 KCAL/MOL
REMARK 924 INTRA-LIGAND FREE ENERGY PREDICTED BY IDOCK:   -0.30 KCAL/MOL
REMARK 927      BINDING AFFINITY PREDICTED BY RF-SCORE:    0.00 PKD
ROOT
HETATM    1  C   UNL     1     -11.622  14.844  69.830  1.00  0.00    -0.339 C  
HETATM    2  C   UNL     1     -11.228  15.073  68.404  1.00  0.00    -0.303 A  
HETATM    3  C   UNL     1     -11.111  14.017  67.499  1.00  0.00    -0.298 A  
HETATM    4  N   UNL     1     -12.095  12.985  67.584  1.00  0.00    -0.285 N  
HETATM    5  C   UNL     1     -11.653  11.699  67.793  1.00  0.00    -0.289 C  
HETATM    6  H   UNL     1     -13.089  13.194  67.494  1.00  0.00     0.000 HD 
HETATM    7  C   UNL     1     -10.812  11.058  66.765  1.00  0.00    -0.307 A  
HETATM    8  O   UNL     1     -11.973  11.067  68.791  1.00  0.00    -0.457 OA 
HETATM    9  C   UNL     1      -9.842  11.742  66.035  1.00  0.00    -0.232 A  
HETATM   10  N   UNL     1     -10.053  13.057  65.512  1.00  0.00    -0.280 NA 
HETATM   11  N   UNL     1      -8.754  11.061  65.577  1.00  0.00    -0.172 NA 
HETATM   12  C   UNL     1     -10.456  14.194  66.274  1.00  0.00    -0.286 A  
HETATM   13  C   UNL     1      -8.713   9.717  65.721  1.00  0.00    -0.142 A  
HETATM   14  C   UNL     1     -10.961  16.347  67.927  1.00  0.00    -0.298 A  
HETATM   15  C   UNL     1     -10.513  16.485  66.624  1.00  0.00    -0.266 A  
HETATM   16  C   UNL     1      -9.778   8.970  66.173  1.00  0.00    -0.354 A  
HETATM   17  N   UNL     1     -10.217  15.443  65.818  1.00  0.00    -0.325 NA 
HETATM   18  C   UNL     1     -10.849   9.658  66.715  1.00  0.00    -0.051 A  
ENDROOT
BRANCH  10  19
HETATM   19  C   UNL     1     -10.582  13.042  64.116  1.00  0.00    -0.397 C  
HETATM   20  C   UNL     1     -11.269  11.860  63.499  1.00  0.00    -0.501 C  
HETATM   21  C   UNL     1     -12.057  13.093  63.815  1.00  0.00    -0.563 C  
ENDBRANCH  10  19
TORSDOF 1
ENDMDL
MODEL       14
REMARK 921   NORMALIZED FREE ENERGY PREDICTED BY IDOCK:   -5.78 KCAL/MOL
REMARK 922        TOTAL FREE ENERGY PREDICTED BY IDOCK:   -6.42 KCAL/MOL
REMARK 923 INTER-LIGAND FREE ENERGY PREDICTED BY IDOCK:   -6.74 KCAL/MOL
REMARK 924 INTRA-LIGAND FREE ENERGY PREDICTED BY IDOCK:    0.32 KCAL/MOL
REMARK 927      BINDING AFFINITY PREDICTED BY RF-SCORE:    0.00 PKD
ROOT
HETATM    1  C   UNL     1      -5.953  14.788  67.932  1.00  0.00    -0.157 C  
HETATM    2  C   UNL     1      -6.546  16.001  67.285  1.00  0.00    -0.219 A  
HETATM    3  C   UNL     1      -7.917  16.105  67.045  1.00  0.00    -0.219 A  
HETATM    4  N   UNL     1      -8.787  15.607  68.063  1.00  0.00    -0.168 N  
HETATM    5  C   UNL     1      -9.689  14.632  67.709  1.00  0.00    -0.215 C  
HETATM    6  H   UNL     1      -8.741  15.963  69.017  1.00  0.00     0.000 HD 
HETATM    7  C   UNL     1     -10.737  14.953  66.721  1.00  0.00    -0.312 A  
HETATM    8  O   UNL     1      -9.665  13.520  68.221  1.00  0.00    -0.218 OA 
HETATM    9  C   UNL     1     -10.520  15.772  65.615  1.00  0.00    -0.383 A  
HETATM   10  N   UNL     1      -9.754  16.980  65.685  1.00  0.00    -0.548 NA 
HETATM   11  N   UNL     1     -11.257  15.572  64.487  1.00  0.00    -0.367 NA 
HETATM   12  C   UNL     1      -8.419  17.083  66.178  1.00  0.00    -0.227 A  
HETATM   13  C   UNL     1     -12.274  14.681  64.516  1.00  0.00    -0.456 A  
HETATM   14  C   UNL     1      -5.753  17.069  66.895  1.00  0.00    -0.214 A  
HETATM   15  C   UNL     1      -6.347  18.121  66.220  1.00  0.00    -0.214 A  
HETATM   16  C   UNL     1     -12.708  14.065  65.669  1.00  0.00    -0.515 A  
HETATM   17  N   UNL     1      -7.637  18.125  65.821  1.00  0.00    -0.543 NA 
HETATM   18  C   UNL     1     -11.916  14.199  66.795  1.00  0.00    -0.475 A  
ENDROOT
BRANCH  10  19
HETATM   19  C   UNL     1     -10.599  18.179  65.960  1.00  0.00    -0.264 C  
HETATM   20  C   UNL     1     -10.773  18.780  67.323  1.00  0.00    -0.490 C  
HETATM   21  C   UNL     1     -10.004  19.526  66.278  1.00  0.00    -0.538 C  
ENDBRANCH  10  19
TORSDOF 1
ENDMDL
MODEL       15
REMARK 921   NORMALIZED FREE ENERGY PREDICTED BY IDOCK:   -5.74 KCAL/MOL
REMARK 922        TOTAL FREE ENERGY PREDICTED BY IDOCK:   -6.38 KCAL/MOL
REMARK 923 INTER-LIGAND FREE ENERGY PREDICTED BY IDOCK:   -6.31 KCAL/MOL
REMARK 924 INTRA-LIGAND FREE ENERGY PREDICTED BY IDOCK:   -0.07 KCAL/MOL
REMARK 927      BINDING AFFINITY PREDICTED BY RF-SCORE:    0.00 PKD
ROOT
HETATM    1  C   UNL     1     -12.668   9.872  71.800  1.00  0.00    -0.523 C  
HETATM    2  C   UNL     1     -12.706  11.294  71.331  1.00  0.00    -0.501 A  
HETATM    3  C   UNL     1     -12.098  11.686  70.137  1.00  0.00    -0.333 A  
HETATM    4  N   UNL     1     -12.220  10.792  69.030  1.00  0.00    -0.490 N  
HETATM    5  C   UNL     1     -11.060  10.337  68.449  1.00  0.00    -0.247 C  
HETATM    6  H   UNL     1     -13.134  10.502  68.683  1.00  0.00     0.000 HD 
HETATM    7  C   UNL     1     -10.160  11.307  67.796  1.00  0.00    -0.199 A  
HETATM    8  O   UNL     1     -10.778   9.145  68.429  1.00  0.00    -0.194 OA 
HETATM    9  C   UNL     1      -9.929  12.589  68.291  1.00  0.00    -0.229 A  
HETATM   10  N   UNL     1     -10.973  13.413  68.819  1.00  0.00    -0.252 NA 
HETATM   11  N   UNL     1      -8.732  13.190  68.042  1.00  0.00    -0.182 NA 
HETATM   12  C   UNL     1     -11.873  13.040  69.861  1.00  0.00    -0.307 A  
HETATM   13  C   UNL     1      -7.857  12.588  67.206  1.00  0.00    -0.160 A  
HETATM   14  C   UNL     1     -13.347  12.278  72.068  1.00  0.00    -0.491 A  
HETATM   15  C   UNL     1     -13.270  13.588  71.628  1.00  0.00    -0.366 A  
HETATM   16  C   UNL     1      -8.163  11.466  66.468  1.00  0.00    -0.152 A  
HETATM   17  N   UNL     1     -12.518  13.986  70.580  1.00  0.00    -0.350 NA 
HETATM   18  C   UNL     1      -9.339  10.807  66.776  1.00  0.00    -0.182 A  
ENDROOT
BRANCH  10  19
HETATM   19  C   UNL     1     -11.576  14.307  67.786  1.00  0.00    -0.354 C  
HETATM   20  C   UNL     1     -10.930  14.608  66.466  1.00  0.00    -0.318 C  
HETATM   21  C   UNL     1     -12.172  13.774  66.510  1.00  0.00    -0.475 C  
ENDBRANCH  10  19
TORSDOF 1
ENDMDL
MODEL       16
REMARK 921   NORMALIZED FREE ENERGY PREDICTED BY IDOCK:   -5.72 KCAL/MOL
REMARK 922        TOTAL FREE ENERGY PREDICTED BY IDOCK:   -6.36 KCAL/MOL
REMARK 923 INTER-LIGAND FREE ENERGY PREDICTED BY IDOCK:   -6.53 KCAL/MOL
REMARK 924 INTRA-LIGAND FREE ENERGY PREDICTED BY IDOCK:    0.18 KCAL/MOL
REMARK 927      BINDING AFFINITY PREDICTED BY RF-SCORE:    0.00 PKD
ROOT
HETATM    1  C   UNL     1      -9.373  11.234  66.297  1.00  0.00    -0.226 C  
HETATM    2  C   UNL     1     -10.302  12.142  67.042  1.00  0.00    -0.232 A  
HETATM    3  C   UNL     1     -10.691  11.874  68.355  1.00  0.00    -0.220 A  
HETATM    4  N   UNL     1      -9.686  11.362  69.231  1.00  0.00    -0.404 N  
HETATM    5  C   UNL     1      -9.927  10.154  69.841  1.00  0.00    -0.203 C  
HETATM    6  H   UNL     1      -8.820  11.875  69.398  1.00  0.00     0.000 HD 
HETATM    7  C   UNL     1     -11.057  10.043  70.784  1.00  0.00    -0.407 A  
HETATM    8  O   UNL     1      -9.205   9.184  69.649  1.00  0.00    -0.154 OA 
HETATM    9  C   UNL     1     -12.276  10.691  70.595  1.00  0.00    -0.365 A  
HETATM   10  N   UNL     1     -12.370  12.041  70.127  1.00  0.00    -0.204 NA 
HETATM   11  N   UNL     1     -13.409  10.133  71.105  1.00  0.00    -0.351 NA 
HETATM   12  C   UNL     1     -11.779  12.542  68.929  1.00  0.00    -0.322 A  
HETATM   13  C   UNL     1     -13.304   9.043  71.898  1.00  0.00    -0.417 A  
HETATM   14  C   UNL     1     -10.815  13.287  66.451  1.00  0.00    -0.296 A  
HETATM   15  C   UNL     1     -11.740  14.037  67.159  1.00  0.00    -0.393 A  
HETATM   16  C   UNL     1     -12.100   8.545  72.347  1.00  0.00    -0.436 A  
HETATM   17  N   UNL     1     -12.256  13.665  68.349  1.00  0.00    -0.257 NA 
HETATM   18  C   UNL     1     -10.951   9.053  71.769  1.00  0.00    -0.443 A  
ENDROOT
BRANCH  10  19
HETATM   19  C   UNL     1     -12.422  13.032  71.241  1.00  0.00    -0.218 C  
HETATM   20  C   UNL     1     -13.430  14.140  71.324  1.00  0.00    -0.341 C  
HETATM   21  C   UNL     1     -13.498  13.002  72.295  1.00  0.00    -0.645 C  
ENDBRANCH  10  19
TORSDOF 1
ENDMDL
MODEL       17
REMARK 921   NORMALIZED FREE ENERGY PREDICTED BY IDOCK:   -5.68 KCAL/MOL
REMARK 922        TOTAL FREE ENERGY PREDICTED BY IDOCK:   -6.31 KCAL/MOL
REMARK 923 INTER-LIGAND FREE ENERGY PREDICTED BY IDOCK:   -6.05 KCAL/MOL
REMARK 924 INTRA-LIGAND FREE ENERGY PREDICTED BY IDOCK:   -0.26 KCAL/MOL
REMARK 927      BINDING AFFINITY PREDICTED BY RF-SCORE:    0.00 PKD
ROOT
HETATM    1  C   UNL     1     -12.277  13.766  69.499  1.00  0.00    -0.344 C  
HETATM    2  C   UNL     1     -11.288  12.853  68.844  1.00  0.00    -0.335 A  
HETATM    3  C   UNL     1     -11.088  11.547  69.295  1.00  0.00    -0.246 A  
HETATM    4  N   UNL     1     -12.251  10.820  69.693  1.00  0.00    -0.477 N  
HETATM    5  C   UNL     1     -12.285  10.323  70.974  1.00  0.00    -0.384 C  
HETATM    6  H   UNL     1     -13.028  10.674  69.049  1.00  0.00     0.000 HD 
HETATM    7  C   UNL     1     -11.294   9.304  71.372  1.00  0.00    -0.434 A  
HETATM    8  O   UNL     1     -13.138  10.678  71.777  1.00  0.00    -0.444 OA 
HETATM    9  C   UNL     1      -9.969   9.318  70.941  1.00  0.00    -0.297 A  
HETATM   10  N   UNL     1      -9.597   9.630  69.594  1.00  0.00    -0.195 NA 
HETATM   11  N   UNL     1      -9.007   8.776  71.738  1.00  0.00    -0.302 NA 
HETATM   12  C   UNL     1      -9.967  10.814  68.889  1.00  0.00    -0.202 A  
HETATM   13  C   UNL     1      -9.378   8.114  72.858  1.00  0.00    -0.273 A  
HETATM   14  C   UNL     1     -10.528  13.272  67.763  1.00  0.00    -0.242 A  
HETATM   15  C   UNL     1      -9.566  12.413  67.259  1.00  0.00    -0.199 A  
HETATM   16  C   UNL     1     -10.689   7.826  73.168  1.00  0.00    -0.414 A  
HETATM   17  N   UNL     1      -9.246  11.229  67.824  1.00  0.00    -0.153 NA 
HETATM   18  C   UNL     1     -11.669   8.442  72.410  1.00  0.00    -0.452 A  
ENDROOT
BRANCH  10  19
HETATM   19  C   UNL     1      -9.490   8.416  68.732  1.00  0.00    -0.147 C  
HETATM   20  C   UNL     1     -10.427   7.248  68.821  1.00  0.00    -0.214 C  
HETATM   21  C   UNL     1     -10.461   8.136  67.615  1.00  0.00    -0.300 C  
ENDBRANCH  10  19
TORSDOF 1
ENDMDL
MODEL       18
REMARK 921   NORMALIZED FREE ENERGY PREDICTED BY IDOCK:   -5.68 KCAL/MOL
REMARK 922        TOTAL FREE ENERGY PREDICTED BY IDOCK:   -6.31 KCAL/MOL
REMARK 923 INTER-LIGAND FREE ENERGY PREDICTED BY IDOCK:   -6.00 KCAL/MOL
REMARK 924 INTRA-LIGAND FREE ENERGY PREDICTED BY IDOCK:   -0.30 KCAL/MOL
REMARK 927      BINDING AFFINITY PREDICTED BY RF-SCORE:    0.00 PKD
ROOT
HETATM    1  C   UNL     1     -13.943   8.607  72.570  1.00  0.00    -0.374 C  
HETATM    2  C   UNL     1     -12.813   8.195  71.678  1.00  0.00    -0.347 A  
HETATM    3  C   UNL     1     -12.109   9.125  70.913  1.00  0.00    -0.214 A  
HETATM    4  N   UNL     1     -11.825  10.382  71.529  1.00  0.00    -0.240 N  
HETATM    5  C   UNL     1     -12.278  11.517  70.899  1.00  0.00    -0.322 C  
HETATM    6  H   UNL     1     -11.305  10.435  72.404  1.00  0.00     0.000 HD 
HETATM    7  C   UNL     1     -11.749  11.851  69.562  1.00  0.00    -0.410 A  
HETATM    8  O   UNL     1     -13.078  12.272  71.437  1.00  0.00    -0.328 OA 
HETATM    9  C   UNL     1     -11.466  10.894  68.591  1.00  0.00    -0.311 A  
HETATM   10  N   UNL     1     -10.827   9.649  68.895  1.00  0.00    -0.206 NA 
HETATM   11  N   UNL     1     -11.560  11.235  67.276  1.00  0.00    -0.543 NA 
HETATM   12  C   UNL     1     -11.275   8.707  69.868  1.00  0.00    -0.041 A  
HETATM   13  C   UNL     1     -11.786  12.528  66.948  1.00  0.00    -0.377 A  
HETATM   14  C   UNL     1     -12.423   6.868  71.579  1.00  0.00    -0.420 A  
HETATM   15  C   UNL     1     -11.432   6.538  70.670  1.00  0.00    -0.374 A  
HETATM   16  C   UNL     1     -11.781  13.555  67.867  1.00  0.00    -0.392 A  
HETATM   17  N   UNL     1     -10.893   7.413  69.795  1.00  0.00    -0.247 NA 
HETATM   18  C   UNL     1     -11.770  13.206  69.206  1.00  0.00    -0.376 A  
ENDROOT
BRANCH  10  19
HETATM   19  C   UNL     1      -9.343   9.716  68.751  1.00  0.00    -0.148 C  
HETATM   20  C   UNL     1      -8.551  10.984  68.876  1.00  0.00    -0.122 C  
HETATM   21  C   UNL     1      -8.429   9.927  69.930  1.00  0.00    -0.210 C  
ENDBRANCH  10  19
TORSDOF 1
ENDMDL
MODEL       19
REMARK 921   NORMALIZED FREE ENERGY PREDICTED BY IDOCK:   -5.66 KCAL/MOL
REMARK 922        TOTAL FREE ENERGY PREDICTED BY IDOCK:   -6.29 KCAL/MOL
REMARK 923 INTER-LIGAND FREE ENERGY PREDICTED BY IDOCK:   -6.01 KCAL/MOL
REMARK 924 INTRA-LIGAND FREE ENERGY PREDICTED BY IDOCK:   -0.28 KCAL/MOL
REMARK 927      BINDING AFFINITY PREDICTED BY RF-SCORE:    0.00 PKD
ROOT
HETATM    1  C   UNL     1     -12.725  13.361  70.434  1.00  0.00    -0.136 C  
HETATM    2  C   UNL     1     -11.893  13.279  69.192  1.00  0.00    -0.378 A  
HETATM    3  C   UNL     1     -11.110  14.352  68.765  1.00  0.00    -0.257 A  
HETATM    4  N   UNL     1     -10.424  15.090  69.777  1.00  0.00    -0.392 N  
HETATM    5  C   UNL     1     -10.670  16.440  69.860  1.00  0.00    -0.300 C  
HETATM    6  H   UNL     1      -9.774  14.631  70.415  1.00  0.00     0.000 HD 
HETATM    7  C   UNL     1     -10.296  17.305  68.725  1.00  0.00    -0.358 A  
HETATM    8  O   UNL     1     -11.157  16.941  70.865  1.00  0.00     0.054 OA 
HETATM    9  C   UNL     1     -10.424  16.917  67.393  1.00  0.00    -0.310 A  
HETATM   10  N   UNL     1     -10.079  15.606  66.933  1.00  0.00    -0.257 NA 
HETATM   11  N   UNL     1     -10.638  17.869  66.442  1.00  0.00    -0.291 NA 
HETATM   12  C   UNL     1     -10.587  14.384  67.466  1.00  0.00    -0.265 A  
HETATM   13  C   UNL     1     -10.580  19.173  66.795  1.00  0.00    -0.439 A  
HETATM   14  C   UNL     1     -11.872  12.131  68.415  1.00  0.00    -0.360 A  
HETATM   15  C   UNL     1     -11.155  12.149  67.230  1.00  0.00    -0.287 A  
HETATM   16  C   UNL     1     -10.169  19.605  68.037  1.00  0.00    -0.579 A  
HETATM   17  N   UNL     1     -10.561  13.252  66.728  1.00  0.00    -0.274 NA 
HETATM   18  C   UNL     1     -10.032  18.648  69.026  1.00  0.00    -0.335 A  
ENDROOT
BRANCH  10  19
HETATM   19  C   UNL     1      -8.669  15.519  66.452  1.00  0.00    -0.298 C  
HETATM   20  C   UNL     1      -7.638  16.582  66.697  1.00  0.00    -0.310 C  
HETATM   21  C   UNL     1      -7.515  15.257  67.385  1.00  0.00    -0.239 C  
ENDBRANCH  10  19
TORSDOF 1
ENDMDL
MODEL       20
REMARK 921   NORMALIZED FREE ENERGY PREDICTED BY IDOCK:   -5.64 KCAL/MOL
REMARK 922        TOTAL FREE ENERGY PREDICTED BY IDOCK:   -6.27 KCAL/MOL
REMARK 923 INTER-LIGAND FREE ENERGY PREDICTED BY IDOCK:   -6.58 KCAL/MOL
REMARK 924 INTRA-LIGAND FREE ENERGY PREDICTED BY IDOCK:    0.31 KCAL/MOL
REMARK 927      BINDING AFFINITY PREDICTED BY RF-SCORE:    0.00 PKD
ROOT
HETATM    1  C   UNL     1     -10.427  12.597  64.128  1.00  0.00    -0.438 C  
HETATM    2  C   UNL     1     -10.690  12.612  65.602  1.00  0.00    -0.297 A  
HETATM    3  C   UNL     1     -10.862  13.808  66.301  1.00  0.00    -0.283 A  
HETATM    4  N   UNL     1     -11.615  14.831  65.649  1.00  0.00    -0.324 N  
HETATM    5  C   UNL     1     -11.005  16.050  65.461  1.00  0.00    -0.209 C  
HETATM    6  H   UNL     1     -12.570  14.665  65.335  1.00  0.00     0.000 HD 
HETATM    7  C   UNL     1     -10.613  16.842  66.642  1.00  0.00    -0.198 A  
HETATM    8  O   UNL     1     -10.815  16.504  64.340  1.00  0.00    -0.801 OA 
HETATM    9  C   UNL     1     -10.110  16.274  67.811  1.00  0.00    -0.252 A  
HETATM   10  N   UNL     1     -10.646  15.076  68.382  1.00  0.00    -0.234 NA 
HETATM   11  N   UNL     1      -9.253  16.999  68.584  1.00  0.00    -0.261 NA 
HETATM   12  C   UNL     1     -10.800  13.833  67.700  1.00  0.00    -0.254 A  
HETATM   13  C   UNL     1      -9.026  18.295  68.274  1.00  0.00    -0.305 A  
HETATM   14  C   UNL     1     -10.772  11.435  66.330  1.00  0.00    -0.325 A  
HETATM   15  C   UNL     1     -10.926  11.519  67.704  1.00  0.00    -0.242 A  
HETATM   16  C   UNL     1      -9.726  18.976  67.303  1.00  0.00    -0.368 A  
HETATM   17  N   UNL     1     -10.896  12.678  68.394  1.00  0.00    -0.235 NA 
HETATM   18  C   UNL     1     -10.533  18.229  66.463  1.00  0.00    -0.378 A  
ENDROOT
BRANCH  10  19
HETATM   19  C   UNL     1     -11.706  15.349  69.396  1.00  0.00    -0.351 C  
HETATM   20  C   UNL     1     -12.099  14.381  70.473  1.00  0.00    -0.404 C  
HETATM   21  C   UNL     1     -11.384  15.645  70.838  1.00  0.00    -0.417 C  
ENDBRANCH  10  19
TORSDOF 1
ENDMDL
MODEL       21
REMARK 921   NORMALIZED FREE ENERGY PREDICTED BY IDOCK:   -5.57 KCAL/MOL
REMARK 922        TOTAL FREE ENERGY PREDICTED BY IDOCK:   -6.20 KCAL/MOL
REMARK 923 INTER-LIGAND FREE ENERGY PREDICTED BY IDOCK:   -6.72 KCAL/MOL
REMARK 924 INTRA-LIGAND FREE ENERGY PREDICTED BY IDOCK:    0.52 KCAL/MOL
REMARK 927      BINDING AFFINITY PREDICTED BY RF-SCORE:    0.00 PKD
ROOT
HETATM    1  C   UNL     1     -10.747  17.283  68.822  1.00  0.00    -0.247 C  
HETATM    2  C   UNL     1     -10.665  16.379  67.631  1.00  0.00    -0.312 A  
HETATM    3  C   UNL     1     -11.048  15.039  67.703  1.00  0.00    -0.316 A  
HETATM    4  N   UNL     1     -12.213  14.743  68.473  1.00  0.00    -0.605 N  
HETATM    5  C   UNL     1     -12.082  13.851  69.511  1.00  0.00    -0.342 C  
HETATM    6  H   UNL     1     -13.111  15.179  68.262  1.00  0.00     0.000 HD 
HETATM    7  C   UNL     1     -11.710  12.455  69.210  1.00  0.00    -0.386 A  
HETATM    8  O   UNL     1     -12.301  14.179  70.670  1.00  0.00    -0.319 OA 
HETATM    9  C   UNL     1     -10.804  12.104  68.211  1.00  0.00    -0.223 A  
HETATM   10  N   UNL     1     -10.789  12.733  66.925  1.00  0.00    -0.250 NA 
HETATM   11  N   UNL     1     -10.073  10.963  68.350  1.00  0.00    -0.176 NA 
HETATM   12  C   UNL     1     -10.687  14.137  66.694  1.00  0.00    -0.289 A  
HETATM   13  C   UNL     1     -10.346  10.130  69.380  1.00  0.00    -0.232 A  
HETATM   14  C   UNL     1     -10.203  16.840  66.408  1.00  0.00    -0.329 A  
HETATM   15  C   UNL     1     -10.065  15.934  65.369  1.00  0.00    -0.261 A  
HETATM   16  C   UNL     1     -11.425  10.293  70.221  1.00  0.00    -0.395 A  
HETATM   17  N   UNL     1     -10.253  14.604  65.503  1.00  0.00    -0.346 NA 
HETATM   18  C   UNL     1     -12.118  11.488  70.137  1.00  0.00    -0.432 A  
ENDROOT
BRANCH  10  19
HETATM   19  C   UNL     1     -11.627  12.010  65.923  1.00  0.00    -0.300 C  
HETATM   20  C   UNL     1     -12.519  12.698  64.932  1.00  0.00    -0.564 C  
HETATM   21  C   UNL     1     -11.288  11.991  64.456  1.00  0.00    -0.393 C  
ENDBRANCH  10  19
TORSDOF 1
ENDMDL
MODEL       22
REMARK 921   NORMALIZED FREE ENERGY PREDICTED BY IDOCK:   -5.56 KCAL/MOL
REMARK 922        TOTAL FREE ENERGY PREDICTED BY IDOCK:   -6.19 KCAL/MOL
REMARK 923 INTER-LIGAND FREE ENERGY PREDICTED BY IDOCK:   -5.88 KCAL/MOL
REMARK 924 INTRA-LIGAND FREE ENERGY PREDICTED BY IDOCK:   -0.30 KCAL/MOL
REMARK 927      BINDING AFFINITY PREDICTED BY RF-SCORE:    0.00 PKD
ROOT
HETATM    1  C   UNL     1      -6.404  17.342  67.426  1.00  0.00    -0.171 C  
HETATM    2  C   UNL     1      -7.768  17.617  67.979  1.00  0.00    -0.232 A  
HETATM    3  C   UNL     1      -8.717  16.604  68.123  1.00  0.00    -0.201 A  
HETATM    4  N   UNL     1      -8.241  15.338  68.578  1.00  0.00    -0.139 N  
HETATM    5  C   UNL     1      -8.479  14.243  67.780  1.00  0.00    -0.176 C  
HETATM    6  H   UNL     1      -7.742  15.248  69.463  1.00  0.00     0.000 HD 
HETATM    7  C   UNL     1      -9.873  13.830  67.532  1.00  0.00    -0.230 A  
HETATM    8  O   UNL     1      -7.562  13.585  67.305  1.00  0.00    -0.149 OA 
HETATM    9  C   UNL     1     -10.919  14.734  67.361  1.00  0.00    -0.313 A  
HETATM   10  N   UNL     1     -11.063  15.911  68.162  1.00  0.00    -0.331 NA 
HETATM   11  N   UNL     1     -11.983  14.378  66.588  1.00  0.00    -0.410 NA 
HETATM   12  C   UNL     1     -10.064  16.913  68.345  1.00  0.00    -0.304 A  
HETATM   13  C   UNL     1     -12.063  13.110  66.126  1.00  0.00    -0.417 A  
HETATM   14  C   UNL     1      -8.141  18.894  68.370  1.00  0.00    -0.376 A  
HETATM   15  C   UNL     1      -9.445  19.102  68.788  1.00  0.00    -0.399 A  
HETATM   16  C   UNL     1     -11.202  12.106  66.512  1.00  0.00    -0.378 A  
HETATM   17  N   UNL     1     -10.409  18.159  68.739  1.00  0.00    -0.327 NA 
HETATM   18  C   UNL     1     -10.077  12.478  67.226  1.00  0.00    -0.216 A  
ENDROOT
BRANCH  10  19
HETATM   19  C   UNL     1     -11.926  15.688  69.360  1.00  0.00    -0.331 C  
HETATM   20  C   UNL     1     -12.057  14.366  70.057  1.00  0.00    -0.401 C  
HETATM   21  C   UNL     1     -11.354  15.498  70.740  1.00  0.00    -0.384 C  
ENDBRANCH  10  19
TORSDOF 1
ENDMDL
MODEL       23
REMARK 921   NORMALIZED FREE ENERGY PREDICTED BY IDOCK:   -5.55 KCAL/MOL
REMARK 922        TOTAL FREE ENERGY PREDICTED BY IDOCK:   -6.17 KCAL/MOL
REMARK 923 INTER-LIGAND FREE ENERGY PREDICTED BY IDOCK:   -5.88 KCAL/MOL
REMARK 924 INTRA-LIGAND FREE ENERGY PREDICTED BY IDOCK:   -0.29 KCAL/MOL
REMARK 927      BINDING AFFINITY PREDICTED BY RF-SCORE:    0.00 PKD
ROOT
HETATM    1  C   UNL     1      -8.544  13.465  67.160  1.00  0.00    -0.201 C  
HETATM    2  C   UNL     1      -9.530  14.528  67.535  1.00  0.00    -0.203 A  
HETATM    3  C   UNL     1      -9.193  15.881  67.501  1.00  0.00    -0.207 A  
HETATM    4  N   UNL     1      -8.383  16.315  66.408  1.00  0.00    -0.309 N  
HETATM    5  C   UNL     1      -7.187  16.927  66.703  1.00  0.00    -0.259 C  
HETATM    6  H   UNL     1      -8.681  16.177  65.442  1.00  0.00     0.000 HD 
HETATM    7  C   UNL     1      -7.202  18.209  67.433  1.00  0.00    -0.208 A  
HETATM    8  O   UNL     1      -6.118  16.450  66.343  1.00  0.00    -0.167 OA 
HETATM    9  C   UNL     1      -8.107  18.497  68.453  1.00  0.00    -0.323 A  
HETATM   10  N   UNL     1      -9.493  18.145  68.380  1.00  0.00    -0.307 NA 
HETATM   11  N   UNL     1      -7.740  19.361  69.440  1.00  0.00    -0.175 NA 
HETATM   12  C   UNL     1     -10.000  16.835  68.134  1.00  0.00    -0.270 A  
HETATM   13  C   UNL     1      -6.565  20.022  69.330  1.00  0.00    -0.313 A  
HETATM   14  C   UNL     1     -10.818  14.205  67.932  1.00  0.00    -0.253 A  
HETATM   15  C   UNL     1     -11.654  15.226  68.353  1.00  0.00    -0.349 A  
HETATM   16  C   UNL     1      -5.778  19.987  68.200  1.00  0.00    -0.246 A  
HETATM   17  N   UNL     1     -11.258  16.508  68.502  1.00  0.00    -0.345 NA 
HETATM   18  C   UNL     1      -6.102  19.052  67.233  1.00  0.00    -0.168 A  
ENDROOT
BRANCH  10  19
HETATM   19  C   UNL     1     -10.333  19.239  67.810  1.00  0.00    -0.429 C  
HETATM   20  C   UNL     1      -9.777  20.404  67.044  1.00  0.00    -0.588 C  
HETATM   21  C   UNL     1     -10.591  19.368  66.331  1.00  0.00    -0.558 C  
ENDBRANCH  10  19
TORSDOF 1
ENDMDL
MODEL       24
REMARK 921   NORMALIZED FREE ENERGY PREDICTED BY IDOCK:   -5.53 KCAL/MOL
REMARK 922        TOTAL FREE ENERGY PREDICTED BY IDOCK:   -6.15 KCAL/MOL
REMARK 923 INTER-LIGAND FREE ENERGY PREDICTED BY IDOCK:   -5.89 KCAL/MOL
REMARK 924 INTRA-LIGAND FREE ENERGY PREDICTED BY IDOCK:   -0.26 KCAL/MOL
REMARK 927      BINDING AFFINITY PREDICTED BY RF-SCORE:    0.00 PKD
ROOT
HETATM    1  C   UNL     1      -7.805  15.763  68.299  1.00  0.00    -0.129 C  
HETATM    2  C   UNL     1      -8.854  15.994  67.256  1.00  0.00    -0.207 A  
HETATM    3  C   UNL     1      -9.484  14.932  66.606  1.00  0.00    -0.265 A  
HETATM    4  N   UNL     1      -9.817  13.796  67.405  1.00  0.00    -0.234 N  
HETATM    5  C   UNL     1      -9.307  12.577  67.023  1.00  0.00    -0.210 C  
HETATM    6  H   UNL     1     -10.412  13.885  68.228  1.00  0.00     0.000 HD 
HETATM    7  C   UNL     1      -9.714  12.007  65.725  1.00  0.00    -0.254 A  
HETATM    8  O   UNL     1      -8.554  11.942  67.751  1.00  0.00    -0.141 OA 
HETATM    9  C   UNL     1      -9.914  12.777  64.581  1.00  0.00    -0.134 A  
HETATM   10  N   UNL     1     -10.581  14.043  64.607  1.00  0.00    -0.422 NA 
HETATM   11  N   UNL     1      -9.704  12.214  63.359  1.00  0.00    -0.317 NA 
HETATM   12  C   UNL     1     -10.224  15.148  65.437  1.00  0.00    -0.372 A  
HETATM   13  C   UNL     1      -9.445  10.889  63.282  1.00  0.00    -0.324 A  
HETATM   14  C   UNL     1      -9.238  17.276  66.893  1.00  0.00    -0.265 A  
HETATM   15  C   UNL     1     -10.146  17.425  65.859  1.00  0.00    -0.205 A  
HETATM   16  C   UNL     1      -9.527  10.037  64.361  1.00  0.00    -0.349 A  
HETATM   17  N   UNL     1     -10.603  16.402  65.107  1.00  0.00    -0.663 NA 
HETATM   18  C   UNL     1      -9.658  10.612  65.613  1.00  0.00    -0.268 A  
ENDROOT
BRANCH  10  19
HETATM   19  C   UNL     1     -12.047  13.924  64.350  1.00  0.00    -0.443 C  
HETATM   20  C   UNL     1     -12.784  12.618  64.320  1.00  0.00    -0.394 C  
HETATM   21  C   UNL     1     -13.030  13.582  65.440  1.00  0.00    -0.292 C  
ENDBRANCH  10  19
TORSDOF 1
ENDMDL
MODEL       25
REMARK 921   NORMALIZED FREE ENERGY PREDICTED BY IDOCK:   -5.53 KCAL/MOL
REMARK 922        TOTAL FREE ENERGY PREDICTED BY IDOCK:   -6.15 KCAL/MOL
REMARK 923 INTER-LIGAND FREE ENERGY PREDICTED BY IDOCK:   -5.85 KCAL/MOL
REMARK 924 INTRA-LIGAND FREE ENERGY PREDICTED BY IDOCK:   -0.30 KCAL/MOL
REMARK 927      BINDING AFFINITY PREDICTED BY RF-SCORE:    0.00 PKD
ROOT
HETATM    1  C   UNL     1      -6.784  19.170  66.111  1.00  0.00    -0.243 C  
HETATM    2  C   UNL     1      -8.194  19.015  66.589  1.00  0.00    -0.301 A  
HETATM    3  C   UNL     1      -8.684  17.787  67.037  1.00  0.00    -0.244 A  
HETATM    4  N   UNL     1      -7.799  16.993  67.828  1.00  0.00    -0.178 N  
HETATM    5  C   UNL     1      -7.514  15.723  67.384  1.00  0.00    -0.194 C  
HETATM    6  H   UNL     1      -7.394  17.354  68.691  1.00  0.00     0.000 HD 
HETATM    7  C   UNL     1      -8.606  14.736  67.294  1.00  0.00    -0.230 A  
HETATM    8  O   UNL     1      -6.371  15.386  67.099  1.00  0.00    -0.305 OA 
HETATM    9  C   UNL     1      -9.899  15.062  66.891  1.00  0.00    -0.238 A  
HETATM   10  N   UNL     1     -10.567  16.252  67.322  1.00  0.00    -0.311 NA 
HETATM   11  N   UNL     1     -10.660  14.114  66.275  1.00  0.00    -0.281 NA 
HETATM   12  C   UNL     1     -10.060  17.578  67.188  1.00  0.00    -0.321 A  
HETATM   13  C   UNL     1     -10.195  12.847  66.199  1.00  0.00    -0.278 A  
HETATM   14  C   UNL     1      -9.071  20.089  66.603  1.00  0.00    -0.463 A  
HETATM   15  C   UNL     1     -10.387  19.862  66.970  1.00  0.00    -0.461 A  
HETATM   16  C   UNL     1      -9.054  12.418  66.840  1.00  0.00    -0.211 A  
HETATM   17  N   UNL     1     -10.898  18.638  67.214  1.00  0.00    -0.394 NA 
HETATM   18  C   UNL     1      -8.237  13.388  67.394  1.00  0.00    -0.188 A  
ENDROOT
BRANCH  10  19
HETATM   19  C   UNL     1     -11.388  16.036  68.551  1.00  0.00    -0.382 C  
HETATM   20  C   UNL     1     -11.096  14.975  69.571  1.00  0.00    -0.292 C  
HETATM   21  C   UNL     1     -10.898  16.417  69.923  1.00  0.00    -0.333 C  
ENDBRANCH  10  19
TORSDOF 1
ENDMDL
MODEL       26
REMARK 921   NORMALIZED FREE ENERGY PREDICTED BY IDOCK:   -5.52 KCAL/MOL
REMARK 922        TOTAL FREE ENERGY PREDICTED BY IDOCK:   -6.14 KCAL/MOL
REMARK 923 INTER-LIGAND FREE ENERGY PREDICTED BY IDOCK:   -5.86 KCAL/MOL
REMARK 924 INTRA-LIGAND FREE ENERGY PREDICTED BY IDOCK:   -0.28 KCAL/MOL
REMARK 927      BINDING AFFINITY PREDICTED BY RF-SCORE:    0.00 PKD
ROOT
HETATM    1  C   UNL     1     -12.770  10.168  71.729  1.00  0.00    -0.534 C  
HETATM    2  C   UNL     1     -12.672  11.532  71.121  1.00  0.00    -0.458 A  
HETATM    3  C   UNL     1     -12.013  11.746  69.910  1.00  0.00    -0.332 A  
HETATM    4  N   UNL     1     -12.197  10.760  68.894  1.00  0.00    -0.456 N  
HETATM    5  C   UNL     1     -11.074  10.147  68.389  1.00  0.00    -0.218 C  
HETATM    6  H   UNL     1     -13.128  10.518  68.555  1.00  0.00     0.000 HD 
HETATM    7  C   UNL     1     -10.080  10.963  67.666  1.00  0.00    -0.206 A  
HETATM    8  O   UNL     1     -10.901   8.939  68.495  1.00  0.00    -0.125 OA 
HETATM    9  C   UNL     1      -9.742  12.262  68.037  1.00  0.00    -0.205 A  
HETATM   10  N   UNL     1     -10.715  13.225  68.455  1.00  0.00    -0.250 NA 
HETATM   11  N   UNL     1      -8.491  12.727  67.760  1.00  0.00    -0.164 NA 
HETATM   12  C   UNL     1     -11.661  13.041  69.506  1.00  0.00    -0.317 A  
HETATM   13  C   UNL     1      -7.661  11.968  67.010  1.00  0.00    -0.111 A  
HETATM   14  C   UNL     1     -13.233  12.638  71.741  1.00  0.00    -0.457 A  
HETATM   15  C   UNL     1     -13.030  13.886  71.175  1.00  0.00    -0.318 A  
HETATM   16  C   UNL     1      -8.056  10.809  66.378  1.00  0.00    -0.153 A  
HETATM   17  N   UNL     1     -12.228  14.107  70.112  1.00  0.00    -0.333 NA 
HETATM   18  C   UNL     1      -9.292  10.292  66.722  1.00  0.00    -0.187 A  
ENDROOT
BRANCH  10  19
HETATM   19  C   UNL     1     -11.217  14.060  67.324  1.00  0.00    -0.312 C  
HETATM   20  C   UNL     1     -10.974  13.739  65.879  1.00  0.00    -0.283 C  
HETATM   21  C   UNL     1     -12.356  13.619  66.443  1.00  0.00    -0.441 C  
ENDBRANCH  10  19
TORSDOF 1
ENDMDL
MODEL       27
REMARK 921   NORMALIZED FREE ENERGY PREDICTED BY IDOCK:   -5.49 KCAL/MOL
REMARK 922        TOTAL FREE ENERGY PREDICTED BY IDOCK:   -6.11 KCAL/MOL
REMARK 923 INTER-LIGAND FREE ENERGY PREDICTED BY IDOCK:   -5.81 KCAL/MOL
REMARK 924 INTRA-LIGAND FREE ENERGY PREDICTED BY IDOCK:   -0.30 KCAL/MOL
REMARK 927      BINDING AFFINITY PREDICTED BY RF-SCORE:    0.00 PKD
ROOT
HETATM    1  C   UNL     1     -12.121  12.967  63.249  1.00  0.00    -0.520 C  
HETATM    2  C   UNL     1     -11.913  13.058  64.729  1.00  0.00    -0.443 A  
HETATM    3  C   UNL     1     -11.061  12.183  65.403  1.00  0.00    -0.317 A  
HETATM    4  N   UNL     1      -9.838  11.846  64.748  1.00  0.00    -0.369 N  
HETATM    5  C   UNL     1      -9.587  10.514  64.512  1.00  0.00    -0.302 C  
HETATM    6  H   UNL     1      -9.174  12.566  64.465  1.00  0.00     0.000 HD 
HETATM    7  C   UNL     1      -9.430   9.603  65.662  1.00  0.00    -0.318 A  
HETATM    8  O   UNL     1      -9.456  10.078  63.376  1.00  0.00    -0.294 OA 
HETATM    9  C   UNL     1     -10.184   9.709  66.829  1.00  0.00    -0.239 A  
HETATM   10  N   UNL     1     -10.484  10.965  67.445  1.00  0.00    -0.210 NA 
HETATM   11  N   UNL     1     -10.435   8.587  67.560  1.00  0.00    -0.262 NA 
HETATM   12  C   UNL     1     -11.106  12.075  66.798  1.00  0.00    -0.305 A  
HETATM   13  C   UNL     1      -9.831   7.428  67.211  1.00  0.00    -0.175 A  
HETATM   14  C   UNL     1     -12.564  14.019  65.488  1.00  0.00    -0.543 A  
HETATM   15  C   UNL     1     -12.402  13.995  66.863  1.00  0.00    -0.286 A  
HETATM   16  C   UNL     1      -8.854   7.343  66.244  1.00  0.00    -0.182 A  
HETATM   17  N   UNL     1     -11.731  13.027  67.524  1.00  0.00    -0.358 NA 
HETATM   18  C   UNL     1      -8.656   8.456  65.447  1.00  0.00    -0.193 A  
ENDROOT
BRANCH  10  19
HETATM   19  C   UNL     1      -9.481  11.350  68.482  1.00  0.00    -0.183 C  
HETATM   20  C   UNL     1      -8.056  10.880  68.478  1.00  0.00    -0.137 C  
HETATM   21  C   UNL     1      -8.363  12.319  68.199  1.00  0.00    -0.174 C  
ENDBRANCH  10  19
TORSDOF 1
ENDMDL
MODEL       28
REMARK 921   NORMALIZED FREE ENERGY PREDICTED BY IDOCK:   -5.47 KCAL/MOL
REMARK 922        TOTAL FREE ENERGY PREDICTED BY IDOCK:   -6.09 KCAL/MOL
REMARK 923 INTER-LIGAND FREE ENERGY PREDICTED BY IDOCK:   -6.16 KCAL/MOL
REMARK 924 INTRA-LIGAND FREE ENERGY PREDICTED BY IDOCK:    0.07 KCAL/MOL
REMARK 927      BINDING AFFINITY PREDICTED BY RF-SCORE:    0.00 PKD
ROOT
HETATM    1  C   UNL     1     -13.571  13.225  72.444  1.00  0.00    -0.694 C  
HETATM    2  C   UNL     1     -12.852  13.148  71.133  1.00  0.00    -0.349 A  
HETATM    3  C   UNL     1     -12.338  11.944  70.650  1.00  0.00    -0.313 A  
HETATM    4  N   UNL     1     -13.138  10.778  70.849  1.00  0.00    -0.284 N  
HETATM    5  C   UNL     1     -12.576   9.729  71.538  1.00  0.00    -0.398 C  
HETATM    6  H   UNL     1     -14.093  10.725  70.493  1.00  0.00     0.000 HD 
HETATM    7  C   UNL     1     -11.403   9.043  70.962  1.00  0.00    -0.362 A  
HETATM    8  O   UNL     1     -13.048   9.330  72.595  1.00  0.00    -0.390 OA 
HETATM    9  C   UNL     1     -10.392   9.708  70.271  1.00  0.00    -0.280 A  
HETATM   10  N   UNL     1     -10.656  10.754  69.330  1.00  0.00    -0.227 NA 
HETATM   11  N   UNL     1      -9.131   9.195  70.287  1.00  0.00    -0.198 NA 
HETATM   12  C   UNL     1     -11.417  11.931  69.596  1.00  0.00    -0.266 A  
HETATM   13  C   UNL     1      -8.922   7.983  70.850  1.00  0.00    -0.140 A  
HETATM   14  C   UNL     1     -12.668  14.275  70.347  1.00  0.00    -0.355 A  
HETATM   15  C   UNL     1     -11.917  14.158  69.189  1.00  0.00    -0.349 A  
HETATM   16  C   UNL     1      -9.941   7.163  71.283  1.00  0.00    -0.192 A  
HETATM   17  N   UNL     1     -11.261  13.034  68.831  1.00  0.00    -0.266 NA 
HETATM   18  C   UNL     1     -11.210   7.710  71.346  1.00  0.00    -0.273 A  
ENDROOT
BRANCH  10  19
HETATM   19  C   UNL     1     -10.787  10.248  67.932  1.00  0.00    -0.284 C  
HETATM   20  C   UNL     1      -9.621  10.020  67.016  1.00  0.00    -0.212 C  
HETATM   21  C   UNL     1     -10.389   8.848  67.543  1.00  0.00    -0.328 C  
ENDBRANCH  10  19
TORSDOF 1
ENDMDL
MODEL       29
REMARK 921   NORMALIZED FREE ENERGY PREDICTED BY IDOCK:   -5.43 KCAL/MOL
REMARK 922        TOTAL FREE ENERGY PREDICTED BY IDOCK:   -6.05 KCAL/MOL
REMARK 923 INTER-LIGAND FREE ENERGY PREDICTED BY IDOCK:   -5.88 KCAL/MOL
REMARK 924 INTRA-LIGAND FREE ENERGY PREDICTED BY IDOCK:   -0.17 KCAL/MOL
REMARK 927      BINDING AFFINITY PREDICTED BY RF-SCORE:    0.00 PKD
ROOT
HETATM    1  C   UNL     1     -11.853  12.982  67.672  1.00  0.00    -0.401 C  
HETATM    2  C   UNL     1     -11.234  11.737  67.117  1.00  0.00    -0.375 A  
HETATM    3  C   UNL     1     -10.983  10.624  67.922  1.00  0.00    -0.295 A  
HETATM    4  N   UNL     1     -11.976  10.297  68.894  1.00  0.00    -0.477 N  
HETATM    5  C   UNL     1     -11.584  10.240  70.211  1.00  0.00    -0.316 C  
HETATM    6  H   UNL     1     -12.941  10.111  68.621  1.00  0.00     0.000 HD 
HETATM    7  C   UNL     1     -10.595   9.225  70.619  1.00  0.00    -0.324 A  
HETATM    8  O   UNL     1     -12.065  10.987  71.055  1.00  0.00    -0.340 OA 
HETATM    9  C   UNL     1      -9.516   8.847  69.823  1.00  0.00    -0.170 A  
HETATM   10  N   UNL     1      -9.629   8.645  68.411  1.00  0.00    -0.145 NA 
HETATM   11  N   UNL     1      -8.374   8.404  70.421  1.00  0.00    -0.116 NA 
HETATM   12  C   UNL     1     -10.139   9.598  67.479  1.00  0.00    -0.197 A  
HETATM   13  C   UNL     1      -8.368   8.210  71.760  1.00  0.00    -0.142 A  
HETATM   14  C   UNL     1     -10.884  11.642  65.779  1.00  0.00    -0.334 A  
HETATM   15  C   UNL     1     -10.232  10.500  65.346  1.00  0.00    -0.270 A  
HETATM   16  C   UNL     1      -9.498   8.292  72.543  1.00  0.00    -0.356 A  
HETATM   17  N   UNL     1      -9.820   9.512  66.169  1.00  0.00    -0.256 NA 
HETATM   18  C   UNL     1     -10.635   8.819  71.959  1.00  0.00    -0.414 A  
ENDROOT
BRANCH  10  19
HETATM   19  C   UNL     1      -9.929   7.227  68.056  1.00  0.00    -0.157 C  
HETATM   20  C   UNL     1     -11.023   6.422  68.693  1.00  0.00    -0.404 C  
HETATM   21  C   UNL     1     -11.147   6.837  67.260  1.00  0.00    -0.394 C  
ENDBRANCH  10  19
TORSDOF 1
ENDMDL
MODEL       30
REMARK 921   NORMALIZED FREE ENERGY PREDICTED BY IDOCK:   -5.32 KCAL/MOL
REMARK 922        TOTAL FREE ENERGY PREDICTED BY IDOCK:   -5.93 KCAL/MOL
REMARK 923 INTER-LIGAND FREE ENERGY PREDICTED BY IDOCK:   -5.62 KCAL/MOL
REMARK 924 INTRA-LIGAND FREE ENERGY PREDICTED BY IDOCK:   -0.30 KCAL/MOL
REMARK 927      BINDING AFFINITY PREDICTED BY RF-SCORE:    0.00 PKD
ROOT
HETATM    1  C   UNL     1     -12.646   7.094  71.453  1.00  0.00    -0.432 C  
HETATM    2  C   UNL     1     -11.556   7.201  70.433  1.00  0.00    -0.300 A  
HETATM    3  C   UNL     1     -11.124   8.437  69.951  1.00  0.00    -0.108 A  
HETATM    4  N   UNL     1     -11.022   9.497  70.902  1.00  0.00    -0.308 N  
HETATM    5  C   UNL     1     -11.745  10.642  70.660  1.00  0.00    -0.356 C  
HETATM    6  H   UNL     1     -10.435   9.409  71.731  1.00  0.00     0.000 HD 
HETATM    7  C   UNL     1     -11.430  11.446  69.463  1.00  0.00    -0.381 A  
HETATM    8  O   UNL     1     -12.614  11.026  71.432  1.00  0.00    -0.390 OA 
HETATM    9  C   UNL     1     -11.071  10.886  68.239  1.00  0.00    -0.266 A  
HETATM   10  N   UNL     1     -10.180   9.771  68.130  1.00  0.00    -0.176 NA 
HETATM   11  N   UNL     1     -11.363  11.559  67.091  1.00  0.00    -0.414 NA 
HETATM   12  C   UNL     1     -10.338   8.519  68.795  1.00  0.00    -0.213 A  
HETATM   13  C   UNL     1     -11.863  12.813  67.175  1.00  0.00    -0.350 A  
HETATM   14  C   UNL     1     -10.933   6.071  69.925  1.00  0.00    -0.458 A  
HETATM   15  C   UNL     1      -9.996   6.230  68.917  1.00  0.00    -0.153 A  
HETATM   16  C   UNL     1     -11.959  13.513  68.357  1.00  0.00    -0.378 A  
HETATM   17  N   UNL     1      -9.726   7.411  68.322  1.00  0.00    -0.150 NA 
HETATM   18  C   UNL     1     -11.744  12.810  69.529  1.00  0.00    -0.383 A  
ENDROOT
BRANCH  10  19
HETATM   19  C   UNL     1      -8.758  10.189  67.950  1.00  0.00    -0.122 C  
HETATM   20  C   UNL     1      -8.237  11.547  68.318  1.00  0.00    -0.152 C  
HETATM   21  C   UNL     1      -7.814  10.350  69.113  1.00  0.00    -0.134 C  
ENDBRANCH  10  19
TORSDOF 1
ENDMDL
MODEL       31
REMARK 921   NORMALIZED FREE ENERGY PREDICTED BY IDOCK:   -5.31 KCAL/MOL
REMARK 922        TOTAL FREE ENERGY PREDICTED BY IDOCK:   -5.92 KCAL/MOL
REMARK 923 INTER-LIGAND FREE ENERGY PREDICTED BY IDOCK:   -6.04 KCAL/MOL
REMARK 924 INTRA-LIGAND FREE ENERGY PREDICTED BY IDOCK:    0.12 KCAL/MOL
REMARK 927      BINDING AFFINITY PREDICTED BY RF-SCORE:    0.00 PKD
ROOT
HETATM    1  C   UNL     1     -10.032   9.858  65.616  1.00  0.00    -0.353 C  
HETATM    2  C   UNL     1     -10.504  10.348  66.950  1.00  0.00    -0.300 A  
HETATM    3  C   UNL     1     -10.809  11.692  67.169  1.00  0.00    -0.261 A  
HETATM    4  N   UNL     1     -11.490  12.376  66.117  1.00  0.00    -0.359 N  
HETATM    5  C   UNL     1     -10.896  13.503  65.600  1.00  0.00    -0.287 C  
HETATM    6  H   UNL     1     -12.386  12.041  65.762  1.00  0.00     0.000 HD 
HETATM    7  C   UNL     1     -10.702  14.674  66.476  1.00  0.00    -0.312 A  
HETATM    8  O   UNL     1     -10.560  13.568  64.424  1.00  0.00    -0.419 OA 
HETATM    9  C   UNL     1     -10.354  14.572  67.822  1.00  0.00    -0.237 A  
HETATM   10  N   UNL     1     -10.931  13.598  68.698  1.00  0.00    -0.258 NA 
HETATM   11  N   UNL     1      -9.639  15.577  68.400  1.00  0.00    -0.197 NA 
HETATM   12  C   UNL     1     -10.950  12.190  68.470  1.00  0.00    -0.238 A  
HETATM   13  C   UNL     1      -9.408  16.708  67.694  1.00  0.00    -0.224 A  
HETATM   14  C   UNL     1     -10.655   9.482  68.022  1.00  0.00    -0.282 A  
HETATM   15  C   UNL     1     -11.007  10.009  69.253  1.00  0.00    -0.228 A  
HETATM   16  C   UNL     1      -9.982  16.967  66.469  1.00  0.00    -0.318 A  
HETATM   17  N   UNL     1     -11.110  11.332  69.501  1.00  0.00    -0.252 NA 
HETATM   18  C   UNL     1     -10.637  15.922  65.843  1.00  0.00    -0.348 A  
ENDROOT
BRANCH  10  19
HETATM   19  C   UNL     1     -12.134  14.114  69.416  1.00  0.00    -0.328 C  
HETATM   20  C   UNL     1     -12.236  14.209  70.910  1.00  0.00    -0.434 C  
HETATM   21  C   UNL     1     -12.152  15.461  70.091  1.00  0.00    -0.400 C  
ENDBRANCH  10  19
TORSDOF 1
ENDMDL
MODEL       32
REMARK 921   NORMALIZED FREE ENERGY PREDICTED BY IDOCK:   -5.29 KCAL/MOL
REMARK 922        TOTAL FREE ENERGY PREDICTED BY IDOCK:   -5.90 KCAL/MOL
REMARK 923 INTER-LIGAND FREE ENERGY PREDICTED BY IDOCK:   -5.84 KCAL/MOL
REMARK 924 INTRA-LIGAND FREE ENERGY PREDICTED BY IDOCK:   -0.06 KCAL/MOL
REMARK 927      BINDING AFFINITY PREDICTED BY RF-SCORE:    0.00 PKD
ROOT
HETATM    1  C   UNL     1     -11.234  12.639  68.857  1.00  0.00    -0.329 C  
HETATM    2  C   UNL     1     -11.777  11.879  70.027  1.00  0.00    -0.366 A  
HETATM    3  C   UNL     1     -11.320  10.599  70.343  1.00  0.00    -0.304 A  
HETATM    4  N   UNL     1      -9.919  10.364  70.204  1.00  0.00    -0.398 N  
HETATM    5  C   UNL     1      -9.523   9.345  69.368  1.00  0.00    -0.173 C  
HETATM    6  H   UNL     1      -9.236  10.931  70.706  1.00  0.00     0.000 HD 
HETATM    7  C   UNL     1      -9.903   7.959  69.703  1.00  0.00    -0.179 A  
HETATM    8  O   UNL     1      -8.835   9.560  68.379  1.00  0.00    -0.123 OA 
HETATM    9  C   UNL     1     -11.133   7.618  70.260  1.00  0.00    -0.244 A  
HETATM   10  N   UNL     1     -11.754   8.386  71.296  1.00  0.00    -0.280 NA 
HETATM   11  N   UNL     1     -11.655   6.385  70.008  1.00  0.00    -0.432 NA 
HETATM   12  C   UNL     1     -12.033   9.784  71.232  1.00  0.00    -0.386 A  
HETATM   13  C   UNL     1     -10.905   5.478  69.343  1.00  0.00    -0.166 A  
HETATM   14  C   UNL     1     -12.760  12.420  70.843  1.00  0.00    -0.273 A  
HETATM   15  C   UNL     1     -13.286  11.632  71.853  1.00  0.00    -0.369 A  
HETATM   16  C   UNL     1      -9.578   5.675  69.030  1.00  0.00    -0.174 A  
HETATM   17  N   UNL     1     -12.977  10.330  72.029  1.00  0.00    -0.430 NA 
HETATM   18  C   UNL     1      -9.068   6.949  69.208  1.00  0.00    -0.140 A  
ENDROOT
BRANCH  10  19
HETATM   19  C   UNL     1     -11.402   7.899  72.662  1.00  0.00    -0.408 C  
HETATM   20  C   UNL     1     -10.858   6.529  72.942  1.00  0.00    -0.288 C  
HETATM   21  C   UNL     1      -9.975   7.726  73.111  1.00  0.00    -0.374 C  
ENDBRANCH  10  19
TORSDOF 1
ENDMDL
MODEL       33
REMARK 921   NORMALIZED FREE ENERGY PREDICTED BY IDOCK:   -5.27 KCAL/MOL
REMARK 922        TOTAL FREE ENERGY PREDICTED BY IDOCK:   -5.88 KCAL/MOL
REMARK 923 INTER-LIGAND FREE ENERGY PREDICTED BY IDOCK:   -6.25 KCAL/MOL
REMARK 924 INTRA-LIGAND FREE ENERGY PREDICTED BY IDOCK:    0.36 KCAL/MOL
REMARK 927      BINDING AFFINITY PREDICTED BY RF-SCORE:    0.00 PKD
ROOT
HETATM    1  C   UNL     1      -6.724  14.163  69.731  1.00  0.00    -0.065 C  
HETATM    2  C   UNL     1      -7.124  15.535  69.283  1.00  0.00    -0.186 A  
HETATM    3  C   UNL     1      -8.339  15.767  68.637  1.00  0.00    -0.183 A  
HETATM    4  N   UNL     1      -9.474  15.052  69.127  1.00  0.00    -0.272 N  
HETATM    5  C   UNL     1     -10.158  14.257  68.238  1.00  0.00    -0.238 C  
HETATM    6  H   UNL     1      -9.766  15.128  70.101  1.00  0.00     0.000 HD 
HETATM    7  C   UNL     1     -10.829  14.887  67.086  1.00  0.00    -0.311 A  
HETATM    8  O   UNL     1     -10.252  13.047  68.403  1.00  0.00    -0.242 OA 
HETATM    9  C   UNL     1     -10.295  15.968  66.387  1.00  0.00    -0.305 A  
HETATM   10  N   UNL     1      -9.656  17.070  67.039  1.00  0.00    -0.247 NA 
HETATM   11  N   UNL     1     -10.602  16.122  65.069  1.00  0.00    -0.634 NA 
HETATM   12  C   UNL     1      -8.569  16.970  67.957  1.00  0.00    -0.217 A  
HETATM   13  C   UNL     1     -11.526  15.308  64.511  1.00  0.00    -0.315 A  
HETATM   14  C   UNL     1      -6.298  16.629  69.491  1.00  0.00    -0.227 A  
HETATM   15  C   UNL     1      -6.682  17.854  68.972  1.00  0.00    -0.248 A  
HETATM   16  C   UNL     1     -12.291  14.420  65.236  1.00  0.00    -0.372 A  
HETATM   17  N   UNL     1      -7.763  18.030  68.183  1.00  0.00    -0.263 NA 
HETATM   18  C   UNL     1     -11.928  14.200  66.552  1.00  0.00    -0.466 A  
ENDROOT
BRANCH  10  19
HETATM   19  C   UNL     1     -10.600  18.188  67.334  1.00  0.00    -0.388 C  
HETATM   20  C   UNL     1     -10.174  19.512  67.895  1.00  0.00    -0.550 C  
HETATM   21  C   UNL     1     -10.668  19.430  66.484  1.00  0.00    -0.516 C  
ENDBRANCH  10  19
TORSDOF 1
ENDMDL
MODEL       34
REMARK 921   NORMALIZED FREE ENERGY PREDICTED BY IDOCK:   -5.25 KCAL/MOL
REMARK 922        TOTAL FREE ENERGY PREDICTED BY IDOCK:   -5.86 KCAL/MOL
REMARK 923 INTER-LIGAND FREE ENERGY PREDICTED BY IDOCK:   -5.55 KCAL/MOL
REMARK 924 INTRA-LIGAND FREE ENERGY PREDICTED BY IDOCK:   -0.30 KCAL/MOL
REMARK 927      BINDING AFFINITY PREDICTED BY RF-SCORE:    0.00 PKD
ROOT
HETATM    1  C   UNL     1      -7.741  10.977  68.806  1.00  0.00    -0.135 C  
HETATM    2  C   UNL     1      -9.153  11.183  68.350  1.00  0.00    -0.168 A  
HETATM    3  C   UNL     1      -9.540  12.336  67.667  1.00  0.00    -0.191 A  
HETATM    4  N   UNL     1      -8.624  12.847  66.698  1.00  0.00    -0.425 N  
HETATM    5  C   UNL     1      -8.189  14.143  66.853  1.00  0.00     0.036 C  
HETATM    6  H   UNL     1      -8.303  12.272  65.919  1.00  0.00     0.000 HD 
HETATM    7  C   UNL     1      -9.171  15.240  66.765  1.00  0.00    -0.274 A  
HETATM    8  O   UNL     1      -7.005  14.405  67.024  1.00  0.00    -0.074 OA 
HETATM    9  C   UNL     1     -10.467  15.148  67.268  1.00  0.00    -0.271 A  
HETATM   10  N   UNL     1     -11.273  13.975  67.121  1.00  0.00    -0.303 NA 
HETATM   11  N   UNL     1     -11.095  16.280  67.692  1.00  0.00    -0.243 NA 
HETATM   12  C   UNL     1     -10.894  12.658  67.518  1.00  0.00    -0.239 A  
HETATM   13  C   UNL     1     -10.502  17.478  67.483  1.00  0.00    -0.355 A  
HETATM   14  C   UNL     1     -10.132  10.231  68.592  1.00  0.00    -0.187 A  
HETATM   15  C   UNL     1     -11.436  10.519  68.227  1.00  0.00    -0.199 A  
HETATM   16  C   UNL     1      -9.359  17.636  66.730  1.00  0.00    -0.286 A  
HETATM   17  N   UNL     1     -11.835  11.714  67.744  1.00  0.00    -0.611 NA 
HETATM   18  C   UNL     1      -8.675  16.489  66.369  1.00  0.00    -0.357 A  
ENDROOT
BRANCH  10  19
HETATM   19  C   UNL     1     -12.132  14.019  65.901  1.00  0.00    -0.428 C  
HETATM   20  C   UNL     1     -11.804  14.826  64.680  1.00  0.00    -0.442 C  
HETATM   21  C   UNL     1     -11.743  13.331  64.618  1.00  0.00    -0.403 C  
ENDBRANCH  10  19
TORSDOF 1
ENDMDL
MODEL       35
REMARK 921   NORMALIZED FREE ENERGY PREDICTED BY IDOCK:   -5.24 KCAL/MOL
REMARK 922        TOTAL FREE ENERGY PREDICTED BY IDOCK:   -5.85 KCAL/MOL
REMARK 923 INTER-LIGAND FREE ENERGY PREDICTED BY IDOCK:   -5.55 KCAL/MOL
REMARK 924 INTRA-LIGAND FREE ENERGY PREDICTED BY IDOCK:   -0.30 KCAL/MOL
REMARK 927      BINDING AFFINITY PREDICTED BY RF-SCORE:    0.00 PKD
ROOT
HETATM    1  C   UNL     1     -10.516  11.562  63.507  1.00  0.00    -0.486 C  
HETATM    2  C   UNL     1     -10.244  10.946  64.845  1.00  0.00    -0.381 A  
HETATM    3  C   UNL     1     -10.624  11.575  66.031  1.00  0.00    -0.261 A  
HETATM    4  N   UNL     1     -11.893  12.230  66.032  1.00  0.00    -0.394 N  
HETATM    5  C   UNL     1     -11.918  13.570  66.342  1.00  0.00    -0.414 C  
HETATM    6  H   UNL     1     -12.750  11.723  65.812  1.00  0.00     0.000 HD 
HETATM    7  C   UNL     1     -11.495  14.000  67.688  1.00  0.00    -0.362 A  
HETATM    8  O   UNL     1     -12.318  14.406  65.540  1.00  0.00    -0.392 OA 
HETATM    9  C   UNL     1     -10.443  13.408  68.384  1.00  0.00    -0.250 A  
HETATM   10  N   UNL     1     -10.232  11.992  68.410  1.00  0.00    -0.206 NA 
HETATM   11  N   UNL     1      -9.735  14.155  69.276  1.00  0.00     0.113 NA 
HETATM   12  C   UNL     1     -10.105  11.155  67.261  1.00  0.00    -0.188 A  
HETATM   13  C   UNL     1     -10.159  15.406  69.568  1.00  0.00    -0.276 A  
HETATM   14  C   UNL     1      -9.600   9.723  64.955  1.00  0.00    -0.333 A  
HETATM   15  C   UNL     1      -9.297   9.249  66.221  1.00  0.00    -0.200 A  
HETATM   16  C   UNL     1     -11.357  15.922  69.124  1.00  0.00    -0.366 A  
HETATM   17  N   UNL     1      -9.494   9.954  67.355  1.00  0.00    -0.147 NA 
HETATM   18  C   UNL     1     -12.036  15.204  68.156  1.00  0.00    -0.151 A  
ENDROOT
BRANCH  10  19
HETATM   19  C   UNL     1     -10.899  11.334  69.571  1.00  0.00    -0.151 C  
HETATM   20  C   UNL     1     -12.050  11.937  70.322  1.00  0.00    -0.409 C  
HETATM   21  C   UNL     1     -12.274  10.726  69.471  1.00  0.00    -0.292 C  
ENDBRANCH  10  19
TORSDOF 1
ENDMDL
MODEL       36
REMARK 921   NORMALIZED FREE ENERGY PREDICTED BY IDOCK:   -5.24 KCAL/MOL
REMARK 922        TOTAL FREE ENERGY PREDICTED BY IDOCK:   -5.84 KCAL/MOL
REMARK 923 INTER-LIGAND FREE ENERGY PREDICTED BY IDOCK:   -5.91 KCAL/MOL
REMARK 924 INTRA-LIGAND FREE ENERGY PREDICTED BY IDOCK:    0.07 KCAL/MOL
REMARK 927      BINDING AFFINITY PREDICTED BY RF-SCORE:    0.00 PKD
ROOT
HETATM    1  C   UNL     1     -11.463  15.884  69.035  1.00  0.00    -0.380 C  
HETATM    2  C   UNL     1     -10.991  14.870  68.040  1.00  0.00    -0.282 A  
HETATM    3  C   UNL     1     -11.088  13.501  68.290  1.00  0.00    -0.261 A  
HETATM    4  N   UNL     1     -12.277  13.048  68.936  1.00  0.00    -0.149 N  
HETATM    5  C   UNL     1     -12.138  12.363  70.121  1.00  0.00    -0.290 C  
HETATM    6  H   UNL     1     -13.198  13.226  68.535  1.00  0.00     0.000 HD 
HETATM    7  C   UNL     1     -11.433  11.067  70.117  1.00  0.00    -0.383 A  
HETATM    8  O   UNL     1     -12.615  12.786  71.166  1.00  0.00    -0.371 OA 
HETATM    9  C   UNL     1     -10.317  10.805  69.324  1.00  0.00    -0.205 A  
HETATM   10  N   UNL     1     -10.218  11.237  67.963  1.00  0.00    -0.178 NA 
HETATM   11  N   UNL     1      -9.396   9.899  69.754  1.00  0.00    -0.220 NA 
HETATM   12  C   UNL     1     -10.378  12.580  67.509  1.00  0.00    -0.220 A  
HETATM   13  C   UNL     1      -9.657   9.175  70.867  1.00  0.00    -0.279 A  
HETATM   14  C   UNL     1     -10.437  15.256  66.829  1.00  0.00    -0.293 A  
HETATM   15  C   UNL     1      -9.936  14.274  65.990  1.00  0.00    -0.319 A  
HETATM   16  C   UNL     1     -10.872   9.193  71.514  1.00  0.00    -0.436 A  
HETATM   17  N   UNL     1      -9.857  12.969  66.324  1.00  0.00    -0.275 NA 
HETATM   18  C   UNL     1     -11.778  10.167  71.134  1.00  0.00    -0.453 A  
ENDROOT
BRANCH  10  19
HETATM   19  C   UNL     1     -10.701  10.206  66.997  1.00  0.00    -0.196 C  
HETATM   20  C   UNL     1      -9.798   9.439  66.078  1.00  0.00    -0.366 C  
HETATM   21  C   UNL     1     -10.473   8.733  67.213  1.00  0.00    -0.353 C  
ENDBRANCH  10  19
TORSDOF 1
ENDMDL
MODEL       37
REMARK 921   NORMALIZED FREE ENERGY PREDICTED BY IDOCK:   -5.15 KCAL/MOL
REMARK 922        TOTAL FREE ENERGY PREDICTED BY IDOCK:   -5.75 KCAL/MOL
REMARK 923 INTER-LIGAND FREE ENERGY PREDICTED BY IDOCK:   -5.46 KCAL/MOL
REMARK 924 INTRA-LIGAND FREE ENERGY PREDICTED BY IDOCK:   -0.30 KCAL/MOL
REMARK 927      BINDING AFFINITY PREDICTED BY RF-SCORE:    0.00 PKD
ROOT
HETATM    1  C   UNL     1     -13.178  12.973  72.211  1.00  0.00    -0.539 C  
HETATM    2  C   UNL     1     -12.633  13.592  70.961  1.00  0.00    -0.438 A  
HETATM    3  C   UNL     1     -11.961  12.832  70.002  1.00  0.00    -0.301 A  
HETATM    4  N   UNL     1     -12.487  11.533  69.727  1.00  0.00    -0.126 N  
HETATM    5  C   UNL     1     -11.647  10.457  69.895  1.00  0.00    -0.284 C  
HETATM    6  H   UNL     1     -13.450  11.408  69.417  1.00  0.00     0.000 HD 
HETATM    7  C   UNL     1     -10.448  10.347  69.043  1.00  0.00    -0.240 A  
HETATM    8  O   UNL     1     -11.893   9.574  70.708  1.00  0.00    -0.277 OA 
HETATM    9  C   UNL     1      -9.683  11.445  68.656  1.00  0.00    -0.176 A  
HETATM   10  N   UNL     1     -10.264  12.687  68.245  1.00  0.00    -0.235 NA 
HETATM   11  N   UNL     1      -8.354  11.273  68.409  1.00  0.00    -0.145 NA 
HETATM   12  C   UNL     1     -11.199  13.452  69.004  1.00  0.00    -0.275 A  
HETATM   13  C   UNL     1      -7.843  10.021  68.409  1.00  0.00    -0.089 A  
HETATM   14  C   UNL     1     -12.775  14.948  70.709  1.00  0.00    -0.421 A  
HETATM   15  C   UNL     1     -12.170  15.476  69.580  1.00  0.00    -0.270 A  
HETATM   16  C   UNL     1      -8.619   8.886  68.499  1.00  0.00    -0.133 A  
HETATM   17  N   UNL     1     -11.360  14.772  68.762  1.00  0.00    -0.267 NA 
HETATM   18  C   UNL     1      -9.951   9.055  68.831  1.00  0.00    -0.197 A  
ENDROOT
BRANCH  10  19
HETATM   19  C   UNL     1     -10.473  12.763  66.769  1.00  0.00    -0.241 C  
HETATM   20  C   UNL     1     -10.769  11.571  65.908  1.00  0.00    -0.325 C  
HETATM   21  C   UNL     1     -11.832  12.600  66.140  1.00  0.00    -0.477 C  
ENDBRANCH  10  19
TORSDOF 1
ENDMDL
MODEL       38
REMARK 921   NORMALIZED FREE ENERGY PREDICTED BY IDOCK:   -5.10 KCAL/MOL
REMARK 922        TOTAL FREE ENERGY PREDICTED BY IDOCK:   -5.70 KCAL/MOL
REMARK 923 INTER-LIGAND FREE ENERGY PREDICTED BY IDOCK:   -5.40 KCAL/MOL
REMARK 924 INTRA-LIGAND FREE ENERGY PREDICTED BY IDOCK:   -0.30 KCAL/MOL
REMARK 927      BINDING AFFINITY PREDICTED BY RF-SCORE:    0.00 PKD
ROOT
HETATM    1  C   UNL     1     -13.381   9.817  72.325  1.00  0.00    -0.472 C  
HETATM    2  C   UNL     1     -12.468  10.033  71.158  1.00  0.00    -0.480 A  
HETATM    3  C   UNL     1     -11.696   8.996  70.633  1.00  0.00    -0.198 A  
HETATM    4  N   UNL     1     -12.315   7.712  70.550  1.00  0.00    -0.501 N  
HETATM    5  C   UNL     1     -11.701   6.665  71.196  1.00  0.00    -0.346 C  
HETATM    6  H   UNL     1     -13.182   7.576  70.030  1.00  0.00     0.000 HD 
HETATM    7  C   UNL     1     -10.358   6.243  70.754  1.00  0.00    -0.256 A  
HETATM    8  O   UNL     1     -12.257   6.055  72.100  1.00  0.00    -0.288 OA 
HETATM    9  C   UNL     1      -9.376   7.137  70.334  1.00  0.00    -0.159 A  
HETATM   10  N   UNL     1      -9.660   8.259  69.492  1.00  0.00    -0.169 NA 
HETATM   11  N   UNL     1      -8.064   6.811  70.506  1.00  0.00    -0.114 NA 
HETATM   12  C   UNL     1     -10.635   9.266  69.760  1.00  0.00    -0.231 A  
HETATM   13  C   UNL     1      -7.749   5.572  70.950  1.00  0.00    -0.092 A  
HETATM   14  C   UNL     1     -12.353  11.276  70.556  1.00  0.00    -0.446 A  
HETATM   15  C   UNL     1     -11.425  11.434  69.540  1.00  0.00    -0.312 A  
HETATM   16  C   UNL     1      -8.674   4.562  71.098  1.00  0.00    -0.141 A  
HETATM   17  N   UNL     1     -10.546  10.478  69.170  1.00  0.00    -0.214 NA 
HETATM   18  C   UNL     1     -10.010   4.909  71.005  1.00  0.00    -0.282 A  
ENDROOT
BRANCH  10  19
HETATM   19  C   UNL     1      -9.491   7.946  68.042  1.00  0.00    -0.149 C  
HETATM   20  C   UNL     1      -9.515   6.555  67.483  1.00  0.00    -0.131 C  
HETATM   21  C   UNL     1     -10.640   7.495  67.178  1.00  0.00    -0.415 C  
ENDBRANCH  10  19
TORSDOF 1
ENDMDL
MODEL       39
REMARK 921   NORMALIZED FREE ENERGY PREDICTED BY IDOCK:   -5.08 KCAL/MOL
REMARK 922        TOTAL FREE ENERGY PREDICTED BY IDOCK:   -5.68 KCAL/MOL
REMARK 923 INTER-LIGAND FREE ENERGY PREDICTED BY IDOCK:   -5.39 KCAL/MOL
REMARK 924 INTRA-LIGAND FREE ENERGY PREDICTED BY IDOCK:   -0.29 KCAL/MOL
REMARK 927      BINDING AFFINITY PREDICTED BY RF-SCORE:    0.00 PKD
ROOT
HETATM    1  C   UNL     1     -10.325  12.170  63.581  1.00  0.00    -0.482 C  
HETATM    2  C   UNL     1     -10.762  12.038  65.007  1.00  0.00    -0.341 A  
HETATM    3  C   UNL     1     -10.380  10.949  65.791  1.00  0.00    -0.241 A  
HETATM    4  N   UNL     1      -9.039  10.484  65.636  1.00  0.00    -0.174 N  
HETATM    5  C   UNL     1      -8.857   9.169  65.277  1.00  0.00    -0.199 C  
HETATM    6  H   UNL     1      -8.244  11.105  65.786  1.00  0.00     0.000 HD 
HETATM    7  C   UNL     1      -9.307   8.108  66.198  1.00  0.00    -0.232 A  
HETATM    8  O   UNL     1      -8.299   8.862  64.230  1.00  0.00    -0.166 OA 
HETATM    9  C   UNL     1     -10.471   8.199  66.958  1.00  0.00    -0.326 A  
HETATM   10  N   UNL     1     -10.868   9.402  67.624  1.00  0.00    -0.228 NA 
HETATM   11  N   UNL     1     -11.130   7.057  67.299  1.00  0.00    -0.296 NA 
HETATM   12  C   UNL     1     -11.029  10.676  67.002  1.00  0.00    -0.208 A  
HETATM   13  C   UNL     1     -10.565   5.862  67.014  1.00  0.00    -0.305 A  
HETATM   14  C   UNL     1     -11.568  12.996  65.604  1.00  0.00    -0.391 A  
HETATM   15  C   UNL     1     -12.013  12.772  66.896  1.00  0.00    -0.310 A  
HETATM   16  C   UNL     1      -9.283   5.727  66.527  1.00  0.00    -0.150 A  
HETATM   17  N   UNL     1     -11.798  11.626  67.577  1.00  0.00    -0.624 NA 
HETATM   18  C   UNL     1      -8.643   6.878  66.103  1.00  0.00    -0.147 A  
ENDROOT
BRANCH  10  19
HETATM   19  C   UNL     1     -10.370   9.471  69.030  1.00  0.00    -0.206 C  
HETATM   20  C   UNL     1      -9.289   8.585  69.575  1.00  0.00    -0.161 C  
HETATM   21  C   UNL     1      -9.022  10.046  69.379  1.00  0.00    -0.205 C  
ENDBRANCH  10  19
TORSDOF 1
ENDMDL
MODEL       40
REMARK 921   NORMALIZED FREE ENERGY PREDICTED BY IDOCK:   -5.08 KCAL/MOL
REMARK 922        TOTAL FREE ENERGY PREDICTED BY IDOCK:   -5.67 KCAL/MOL
REMARK 923 INTER-LIGAND FREE ENERGY PREDICTED BY IDOCK:   -6.03 KCAL/MOL
REMARK 924 INTRA-LIGAND FREE ENERGY PREDICTED BY IDOCK:    0.36 KCAL/MOL
REMARK 927      BINDING AFFINITY PREDICTED BY RF-SCORE:    0.00 PKD
ROOT
HETATM    1  C   UNL     1      -8.336   8.069  67.911  1.00  0.00    -0.129 C  
HETATM    2  C   UNL     1      -9.187   8.443  69.086  1.00  0.00    -0.150 A  
HETATM    3  C   UNL     1     -10.150   9.449  69.000  1.00  0.00    -0.194 A  
HETATM    4  N   UNL     1     -10.911   9.508  67.794  1.00  0.00    -0.495 N  
HETATM    5  C   UNL     1     -10.886  10.684  67.081  1.00  0.00    -0.270 C  
HETATM    6  H   UNL     1     -11.455   8.707  67.472  1.00  0.00     0.000 HD 
HETATM    7  C   UNL     1     -11.437  11.905  67.699  1.00  0.00    -0.387 A  
HETATM    8  O   UNL     1     -10.453  10.731  65.937  1.00  0.00    -0.252 OA 
HETATM    9  C   UNL     1     -11.295  12.208  69.051  1.00  0.00    -0.276 A  
HETATM   10  N   UNL     1     -11.437  11.226  70.083  1.00  0.00    -0.282 NA 
HETATM   11  N   UNL     1     -11.274  13.514  69.440  1.00  0.00    -0.225 NA 
HETATM   12  C   UNL     1     -10.716   9.997  70.157  1.00  0.00    -0.307 A  
HETATM   13  C   UNL     1     -11.531  14.475  68.524  1.00  0.00    -0.301 A  
HETATM   14  C   UNL     1      -9.047   7.802  70.307  1.00  0.00    -0.152 A  
HETATM   15  C   UNL     1      -9.799   8.254  71.379  1.00  0.00    -0.184 A  
HETATM   16  C   UNL     1     -11.963  14.206  67.244  1.00  0.00    -0.449 A  
HETATM   17  N   UNL     1     -10.583   9.352  71.337  1.00  0.00    -0.340 NA 
HETATM   18  C   UNL     1     -11.907  12.890  66.821  1.00  0.00    -0.452 A  
ENDROOT
BRANCH  10  19
HETATM   19  C   UNL     1     -12.830  11.148  70.613  1.00  0.00    -0.186 C  
HETATM   20  C   UNL     1     -13.224  10.316  71.798  1.00  0.00    -0.534 C  
HETATM   21  C   UNL     1     -13.238  11.810  71.903  1.00  0.00    -0.468 C  
ENDBRANCH  10  19
TORSDOF 1
ENDMDL
MODEL       41
REMARK 921   NORMALIZED FREE ENERGY PREDICTED BY IDOCK:   -5.07 KCAL/MOL
REMARK 922        TOTAL FREE ENERGY PREDICTED BY IDOCK:   -5.66 KCAL/MOL
REMARK 923 INTER-LIGAND FREE ENERGY PREDICTED BY IDOCK:   -5.36 KCAL/MOL
REMARK 924 INTRA-LIGAND FREE ENERGY PREDICTED BY IDOCK:   -0.30 KCAL/MOL
REMARK 927      BINDING AFFINITY PREDICTED BY RF-SCORE:    0.00 PKD
ROOT
HETATM    1  C   UNL     1      -7.444  10.324  67.297  1.00  0.00    -0.094 C  
HETATM    2  C   UNL     1      -8.897  10.672  67.395  1.00  0.00    -0.132 A  
HETATM    3  C   UNL     1      -9.638  10.398  68.545  1.00  0.00    -0.158 A  
HETATM    4  N   UNL     1      -8.987  10.619  69.797  1.00  0.00    -0.353 N  
HETATM    5  C   UNL     1      -8.895   9.555  70.664  1.00  0.00    -0.148 C  
HETATM    6  H   UNL     1      -8.604  11.532  70.039  1.00  0.00     0.000 HD 
HETATM    7  C   UNL     1     -10.134   8.969  71.209  1.00  0.00    -0.384 A  
HETATM    8  O   UNL     1      -7.811   9.110  71.019  1.00  0.00    -0.162 OA 
HETATM    9  C   UNL     1     -11.305   8.831  70.467  1.00  0.00    -0.227 A  
HETATM   10  N   UNL     1     -11.785   9.849  69.583  1.00  0.00    -0.047 NA 
HETATM   11  N   UNL     1     -12.165   7.818  70.767  1.00  0.00    -0.132 NA 
HETATM   12  C   UNL     1     -11.037  10.441  68.521  1.00  0.00    -0.266 A  
HETATM   13  C   UNL     1     -11.930   7.061  71.863  1.00  0.00    -0.320 A  
HETATM   14  C   UNL     1      -9.564  11.280  66.342  1.00  0.00    -0.223 A  
HETATM   15  C   UNL     1     -10.927  11.493  66.459  1.00  0.00    -0.293 A  
HETATM   16  C   UNL     1     -10.948   7.348  72.786  1.00  0.00    -0.387 A  
HETATM   17  N   UNL     1     -11.671  11.050  67.495  1.00  0.00    -0.547 NA 
HETATM   18  C   UNL     1     -10.025   8.320  72.446  1.00  0.00    -0.379 A  
ENDROOT
BRANCH  10  19
HETATM   19  C   UNL     1     -12.740  10.784  70.248  1.00  0.00    -0.216 C  
HETATM   20  C   UNL     1     -12.839  10.954  71.735  1.00  0.00    -0.509 C  
HETATM   21  C   UNL     1     -12.290  12.066  70.897  1.00  0.00    -0.384 C  
ENDBRANCH  10  19
TORSDOF 1
ENDMDL
MODEL       42
REMARK 921   NORMALIZED FREE ENERGY PREDICTED BY IDOCK:   -5.07 KCAL/MOL
REMARK 922        TOTAL FREE ENERGY PREDICTED BY IDOCK:   -5.66 KCAL/MOL
REMARK 923 INTER-LIGAND FREE ENERGY PREDICTED BY IDOCK:   -5.76 KCAL/MOL
REMARK 924 INTRA-LIGAND FREE ENERGY PREDICTED BY IDOCK:    0.10 KCAL/MOL
REMARK 927      BINDING AFFINITY PREDICTED BY RF-SCORE:    0.00 PKD
ROOT
HETATM    1  C   UNL     1      -9.666  19.126  69.636  1.00  0.00     0.172 C  
HETATM    2  C   UNL     1     -10.076  18.739  68.249  1.00  0.00    -0.431 A  
HETATM    3  C   UNL     1     -10.433  17.428  67.932  1.00  0.00    -0.383 A  
HETATM    4  N   UNL     1     -11.214  16.723  68.897  1.00  0.00    -0.207 N  
HETATM    5  C   UNL     1     -10.712  15.538  69.381  1.00  0.00    -0.251 C  
HETATM    6  H   UNL     1     -12.112  17.085  69.216  1.00  0.00     0.000 HD 
HETATM    7  C   UNL     1     -10.521  14.410  68.450  1.00  0.00    -0.246 A  
HETATM    8  O   UNL     1     -10.456  15.388  70.569  1.00  0.00    -0.280 OA 
HETATM    9  C   UNL     1     -10.083  14.569  67.136  1.00  0.00    -0.252 A  
HETATM   10  N   UNL     1     -10.553  15.620  66.286  1.00  0.00    -0.303 NA 
HETATM   11  N   UNL     1      -9.385  13.561  66.544  1.00  0.00    -0.245 NA 
HETATM   12  C   UNL     1     -10.515  17.012  66.597  1.00  0.00    -0.253 A  
HETATM   13  C   UNL     1      -9.256  12.381  67.193  1.00  0.00    -0.199 A  
HETATM   14  C   UNL     1     -10.114  19.671  67.224  1.00  0.00    -0.534 A  
HETATM   15  C   UNL     1     -10.412  19.234  65.944  1.00  0.00    -0.451 A  
HETATM   16  C   UNL     1      -9.919  12.084  68.363  1.00  0.00    -0.209 A  
HETATM   17  N   UNL     1     -10.566  17.935  65.611  1.00  0.00    -0.587 NA 
HETATM   18  C   UNL     1     -10.560  13.126  69.009  1.00  0.00    -0.089 A  
ENDROOT
BRANCH  10  19
HETATM   19  C   UNL     1     -11.732  15.212  65.467  1.00  0.00    -0.062 C  
HETATM   20  C   UNL     1     -11.682  14.153  64.405  1.00  0.00    -0.409 C  
HETATM   21  C   UNL     1     -12.438  13.897  65.672  1.00  0.00    -0.538 C  
ENDBRANCH  10  19
TORSDOF 1
ENDMDL
MODEL       43
REMARK 921   NORMALIZED FREE ENERGY PREDICTED BY IDOCK:   -5.06 KCAL/MOL
REMARK 922        TOTAL FREE ENERGY PREDICTED BY IDOCK:   -5.65 KCAL/MOL
REMARK 923 INTER-LIGAND FREE ENERGY PREDICTED BY IDOCK:   -5.36 KCAL/MOL
REMARK 924 INTRA-LIGAND FREE ENERGY PREDICTED BY IDOCK:   -0.30 KCAL/MOL
REMARK 927      BINDING AFFINITY PREDICTED BY RF-SCORE:    0.00 PKD
ROOT
HETATM    1  C   UNL     1      -9.852   4.113  71.179  1.00  0.00    -0.244 C  
HETATM    2  C   UNL     1     -10.181   5.372  71.919  1.00  0.00    -0.258 A  
HETATM    3  C   UNL     1     -10.476   6.559  71.248  1.00  0.00    -0.215 A  
HETATM    4  N   UNL     1     -11.278   6.449  70.071  1.00  0.00    -0.379 N  
HETATM    5  C   UNL     1     -10.758   6.943  68.897  1.00  0.00    -0.222 C  
HETATM    6  H   UNL     1     -12.202   6.020  70.100  1.00  0.00     0.000 HD 
HETATM    7  C   UNL     1     -10.483   8.388  68.791  1.00  0.00    -0.202 A  
HETATM    8  O   UNL     1     -10.554   6.217  67.932  1.00  0.00    -0.200 OA 
HETATM    9  C   UNL     1      -9.988   9.152  69.846  1.00  0.00    -0.197 A  
HETATM   10  N   UNL     1     -10.453   9.005  71.192  1.00  0.00    -0.265 NA 
HETATM   11  N   UNL     1      -9.227  10.248  69.571  1.00  0.00    -0.199 NA 
HETATM   12  C   UNL     1     -10.479   7.783  71.928  1.00  0.00    -0.220 A  
HETATM   13  C   UNL     1      -9.088  10.645  68.286  1.00  0.00    -0.153 A  
HETATM   14  C   UNL     1     -10.202   5.406  73.305  1.00  0.00    -0.215 A  
HETATM   15  C   UNL     1     -10.423   6.621  73.932  1.00  0.00    -0.326 A  
HETATM   16  C   UNL     1      -9.797  10.093  67.241  1.00  0.00    -0.226 A  
HETATM   17  N   UNL     1     -10.515   7.798  73.278  1.00  0.00    -0.346 NA 
HETATM   18  C   UNL     1     -10.504   8.932  67.500  1.00  0.00    -0.337 A  
ENDROOT
BRANCH  10  19
HETATM   19  C   UNL     1     -11.576   9.934  71.515  1.00  0.00    -0.301 C  
HETATM   20  C   UNL     1     -12.396  10.643  70.478  1.00  0.00    -0.448 C  
HETATM   21  C   UNL     1     -13.019   9.557  71.300  1.00  0.00    -0.407 C  
ENDBRANCH  10  19
TORSDOF 1
ENDMDL
MODEL       44
REMARK 921   NORMALIZED FREE ENERGY PREDICTED BY IDOCK:   -5.03 KCAL/MOL
REMARK 922        TOTAL FREE ENERGY PREDICTED BY IDOCK:   -5.62 KCAL/MOL
REMARK 923 INTER-LIGAND FREE ENERGY PREDICTED BY IDOCK:   -5.72 KCAL/MOL
REMARK 924 INTRA-LIGAND FREE ENERGY PREDICTED BY IDOCK:    0.09 KCAL/MOL
REMARK 927      BINDING AFFINITY PREDICTED BY RF-SCORE:    0.00 PKD
ROOT
HETATM    1  C   UNL     1     -10.180   5.096  70.105  1.00  0.00    -0.348 C  
HETATM    2  C   UNL     1     -10.709   6.385  70.656  1.00  0.00    -0.310 A  
HETATM    3  C   UNL     1     -10.822   7.527  69.862  1.00  0.00    -0.240 A  
HETATM    4  N   UNL     1     -11.273   7.336  68.521  1.00  0.00    -0.443 N  
HETATM    5  C   UNL     1     -10.458   7.779  67.505  1.00  0.00    -0.268 C  
HETATM    6  H   UNL     1     -12.167   6.886  68.323  1.00  0.00     0.000 HD 
HETATM    7  C   UNL     1     -10.178   9.224  67.394  1.00  0.00    -0.304 A  
HETATM    8  O   UNL     1      -9.993   7.009  66.674  1.00  0.00    -0.194 OA 
HETATM    9  C   UNL     1      -9.996  10.054  68.498  1.00  0.00    -0.162 A  
HETATM   10  N   UNL     1     -10.808   9.967  69.674  1.00  0.00    -0.240 NA 
HETATM   11  N   UNL     1      -9.198  11.152  68.378  1.00  0.00    -0.169 NA 
HETATM   12  C   UNL     1     -11.021   8.785  70.444  1.00  0.00    -0.235 A  
HETATM   13  C   UNL     1      -8.720  11.484  67.157  1.00  0.00    -0.160 A  
HETATM   14  C   UNL     1     -11.107   6.492  71.980  1.00  0.00    -0.296 A  
HETATM   15  C   UNL     1     -11.501   7.732  72.452  1.00  0.00    -0.363 A  
HETATM   16  C   UNL     1      -9.112  10.860  65.993  1.00  0.00    -0.208 A  
HETATM   17  N   UNL     1     -11.422   8.870  71.731  1.00  0.00    -0.330 NA 
HETATM   18  C   UNL     1      -9.853   9.698  66.117  1.00  0.00    -0.334 A  
ENDROOT
BRANCH  10  19
HETATM   19  C   UNL     1     -11.985  10.883  69.628  1.00  0.00    -0.343 C  
HETATM   20  C   UNL     1     -12.184  12.031  70.572  1.00  0.00    -0.414 C  
HETATM   21  C   UNL     1     -11.880  12.302  69.131  1.00  0.00    -0.355 C  
ENDBRANCH  10  19
TORSDOF 1
ENDMDL
MODEL       45
REMARK 921   NORMALIZED FREE ENERGY PREDICTED BY IDOCK:   -5.03 KCAL/MOL
REMARK 922        TOTAL FREE ENERGY PREDICTED BY IDOCK:   -5.62 KCAL/MOL
REMARK 923 INTER-LIGAND FREE ENERGY PREDICTED BY IDOCK:   -5.57 KCAL/MOL
REMARK 924 INTRA-LIGAND FREE ENERGY PREDICTED BY IDOCK:   -0.05 KCAL/MOL
REMARK 927      BINDING AFFINITY PREDICTED BY RF-SCORE:    0.00 PKD
ROOT
HETATM    1  C   UNL     1     -11.863  12.628  68.775  1.00  0.00    -0.341 C  
HETATM    2  C   UNL     1     -11.834  13.964  69.449  1.00  0.00    -0.384 A  
HETATM    3  C   UNL     1     -11.141  15.045  68.902  1.00  0.00    -0.266 A  
HETATM    4  N   UNL     1     -11.214  15.203  67.485  1.00  0.00    -0.327 N  
HETATM    5  C   UNL     1     -10.030  15.219  66.784  1.00  0.00    -0.242 C  
HETATM    6  H   UNL     1     -12.110  15.302  67.010  1.00  0.00     0.000 HD 
HETATM    7  C   UNL     1      -9.066  16.306  67.035  1.00  0.00    -0.226 A  
HETATM    8  O   UNL     1      -9.779  14.374  65.934  1.00  0.00    -0.306 OA 
HETATM    9  C   UNL     1      -8.835  16.846  68.298  1.00  0.00    -0.228 A  
HETATM   10  N   UNL     1      -9.889  17.122  69.226  1.00  0.00    -0.161 NA 
HETATM   11  N   UNL     1      -7.609  17.369  68.582  1.00  0.00    -0.257 NA 
HETATM   12  C   UNL     1     -10.864  16.181  69.673  1.00  0.00    -0.338 A  
HETATM   13  C   UNL     1      -6.697  17.479  67.589  1.00  0.00    -0.162 A  
HETATM   14  C   UNL     1     -12.496  14.179  70.649  1.00  0.00    -0.432 A  
HETATM   15  C   UNL     1     -12.357  15.409  71.269  1.00  0.00    -0.385 A  
HETATM   16  C   UNL     1      -6.984  17.228  66.265  1.00  0.00    -0.299 A  
HETATM   17  N   UNL     1     -11.529  16.381  70.831  1.00  0.00    -0.307 NA 
HETATM   18  C   UNL     1      -8.194  16.621  65.984  1.00  0.00    -0.146 A  
ENDROOT
BRANCH  10  19
HETATM   19  C   UNL     1     -10.400  18.520  69.115  1.00  0.00     0.099 C  
HETATM   20  C   UNL     1      -9.618  19.647  68.507  1.00  0.00    -0.467 C  
HETATM   21  C   UNL     1     -10.827  19.118  67.799  1.00  0.00    -0.398 C  
ENDBRANCH  10  19
TORSDOF 1
ENDMDL
MODEL       46
REMARK 921   NORMALIZED FREE ENERGY PREDICTED BY IDOCK:   -5.03 KCAL/MOL
REMARK 922        TOTAL FREE ENERGY PREDICTED BY IDOCK:   -5.62 KCAL/MOL
REMARK 923 INTER-LIGAND FREE ENERGY PREDICTED BY IDOCK:   -5.32 KCAL/MOL
REMARK 924 INTRA-LIGAND FREE ENERGY PREDICTED BY IDOCK:   -0.30 KCAL/MOL
REMARK 927      BINDING AFFINITY PREDICTED BY RF-SCORE:    0.00 PKD
ROOT
HETATM    1  C   UNL     1      -7.362  10.989  69.142  1.00  0.00    -0.121 C  
HETATM    2  C   UNL     1      -7.076  12.358  68.606  1.00  0.00    -0.103 A  
HETATM    3  C   UNL     1      -8.092  13.173  68.104  1.00  0.00    -0.155 A  
HETATM    4  N   UNL     1      -9.332  13.163  68.811  1.00  0.00    -0.401 N  
HETATM    5  C   UNL     1     -10.464  12.818  68.109  1.00  0.00    -0.236 C  
HETATM    6  H   UNL     1      -9.378  13.404  69.801  1.00  0.00     0.000 HD 
HETATM    7  C   UNL     1     -10.901  13.679  66.993  1.00  0.00    -0.291 A  
HETATM    8  O   UNL     1     -11.132  11.838  68.412  1.00  0.00    -0.204 OA 
HETATM    9  C   UNL     1     -10.016  14.307  66.119  1.00  0.00    -0.314 A  
HETATM   10  N   UNL     1      -8.807  14.932  66.560  1.00  0.00    -0.255 NA 
HETATM   11  N   UNL     1     -10.417  14.567  64.843  1.00  0.00    -0.431 NA 
HETATM   12  C   UNL     1      -7.787  14.303  67.335  1.00  0.00    -0.187 A  
HETATM   13  C   UNL     1     -11.705  14.338  64.501  1.00  0.00    -0.418 A  
HETATM   14  C   UNL     1      -5.787  12.868  68.586  1.00  0.00    -0.069 A  
HETATM   15  C   UNL     1      -5.575  14.102  67.995  1.00  0.00    -0.122 A  
HETATM   16  C   UNL     1     -12.682  13.995  65.409  1.00  0.00    -0.499 A  
HETATM   17  N   UNL     1      -6.529  14.795  67.339  1.00  0.00    -0.310 NA 
HETATM   18  C   UNL     1     -12.267  13.650  66.683  1.00  0.00    -0.437 A  
ENDROOT
BRANCH  10  19
HETATM   19  C   UNL     1      -8.986  16.384  66.855  1.00  0.00    -0.216 C  
HETATM   20  C   UNL     1     -10.275  16.983  67.335  1.00  0.00    -0.314 C  
HETATM   21  C   UNL     1      -9.101  16.911  68.262  1.00  0.00    -0.235 C  
ENDBRANCH  10  19
TORSDOF 1
ENDMDL
MODEL       47
REMARK 921   NORMALIZED FREE ENERGY PREDICTED BY IDOCK:   -4.98 KCAL/MOL
REMARK 922        TOTAL FREE ENERGY PREDICTED BY IDOCK:   -5.57 KCAL/MOL
REMARK 923 INTER-LIGAND FREE ENERGY PREDICTED BY IDOCK:   -5.28 KCAL/MOL
REMARK 924 INTRA-LIGAND FREE ENERGY PREDICTED BY IDOCK:   -0.29 KCAL/MOL
REMARK 927      BINDING AFFINITY PREDICTED BY RF-SCORE:    0.00 PKD
ROOT
HETATM    1  C   UNL     1     -12.124  12.100  70.427  1.00  0.00    -0.395 C  
HETATM    2  C   UNL     1     -12.299  10.737  71.023  1.00  0.00    -0.509 A  
HETATM    3  C   UNL     1     -11.512   9.658  70.621  1.00  0.00    -0.306 A  
HETATM    4  N   UNL     1     -10.129   9.923  70.384  1.00  0.00    -0.363 N  
HETATM    5  C   UNL     1      -9.627   9.622  69.140  1.00  0.00    -0.174 C  
HETATM    6  H   UNL     1      -9.535  10.322  71.111  1.00  0.00     0.000 HD 
HETATM    7  C   UNL     1      -9.616   8.215  68.696  1.00  0.00    -0.151 A  
HETATM    8  O   UNL     1      -9.157  10.487  68.412  1.00  0.00    -0.136 OA 
HETATM    9  C   UNL     1     -10.638   7.314  68.987  1.00  0.00    -0.201 A  
HETATM   10  N   UNL     1     -11.269   7.248  70.270  1.00  0.00    -0.273 NA 
HETATM   11  N   UNL     1     -10.884   6.289  68.124  1.00  0.00    -0.296 NA 
HETATM   12  C   UNL     1     -11.878   8.346  70.948  1.00  0.00    -0.217 A  
HETATM   13  C   UNL     1     -10.042   6.090  67.084  1.00  0.00    -0.173 A  
HETATM   14  C   UNL     1     -13.255  10.497  71.998  1.00  0.00    -0.483 A  
HETATM   15  C   UNL     1     -13.431   9.197  72.443  1.00  0.00    -0.476 A  
HETATM   16  C   UNL     1      -8.858   6.776  66.926  1.00  0.00    -0.120 A  
HETATM   17  N   UNL     1     -12.800   8.129  71.911  1.00  0.00    -0.329 NA 
HETATM   18  C   UNL     1      -8.645   7.869  67.747  1.00  0.00    -0.128 A  
ENDROOT
BRANCH  10  19
HETATM   19  C   UNL     1     -10.620   6.256  71.178  1.00  0.00    -0.239 C  
HETATM   20  C   UNL     1      -9.150   5.961  71.174  1.00  0.00    -0.152 C  
HETATM   21  C   UNL     1      -9.759   6.674  72.341  1.00  0.00    -0.162 C  
ENDBRANCH  10  19
TORSDOF 1
ENDMDL
MODEL       48
REMARK 921   NORMALIZED FREE ENERGY PREDICTED BY IDOCK:   -4.97 KCAL/MOL
REMARK 922        TOTAL FREE ENERGY PREDICTED BY IDOCK:   -5.56 KCAL/MOL
REMARK 923 INTER-LIGAND FREE ENERGY PREDICTED BY IDOCK:   -5.26 KCAL/MOL
REMARK 924 INTRA-LIGAND FREE ENERGY PREDICTED BY IDOCK:   -0.30 KCAL/MOL
REMARK 927      BINDING AFFINITY PREDICTED BY RF-SCORE:    0.00 PKD
ROOT
HETATM    1  C   UNL     1     -12.403  15.384  64.112  1.00  0.00    -0.015 C  
HETATM    2  C   UNL     1     -11.910  13.988  64.335  1.00  0.00    -0.453 A  
HETATM    3  C   UNL     1     -11.185  13.642  65.476  1.00  0.00    -0.293 A  
HETATM    4  N   UNL     1     -11.610  14.224  66.709  1.00  0.00    -0.374 N  
HETATM    5  C   UNL     1     -10.690  14.961  67.416  1.00  0.00    -0.292 C  
HETATM    6  H   UNL     1     -12.562  14.097  67.052  1.00  0.00     0.000 HD 
HETATM    7  C   UNL     1      -9.488  14.287  67.943  1.00  0.00    -0.212 A  
HETATM    8  O   UNL     1     -10.864  16.151  67.649  1.00  0.00    -0.318 OA 
HETATM    9  C   UNL     1      -8.810  13.284  67.254  1.00  0.00    -0.216 A  
HETATM   10  N   UNL     1      -9.486  12.241  66.544  1.00  0.00    -0.232 NA 
HETATM   11  N   UNL     1      -7.473  13.125  67.460  1.00  0.00    -0.161 NA 
HETATM   12  C   UNL     1     -10.475  12.437  65.534  1.00  0.00    -0.275 A  
HETATM   13  C   UNL     1      -6.867  13.849  68.428  1.00  0.00    -0.101 A  
HETATM   14  C   UNL     1     -12.156  12.983  63.412  1.00  0.00    -0.591 A  
HETATM   15  C   UNL     1     -11.597  11.735  63.631  1.00  0.00    -0.424 A  
HETATM   16  C   UNL     1      -7.553  14.637  69.327  1.00  0.00    -0.113 A  
HETATM   17  N   UNL     1     -10.737  11.462  64.636  1.00  0.00    -0.318 NA 
HETATM   18  C   UNL     1      -8.894  14.866  69.072  1.00  0.00    -0.179 A  
ENDROOT
BRANCH  10  19
HETATM   19  C   UNL     1      -9.704  11.025  67.381  1.00  0.00    -0.168 C  
HETATM   20  C   UNL     1      -9.830  11.054  68.875  1.00  0.00    -0.189 C  
HETATM   21  C   UNL     1     -11.027  10.727  68.038  1.00  0.00    -0.336 C  
ENDBRANCH  10  19
TORSDOF 1
ENDMDL
MODEL       49
REMARK 921   NORMALIZED FREE ENERGY PREDICTED BY IDOCK:   -4.93 KCAL/MOL
REMARK 922        TOTAL FREE ENERGY PREDICTED BY IDOCK:   -5.52 KCAL/MOL
REMARK 923 INTER-LIGAND FREE ENERGY PREDICTED BY IDOCK:   -5.23 KCAL/MOL
REMARK 924 INTRA-LIGAND FREE ENERGY PREDICTED BY IDOCK:   -0.29 KCAL/MOL
REMARK 927      BINDING AFFINITY PREDICTED BY RF-SCORE:    0.00 PKD
ROOT
HETATM    1  C   UNL     1      -8.921   9.513  63.484  1.00  0.00    -0.205 C  
HETATM    2  C   UNL     1      -8.711  10.122  64.835  1.00  0.00    -0.198 A  
HETATM    3  C   UNL     1      -9.458  11.218  65.267  1.00  0.00    -0.221 A  
HETATM    4  N   UNL     1     -10.846  11.224  64.928  1.00  0.00    -0.267 N  
HETATM    5  C   UNL     1     -11.322  12.295  64.209  1.00  0.00    -0.352 C  
HETATM    6  H   UNL     1     -11.461  10.461  65.209  1.00  0.00     0.000 HD 
HETATM    7  C   UNL     1     -11.283  13.638  64.819  1.00  0.00    -0.367 A  
HETATM    8  O   UNL     1     -11.809  12.153  63.095  1.00  0.00    -0.373 OA 
HETATM    9  C   UNL     1     -10.237  14.081  65.626  1.00  0.00    -0.334 A  
HETATM   10  N   UNL     1      -9.621  13.252  66.618  1.00  0.00    -0.257 NA 
HETATM   11  N   UNL     1      -9.948  15.411  65.666  1.00  0.00    -0.351 NA 
HETATM   12  C   UNL     1      -9.056  11.964  66.382  1.00  0.00    -0.208 A  
HETATM   13  C   UNL     1     -10.769  16.281  65.034  1.00  0.00    -0.298 A  
HETATM   14  C   UNL     1      -7.760   9.620  65.711  1.00  0.00    -0.106 A  
HETATM   15  C   UNL     1      -7.550  10.282  66.908  1.00  0.00    -0.105 A  
HETATM   16  C   UNL     1     -11.972  15.915  64.472  1.00  0.00     0.006 A  
HETATM   17  N   UNL     1      -8.139  11.452  67.233  1.00  0.00    -0.141 NA 
HETATM   18  C   UNL     1     -12.230  14.560  64.356  1.00  0.00    -0.480 A  
ENDROOT
BRANCH  10  19
HETATM   19  C   UNL     1     -10.250  13.404  67.963  1.00  0.00    -0.243 C  
HETATM   20  C   UNL     1     -11.593  14.032  68.188  1.00  0.00    -0.369 C  
HETATM   21  C   UNL     1     -11.418  12.561  68.405  1.00  0.00    -0.355 C  
ENDBRANCH  10  19
TORSDOF 1
ENDMDL
MODEL       50
REMARK 921   NORMALIZED FREE ENERGY PREDICTED BY IDOCK:   -4.93 KCAL/MOL
REMARK 922        TOTAL FREE ENERGY PREDICTED BY IDOCK:   -5.51 KCAL/MOL
REMARK 923 INTER-LIGAND FREE ENERGY PREDICTED BY IDOCK:   -5.21 KCAL/MOL
REMARK 924 INTRA-LIGAND FREE ENERGY PREDICTED BY IDOCK:   -0.30 KCAL/MOL
REMARK 927      BINDING AFFINITY PREDICTED BY RF-SCORE:    0.00 PKD
ROOT
HETATM    1  C   UNL     1     -11.721  14.897  64.339  1.00  0.00    -0.338 C  
HETATM    2  C   UNL     1     -10.840  14.895  65.549  1.00  0.00    -0.365 A  
HETATM    3  C   UNL     1     -10.224  13.728  66.002  1.00  0.00    -0.308 A  
HETATM    4  N   UNL     1      -9.704  12.846  65.006  1.00  0.00    -0.507 N  
HETATM    5  C   UNL     1     -10.168  11.552  64.996  1.00  0.00    -0.280 C  
HETATM    6  H   UNL     1      -9.014  13.165  64.327  1.00  0.00     0.000 HD 
HETATM    7  C   UNL     1      -9.895  10.686  66.159  1.00  0.00    -0.268 A  
HETATM    8  O   UNL     1     -10.768  11.094  64.032  1.00  0.00    -0.368 OA 
HETATM    9  C   UNL     1      -9.906  11.147  67.474  1.00  0.00    -0.177 A  
HETATM   10  N   UNL     1      -9.337  12.402  67.859  1.00  0.00    -0.189 NA 
HETATM   11  N   UNL     1     -10.233  10.283  68.476  1.00  0.00    -0.165 NA 
HETATM   12  C   UNL     1      -9.662  13.667  67.284  1.00  0.00    -0.243 A  
HETATM   13  C   UNL     1     -10.400   8.973  68.185  1.00  0.00    -0.214 A  
HETATM   14  C   UNL     1     -10.603  16.056  66.269  1.00  0.00    -0.288 A  
HETATM   15  C   UNL     1      -9.854  15.972  67.430  1.00  0.00    -0.236 A  
HETATM   16  C   UNL     1     -10.113   8.428  66.953  1.00  0.00    -0.364 A  
HETATM   17  N   UNL     1      -9.425  14.810  67.965  1.00  0.00    -0.200 NA 
HETATM   18  C   UNL     1      -9.861   9.307  65.915  1.00  0.00    -0.335 A  
ENDROOT
BRANCH  10  19
HETATM   19  C   UNL     1      -7.913  12.279  68.291  1.00  0.00    -0.163 C  
HETATM   20  C   UNL     1      -7.043  11.103  67.962  1.00  0.00    -0.073 C  
HETATM   21  C   UNL     1      -6.765  12.430  67.328  1.00  0.00    -0.133 C  
ENDBRANCH  10  19
TORSDOF 1
ENDMDL
MODEL       51
REMARK 921   NORMALIZED FREE ENERGY PREDICTED BY IDOCK:   -4.87 KCAL/MOL
REMARK 922        TOTAL FREE ENERGY PREDICTED BY IDOCK:   -5.45 KCAL/MOL
REMARK 923 INTER-LIGAND FREE ENERGY PREDICTED BY IDOCK:   -5.16 KCAL/MOL
REMARK 924 INTRA-LIGAND FREE ENERGY PREDICTED BY IDOCK:   -0.30 KCAL/MOL
REMARK 927      BINDING AFFINITY PREDICTED BY RF-SCORE:    0.00 PKD
ROOT
HETATM    1  C   UNL     1      -9.898   4.241  69.262  1.00  0.00    -0.180 C  
HETATM    2  C   UNL     1     -10.155   5.268  70.322  1.00  0.00    -0.329 A  
HETATM    3  C   UNL     1     -10.429   6.597  70.000  1.00  0.00    -0.212 A  
HETATM    4  N   UNL     1     -11.273   6.825  68.870  1.00  0.00    -0.531 N  
HETATM    5  C   UNL     1     -10.774   7.598  67.848  1.00  0.00    -0.108 C  
HETATM    6  H   UNL     1     -12.211   6.428  68.824  1.00  0.00     0.000 HD 
HETATM    7  C   UNL     1     -10.450   9.012  68.115  1.00  0.00    -0.257 A  
HETATM    8  O   UNL     1     -10.630   7.149  66.718  1.00  0.00    -0.288 OA 
HETATM    9  C   UNL     1      -9.893   9.456  69.312  1.00  0.00    -0.174 A  
HETATM   10  N   UNL     1     -10.318   8.970  70.590  1.00  0.00    -0.212 NA 
HETATM   11  N   UNL     1      -9.101  10.564  69.305  1.00  0.00    -0.177 NA 
HETATM   12  C   UNL     1     -10.365   7.598  70.978  1.00  0.00    -0.202 A  
HETATM   13  C   UNL     1      -8.991  11.284  68.166  1.00  0.00    -0.166 A  
HETATM   14  C   UNL     1     -10.129   4.934  71.667  1.00  0.00    -0.266 A  
HETATM   15  C   UNL     1     -10.285   5.945  72.601  1.00  0.00    -0.183 A  
HETATM   16  C   UNL     1      -9.753  11.047  67.043  1.00  0.00    -0.208 A  
HETATM   17  N   UNL     1     -10.355   7.255  72.285  1.00  0.00    -0.204 NA 
HETATM   18  C   UNL     1     -10.494   9.879  67.016  1.00  0.00    -0.296 A  
ENDROOT
BRANCH  10  19
HETATM   19  C   UNL     1     -11.395   9.809  71.194  1.00  0.00    -0.389 C  
HETATM   20  C   UNL     1     -12.421  10.552  70.390  1.00  0.00    -0.392 C  
HETATM   21  C   UNL     1     -12.837   9.374  71.215  1.00  0.00    -0.383 C  
ENDBRANCH  10  19
TORSDOF 1
ENDMDL
MODEL       52
REMARK 921   NORMALIZED FREE ENERGY PREDICTED BY IDOCK:   -4.84 KCAL/MOL
REMARK 922        TOTAL FREE ENERGY PREDICTED BY IDOCK:   -5.42 KCAL/MOL
REMARK 923 INTER-LIGAND FREE ENERGY PREDICTED BY IDOCK:   -5.14 KCAL/MOL
REMARK 924 INTRA-LIGAND FREE ENERGY PREDICTED BY IDOCK:   -0.29 KCAL/MOL
REMARK 927      BINDING AFFINITY PREDICTED BY RF-SCORE:    0.00 PKD
ROOT
HETATM    1  C   UNL     1     -12.429  12.193  63.427  1.00  0.00    -0.625 C  
HETATM    2  C   UNL     1     -11.976  12.670  64.772  1.00  0.00    -0.458 A  
HETATM    3  C   UNL     1     -10.897  12.080  65.431  1.00  0.00    -0.291 A  
HETATM    4  N   UNL     1      -9.775  11.714  64.628  1.00  0.00    -0.354 N  
HETATM    5  C   UNL     1      -9.377  10.398  64.650  1.00  0.00    -0.254 C  
HETATM    6  H   UNL     1      -9.285  12.404  64.058  1.00  0.00     0.000 HD 
HETATM    7  C   UNL     1      -8.885   9.822  65.916  1.00  0.00    -0.175 A  
HETATM    8  O   UNL     1      -9.388   9.708  63.638  1.00  0.00    -0.211 OA 
HETATM    9  C   UNL     1      -9.424  10.138  67.160  1.00  0.00    -0.158 A  
HETATM   10  N   UNL     1      -9.791  11.472  67.528  1.00  0.00    -0.188 NA 
HETATM   11  N   UNL     1      -9.373   9.214  68.159  1.00  0.00    -0.138 NA 
HETATM   12  C   UNL     1     -10.675  12.318  66.793  1.00  0.00    -0.240 A  
HETATM   13  C   UNL     1      -8.678   8.071  67.961  1.00  0.00    -0.125 A  
HETATM   14  C   UNL     1     -12.615  13.719  65.416  1.00  0.00    -0.534 A  
HETATM   15  C   UNL     1     -12.207  14.054  66.696  1.00  0.00    -0.428 A  
HETATM   16  C   UNL     1      -7.888   7.846  66.855  1.00  0.00    -0.104 A  
HETATM   17  N   UNL     1     -11.294  13.353  67.401  1.00  0.00    -0.295 NA 
HETATM   18  C   UNL     1      -8.001   8.740  65.805  1.00  0.00    -0.105 A  
ENDROOT
BRANCH  10  19
HETATM   19  C   UNL     1      -8.687  12.201  68.219  1.00  0.00    -0.178 C  
HETATM   20  C   UNL     1      -7.233  11.993  67.913  1.00  0.00    -0.102 C  
HETATM   21  C   UNL     1      -7.891  13.286  67.541  1.00  0.00    -0.173 C  
ENDBRANCH  10  19
TORSDOF 1
ENDMDL
MODEL       53
REMARK 921   NORMALIZED FREE ENERGY PREDICTED BY IDOCK:   -4.80 KCAL/MOL
REMARK 922        TOTAL FREE ENERGY PREDICTED BY IDOCK:   -5.38 KCAL/MOL
REMARK 923 INTER-LIGAND FREE ENERGY PREDICTED BY IDOCK:   -5.24 KCAL/MOL
REMARK 924 INTRA-LIGAND FREE ENERGY PREDICTED BY IDOCK:   -0.14 KCAL/MOL
REMARK 927      BINDING AFFINITY PREDICTED BY RF-SCORE:    0.00 PKD
ROOT
HETATM    1  C   UNL     1     -12.006  12.926  63.249  1.00  0.00    -0.516 C  
HETATM    2  C   UNL     1     -10.989  12.054  63.916  1.00  0.00    -0.465 A  
HETATM    3  C   UNL     1     -10.636  12.233  65.255  1.00  0.00    -0.287 A  
HETATM    4  N   UNL     1     -11.694  12.548  66.161  1.00  0.00    -0.399 N  
HETATM    5  C   UNL     1     -11.586  13.710  66.888  1.00  0.00    -0.367 C  
HETATM    6  H   UNL     1     -12.501  11.933  66.265  1.00  0.00     0.000 HD 
HETATM    7  C   UNL     1     -10.478  13.848  67.853  1.00  0.00    -0.242 A  
HETATM    8  O   UNL     1     -12.406  14.613  66.779  1.00  0.00    -0.245 OA 
HETATM    9  C   UNL     1      -9.196  13.354  67.621  1.00  0.00    -0.212 A  
HETATM   10  N   UNL     1      -8.956  12.074  67.027  1.00  0.00    -0.191 NA 
HETATM   11  N   UNL     1      -8.131  13.977  68.198  1.00  0.00    -0.140 NA 
HETATM   12  C   UNL     1      -9.486  11.631  65.778  1.00  0.00    -0.226 A  
HETATM   13  C   UNL     1      -8.355  14.968  69.091  1.00  0.00    -0.187 A  
HETATM   14  C   UNL     1     -10.354  11.032  63.227  1.00  0.00    -0.317 A  
HETATM   15  C   UNL     1      -9.358  10.319  63.872  1.00  0.00    -0.291 A  
HETATM   16  C   UNL     1      -9.607  15.290  69.568  1.00  0.00    -0.219 A  
HETATM   17  N   UNL     1      -8.889  10.626  65.100  1.00  0.00    -0.190 NA 
HETATM   18  C   UNL     1     -10.693  14.721  68.927  1.00  0.00    -0.253 A  
ENDROOT
BRANCH  10  19
HETATM   19  C   UNL     1      -8.804  10.990  68.042  1.00  0.00    -0.138 C  
HETATM   20  C   UNL     1      -9.792  10.733  69.141  1.00  0.00    -0.194 C  
HETATM   21  C   UNL     1      -9.653   9.746  68.024  1.00  0.00    -0.160 C  
ENDBRANCH  10  19
TORSDOF 1
ENDMDL
MODEL       54
REMARK 921   NORMALIZED FREE ENERGY PREDICTED BY IDOCK:   -4.80 KCAL/MOL
REMARK 922        TOTAL FREE ENERGY PREDICTED BY IDOCK:   -5.38 KCAL/MOL
REMARK 923 INTER-LIGAND FREE ENERGY PREDICTED BY IDOCK:   -5.43 KCAL/MOL
REMARK 924 INTRA-LIGAND FREE ENERGY PREDICTED BY IDOCK:    0.06 KCAL/MOL
REMARK 927      BINDING AFFINITY PREDICTED BY RF-SCORE:    0.00 PKD
ROOT
HETATM    1  C   UNL     1     -11.230  10.240  70.521  1.00  0.00    -0.408 C  
HETATM    2  C   UNL     1     -11.347  11.118  69.314  1.00  0.00    -0.349 A  
HETATM    3  C   UNL     1     -10.934  10.685  68.053  1.00  0.00    -0.282 A  
HETATM    4  N   UNL     1     -11.221   9.329  67.712  1.00  0.00    -0.412 N  
HETATM    5  C   UNL     1     -10.164   8.520  67.368  1.00  0.00    -0.261 C  
HETATM    6  H   UNL     1     -12.177   8.972  67.724  1.00  0.00     0.000 HD 
HETATM    7  C   UNL     1      -9.380   8.844  66.161  1.00  0.00    -0.301 A  
HETATM    8  O   UNL     1      -9.883   7.521  68.019  1.00  0.00    -0.143 OA 
HETATM    9  C   UNL     1      -9.081  10.147  65.771  1.00  0.00    -0.171 A  
HETATM   10  N   UNL     1     -10.034  11.213  65.839  1.00  0.00    -0.228 NA 
HETATM   11  N   UNL     1      -7.940  10.383  65.065  1.00  0.00    -0.149 NA 
HETATM   12  C   UNL     1     -10.760  11.598  67.005  1.00  0.00    -0.253 A  
HETATM   13  C   UNL     1      -7.202   9.332  64.641  1.00  0.00    -0.100 A  
HETATM   14  C   UNL     1     -11.870  12.399  69.404  1.00  0.00    -0.365 A  
HETATM   15  C   UNL     1     -11.868  13.194  68.270  1.00  0.00    -0.349 A  
HETATM   16  C   UNL     1      -7.614   8.022  64.752  1.00  0.00    -0.105 A  
HETATM   17  N   UNL     1     -11.289  12.838  67.104  1.00  0.00    -0.296 NA 
HETATM   18  C   UNL     1      -8.726   7.773  65.538  1.00  0.00    -0.102 A  
ENDROOT
BRANCH  10  19
HETATM   19  C   UNL     1     -10.794  11.386  64.565  1.00  0.00    -0.309 C  
HETATM   20  C   UNL     1     -10.573  12.523  63.612  1.00  0.00    -0.446 C  
HETATM   21  C   UNL     1     -10.170  11.136  63.217  1.00  0.00    -0.403 C  
ENDBRANCH  10  19
TORSDOF 1
ENDMDL
MODEL       55
REMARK 921   NORMALIZED FREE ENERGY PREDICTED BY IDOCK:   -4.79 KCAL/MOL
REMARK 922        TOTAL FREE ENERGY PREDICTED BY IDOCK:   -5.36 KCAL/MOL
REMARK 923 INTER-LIGAND FREE ENERGY PREDICTED BY IDOCK:   -5.08 KCAL/MOL
REMARK 924 INTRA-LIGAND FREE ENERGY PREDICTED BY IDOCK:   -0.29 KCAL/MOL
REMARK 927      BINDING AFFINITY PREDICTED BY RF-SCORE:    0.00 PKD
ROOT
HETATM    1  C   UNL     1      -6.526  10.878  67.360  1.00  0.00    -0.065 C  
HETATM    2  C   UNL     1      -7.907  10.633  66.835  1.00  0.00    -0.121 A  
HETATM    3  C   UNL     1      -8.881  11.632  66.847  1.00  0.00    -0.190 A  
HETATM    4  N   UNL     1      -8.451  12.954  66.522  1.00  0.00    -0.415 N  
HETATM    5  C   UNL     1      -8.676  13.944  67.449  1.00  0.00    -0.203 C  
HETATM    6  H   UNL     1      -7.993  13.157  65.634  1.00  0.00     0.000 HD 
HETATM    7  C   UNL     1     -10.067  14.291  67.800  1.00  0.00    -0.231 A  
HETATM    8  O   UNL     1      -7.753  14.565  67.960  1.00  0.00    -0.113 OA 
HETATM    9  C   UNL     1     -11.086  13.347  67.908  1.00  0.00    -0.265 A  
HETATM   10  N   UNL     1     -11.241  12.266  66.983  1.00  0.00    -0.290 NA 
HETATM   11  N   UNL     1     -12.122  13.586  68.759  1.00  0.00    -0.326 NA 
HETATM   12  C   UNL     1     -10.231  11.317  66.646  1.00  0.00    -0.229 A  
HETATM   13  C   UNL     1     -12.208  14.791  69.368  1.00  0.00    -0.216 A  
HETATM   14  C   UNL     1      -8.270   9.400  66.315  1.00  0.00    -0.111 A  
HETATM   15  C   UNL     1      -9.586   9.209  65.929  1.00  0.00    -0.273 A  
HETATM   16  C   UNL     1     -11.385  15.853  69.065  1.00  0.00    -0.371 A  
HETATM   17  N   UNL     1     -10.566  10.116  66.125  1.00  0.00    -0.093 NA 
HETATM   18  C   UNL     1     -10.284  15.593  68.268  1.00  0.00    -0.223 A  
ENDROOT
BRANCH  10  19
HETATM   19  C   UNL     1     -12.159  12.603  65.856  1.00  0.00    -0.396 C  
HETATM   20  C   UNL     1     -12.592  14.001  65.524  1.00  0.00    -0.543 C  
HETATM   21  C   UNL     1     -11.674  13.269  64.594  1.00  0.00    -0.403 C  
ENDBRANCH  10  19
TORSDOF 1
ENDMDL
MODEL       56
REMARK 921   NORMALIZED FREE ENERGY PREDICTED BY IDOCK:   -4.78 KCAL/MOL
REMARK 922        TOTAL FREE ENERGY PREDICTED BY IDOCK:   -5.36 KCAL/MOL
REMARK 923 INTER-LIGAND FREE ENERGY PREDICTED BY IDOCK:   -5.50 KCAL/MOL
REMARK 924 INTRA-LIGAND FREE ENERGY PREDICTED BY IDOCK:    0.15 KCAL/MOL
REMARK 927      BINDING AFFINITY PREDICTED BY RF-SCORE:    0.00 PKD
ROOT
HETATM    1  C   UNL     1      -7.133   9.857  63.758  1.00  0.00    -0.126 C  
HETATM    2  C   UNL     1      -7.553   9.759  65.192  1.00  0.00    -0.125 A  
HETATM    3  C   UNL     1      -8.774  10.271  65.632  1.00  0.00    -0.162 A  
HETATM    4  N   UNL     1      -9.897  10.086  64.770  1.00  0.00    -0.373 N  
HETATM    5  C   UNL     1     -10.575  11.208  64.356  1.00  0.00    -0.343 C  
HETATM    6  H   UNL     1     -10.186   9.154  64.472  1.00  0.00     0.000 HD 
HETATM    7  C   UNL     1     -11.260  12.041  65.364  1.00  0.00    -0.374 A  
HETATM    8  O   UNL     1     -10.653  11.510  63.172  1.00  0.00    -0.335 OA 
HETATM    9  C   UNL     1     -10.743  12.283  66.634  1.00  0.00    -0.245 A  
HETATM   10  N   UNL     1     -10.115  11.265  67.421  1.00  0.00    -0.185 NA 
HETATM   11  N   UNL     1     -11.058  13.447  67.267  1.00  0.00    -0.276 NA 
HETATM   12  C   UNL     1      -9.023  10.451  66.998  1.00  0.00    -0.139 A  
HETATM   13  C   UNL     1     -11.974  14.271  66.709  1.00  0.00    -0.436 A  
HETATM   14  C   UNL     1      -6.740   9.156  66.139  1.00  0.00    -0.074 A  
HETATM   15  C   UNL     1      -7.143   9.177  67.464  1.00  0.00    -0.079 A  
HETATM   16  C   UNL     1     -12.724  13.932  65.604  1.00  0.00    -0.534 A  
HETATM   17  N   UNL     1      -8.230   9.843  67.908  1.00  0.00    -0.113 NA 
HETATM   18  C   UNL     1     -12.351  12.793  64.912  1.00  0.00    -0.551 A  
ENDROOT
BRANCH  10  19
HETATM   19  C   UNL     1     -11.073  10.573  68.333  1.00  0.00    -0.281 C  
HETATM   20  C   UNL     1     -10.868  10.446  69.814  1.00  0.00    -0.342 C  
HETATM   21  C   UNL     1     -11.960  11.326  69.289  1.00  0.00    -0.411 C  
ENDBRANCH  10  19
TORSDOF 1
ENDMDL
MODEL       57
REMARK 921   NORMALIZED FREE ENERGY PREDICTED BY IDOCK:   -4.73 KCAL/MOL
REMARK 922        TOTAL FREE ENERGY PREDICTED BY IDOCK:   -5.31 KCAL/MOL
REMARK 923 INTER-LIGAND FREE ENERGY PREDICTED BY IDOCK:   -5.01 KCAL/MOL
REMARK 924 INTRA-LIGAND FREE ENERGY PREDICTED BY IDOCK:   -0.30 KCAL/MOL
REMARK 927      BINDING AFFINITY PREDICTED BY RF-SCORE:    0.00 PKD
ROOT
HETATM    1  C   UNL     1     -11.964  15.958  68.853  1.00  0.00    -0.202 C  
HETATM    2  C   UNL     1     -10.704  15.374  68.295  1.00  0.00    -0.260 A  
HETATM    3  C   UNL     1      -9.571  16.157  68.072  1.00  0.00    -0.220 A  
HETATM    4  N   UNL     1      -9.268  17.143  69.059  1.00  0.00    -0.194 N  
HETATM    5  C   UNL     1      -9.176  18.452  68.645  1.00  0.00    -0.306 C  
HETATM    6  H   UNL     1      -9.125  16.887  70.035  1.00  0.00     0.000 HD 
HETATM    7  C   UNL     1      -8.117  18.825  67.688  1.00  0.00    -0.270 A  
HETATM    8  O   UNL     1      -9.928  19.315  69.079  1.00  0.00    -0.424 OA 
HETATM    9  C   UNL     1      -7.709  18.003  66.640  1.00  0.00    -0.238 A  
HETATM   10  N   UNL     1      -7.533  16.591  66.789  1.00  0.00    -0.223 NA 
HETATM   11  N   UNL     1      -7.213  18.572  65.506  1.00  0.00    -0.532 NA 
HETATM   12  C   UNL     1      -8.519  15.683  67.278  1.00  0.00    -0.191 A  
HETATM   13  C   UNL     1      -6.998  19.907  65.481  1.00  0.00    -0.309 A  
HETATM   14  C   UNL     1     -10.616  14.027  67.974  1.00  0.00    -0.250 A  
HETATM   15  C   UNL     1      -9.456  13.565  67.377  1.00  0.00    -0.225 A  
HETATM   16  C   UNL     1      -7.113  20.714  66.592  1.00  0.00    -0.299 A  
HETATM   17  N   UNL     1      -8.441  14.366  66.988  1.00  0.00    -0.206 NA 
HETATM   18  C   UNL     1      -7.693  20.160  67.719  1.00  0.00    -0.321 A  
ENDROOT
BRANCH  10  19
HETATM   19  C   UNL     1      -6.133  16.221  67.151  1.00  0.00    -0.113 C  
HETATM   20  C   UNL     1      -5.154  17.175  67.770  1.00  0.00    -0.120 C  
HETATM   21  C   UNL     1      -5.694  16.038  68.580  1.00  0.00    -0.105 C  
ENDBRANCH  10  19
TORSDOF 1
ENDMDL
MODEL       58
REMARK 921   NORMALIZED FREE ENERGY PREDICTED BY IDOCK:   -4.67 KCAL/MOL
REMARK 922        TOTAL FREE ENERGY PREDICTED BY IDOCK:   -5.24 KCAL/MOL
REMARK 923 INTER-LIGAND FREE ENERGY PREDICTED BY IDOCK:   -5.30 KCAL/MOL
REMARK 924 INTRA-LIGAND FREE ENERGY PREDICTED BY IDOCK:    0.06 KCAL/MOL
REMARK 927      BINDING AFFINITY PREDICTED BY RF-SCORE:    0.00 PKD
ROOT
HETATM    1  C   UNL     1     -11.311   6.937  71.838  1.00  0.00    -0.297 C  
HETATM    2  C   UNL     1     -11.827   8.300  71.493  1.00  0.00    -0.335 A  
HETATM    3  C   UNL     1     -11.361   8.997  70.378  1.00  0.00    -0.210 A  
HETATM    4  N   UNL     1     -11.134   8.235  69.192  1.00  0.00    -0.420 N  
HETATM    5  C   UNL     1      -9.872   8.267  68.645  1.00  0.00    -0.176 C  
HETATM    6  H   UNL     1     -11.881   7.687  68.766  1.00  0.00     0.000 HD 
HETATM    7  C   UNL     1      -9.347   9.549  68.136  1.00  0.00    -0.141 A  
HETATM    8  O   UNL     1      -9.194   7.253  68.539  1.00  0.00    -0.139 OA 
HETATM    9  C   UNL     1      -9.590  10.773  68.754  1.00  0.00    -0.189 A  
HETATM   10  N   UNL     1     -10.869  11.132  69.287  1.00  0.00    -0.233 NA 
HETATM   11  N   UNL     1      -8.669  11.771  68.633  1.00  0.00    -0.109 NA 
HETATM   12  C   UNL     1     -11.612  10.367  70.235  1.00  0.00    -0.327 A  
HETATM   13  C   UNL     1      -7.617  11.595  67.803  1.00  0.00    -0.121 A  
HETATM   14  C   UNL     1     -12.789   8.923  72.273  1.00  0.00    -0.475 A  
HETATM   15  C   UNL     1     -13.159  10.219  71.954  1.00  0.00    -0.463 A  
HETATM   16  C   UNL     1      -7.494  10.518  66.952  1.00  0.00    -0.110 A  
HETATM   17  N   UNL     1     -12.564  10.955  70.993  1.00  0.00    -0.385 NA 
HETATM   18  C   UNL     1      -8.377   9.468  67.129  1.00  0.00    -0.131 A  
ENDROOT
BRANCH  10  19
HETATM   19  C   UNL     1     -11.715  11.866  68.301  1.00  0.00    -0.321 C  
HETATM   20  C   UNL     1     -11.747  13.362  68.182  1.00  0.00    -0.397 C  
HETATM   21  C   UNL     1     -11.133  12.543  67.088  1.00  0.00    -0.321 C  
ENDBRANCH  10  19
TORSDOF 1
ENDMDL
MODEL       59
REMARK 921   NORMALIZED FREE ENERGY PREDICTED BY IDOCK:   -4.66 KCAL/MOL
REMARK 922        TOTAL FREE ENERGY PREDICTED BY IDOCK:   -5.23 KCAL/MOL
REMARK 923 INTER-LIGAND FREE ENERGY PREDICTED BY IDOCK:   -5.31 KCAL/MOL
REMARK 924 INTRA-LIGAND FREE ENERGY PREDICTED BY IDOCK:    0.07 KCAL/MOL
REMARK 927      BINDING AFFINITY PREDICTED BY RF-SCORE:    0.00 PKD
ROOT
HETATM    1  C   UNL     1      -8.822  18.835  67.304  1.00  0.00    -0.287 C  
HETATM    2  C   UNL     1      -8.190  17.602  67.873  1.00  0.00    -0.234 A  
HETATM    3  C   UNL     1      -8.529  16.329  67.415  1.00  0.00    -0.172 A  
HETATM    4  N   UNL     1      -8.726  16.184  66.008  1.00  0.00    -0.315 N  
HETATM    5  C   UNL     1      -9.942  15.703  65.581  1.00  0.00    -0.354 C  
HETATM    6  H   UNL     1      -7.992  16.428  65.344  1.00  0.00     0.000 HD 
HETATM    7  C   UNL     1     -10.340  14.333  65.958  1.00  0.00    -0.318 A  
HETATM    8  O   UNL     1     -10.680  16.370  64.867  1.00  0.00    -0.675 OA 
HETATM    9  C   UNL     1     -10.056  13.770  67.200  1.00  0.00    -0.241 A  
HETATM   10  N   UNL     1      -8.795  13.936  67.856  1.00  0.00    -0.174 NA 
HETATM   11  N   UNL     1     -10.894  12.822  67.705  1.00  0.00    -0.220 NA 
HETATM   12  C   UNL     1      -8.174  15.188  68.145  1.00  0.00    -0.145 A  
HETATM   13  C   UNL     1     -11.897  12.352  66.929  1.00  0.00    -0.307 A  
HETATM   14  C   UNL     1      -7.242  17.681  68.882  1.00  0.00    -0.256 A  
HETATM   15  C   UNL     1      -6.762  16.503  69.430  1.00  0.00    -0.213 A  
HETATM   16  C   UNL     1     -12.036  12.668  65.595  1.00  0.00    -0.507 A  
HETATM   17  N   UNL     1      -7.238  15.279  69.115  1.00  0.00    -0.153 NA 
HETATM   18  C   UNL     1     -11.242  13.689  65.102  1.00  0.00    -0.318 A  
ENDROOT
BRANCH  10  19
HETATM   19  C   UNL     1      -7.833  12.840  67.537  1.00  0.00    -0.171 C  
HETATM   20  C   UNL     1      -7.378  11.816  68.535  1.00  0.00    -0.103 C  
HETATM   21  C   UNL     1      -8.267  11.403  67.404  1.00  0.00    -0.145 C  
ENDBRANCH  10  19
TORSDOF 1
ENDMDL
MODEL       60
REMARK 921   NORMALIZED FREE ENERGY PREDICTED BY IDOCK:   -4.65 KCAL/MOL
REMARK 922        TOTAL FREE ENERGY PREDICTED BY IDOCK:   -5.22 KCAL/MOL
REMARK 923 INTER-LIGAND FREE ENERGY PREDICTED BY IDOCK:   -5.26 KCAL/MOL
REMARK 924 INTRA-LIGAND FREE ENERGY PREDICTED BY IDOCK:    0.05 KCAL/MOL
REMARK 927      BINDING AFFINITY PREDICTED BY RF-SCORE:    0.00 PKD
ROOT
HETATM    1  C   UNL     1     -11.995  14.340  65.210  1.00  0.00    -0.389 C  
HETATM    2  C   UNL     1     -10.913  14.017  66.194  1.00  0.00    -0.295 A  
HETATM    3  C   UNL     1     -10.031  14.995  66.657  1.00  0.00    -0.256 A  
HETATM    4  N   UNL     1     -10.584  16.283  66.927  1.00  0.00    -0.299 N  
HETATM    5  C   UNL     1     -10.045  17.360  66.263  1.00  0.00    -0.322 C  
HETATM    6  H   UNL     1     -11.350  16.400  67.590  1.00  0.00     0.000 HD 
HETATM    7  C   UNL     1      -8.635  17.717  66.507  1.00  0.00    -0.287 A  
HETATM    8  O   UNL     1     -10.718  18.047  65.506  1.00  0.00    -0.597 OA 
HETATM    9  C   UNL     1      -7.629  16.772  66.699  1.00  0.00    -0.276 A  
HETATM   10  N   UNL     1      -7.813  15.598  67.497  1.00  0.00    -0.147 NA 
HETATM   11  N   UNL     1      -6.352  17.079  66.338  1.00  0.00    -0.242 NA 
HETATM   12  C   UNL     1      -8.853  14.636  67.324  1.00  0.00    -0.207 A  
HETATM   13  C   UNL     1      -6.070  18.339  65.935  1.00  0.00    -0.224 A  
HETATM   14  C   UNL     1     -10.746  12.731  66.683  1.00  0.00    -0.279 A  
HETATM   15  C   UNL     1      -9.672  12.477  67.520  1.00  0.00    -0.196 A  
HETATM   16  C   UNL     1      -6.971  19.379  66.009  1.00  0.00    -0.283 A  
HETATM   17  N   UNL     1      -8.713  13.382  67.807  1.00  0.00    -0.183 NA 
HETATM   18  C   UNL     1      -8.286  19.057  66.295  1.00  0.00    -0.294 A  
ENDROOT
BRANCH  10  19
HETATM   19  C   UNL     1      -7.402  15.799  68.918  1.00  0.00    -0.162 C  
HETATM   20  C   UNL     1      -6.133  15.254  69.503  1.00  0.00    -0.125 C  
HETATM   21  C   UNL     1      -6.284  16.731  69.308  1.00  0.00    -0.201 C  
ENDBRANCH  10  19
TORSDOF 1
ENDMDL
MODEL       61
REMARK 921   NORMALIZED FREE ENERGY PREDICTED BY IDOCK:   -4.64 KCAL/MOL
REMARK 922        TOTAL FREE ENERGY PREDICTED BY IDOCK:   -5.21 KCAL/MOL
REMARK 923 INTER-LIGAND FREE ENERGY PREDICTED BY IDOCK:   -4.94 KCAL/MOL
REMARK 924 INTRA-LIGAND FREE ENERGY PREDICTED BY IDOCK:   -0.27 KCAL/MOL
REMARK 927      BINDING AFFINITY PREDICTED BY RF-SCORE:    0.00 PKD
ROOT
HETATM    1  C   UNL     1      -5.945   9.042  72.309  1.00  0.00    -0.042 C  
HETATM    2  C   UNL     1      -7.134   8.323  72.868  1.00  0.00    -0.129 A  
HETATM    3  C   UNL     1      -8.383   8.385  72.248  1.00  0.00    -0.155 A  
HETATM    4  N   UNL     1      -8.396   8.335  70.821  1.00  0.00    -0.117 N  
HETATM    5  C   UNL     1      -8.990   9.380  70.152  1.00  0.00    -0.227 C  
HETATM    6  H   UNL     1      -7.979   7.553  70.316  1.00  0.00     0.000 HD 
HETATM    7  C   UNL     1     -10.434   9.615  70.335  1.00  0.00    -0.352 A  
HETATM    8  O   UNL     1      -8.355  10.091  69.384  1.00  0.00    -0.137 OA 
HETATM    9  C   UNL     1     -11.089   9.445  71.553  1.00  0.00    -0.376 A  
HETATM   10  N   UNL     1     -10.823   8.343  72.427  1.00  0.00    -0.352 NA 
HETATM   11  N   UNL     1     -12.194  10.195  71.822  1.00  0.00    -0.330 NA 
HETATM   12  C   UNL     1      -9.538   7.976  72.926  1.00  0.00    -0.279 A  
HETATM   13  C   UNL     1     -12.708  10.979  70.848  1.00  0.00    -0.358 A  
HETATM   14  C   UNL     1      -7.039   7.569  74.027  1.00  0.00    -0.112 A  
HETATM   15  C   UNL     1      -8.193   7.003  74.543  1.00  0.00    -0.164 A  
HETATM   16  C   UNL     1     -12.267  10.955  69.543  1.00  0.00    -0.331 A  
HETATM   17  N   UNL     1      -9.427   7.229  74.046  1.00  0.00    -0.264 NA 
HETATM   18  C   UNL     1     -11.098  10.262  69.284  1.00  0.00    -0.293 A  
ENDROOT
BRANCH  10  19
HETATM   19  C   UNL     1     -11.734   7.185  72.183  1.00  0.00    -0.284 C  
HETATM   20  C   UNL     1     -12.209   6.772  70.821  1.00  0.00    -0.353 C  
HETATM   21  C   UNL     1     -11.251   5.897  71.569  1.00  0.00    -0.290 C  
ENDBRANCH  10  19
TORSDOF 1
ENDMDL
MODEL       62
REMARK 921   NORMALIZED FREE ENERGY PREDICTED BY IDOCK:   -4.61 KCAL/MOL
REMARK 922        TOTAL FREE ENERGY PREDICTED BY IDOCK:   -5.17 KCAL/MOL
REMARK 923 INTER-LIGAND FREE ENERGY PREDICTED BY IDOCK:   -4.88 KCAL/MOL
REMARK 924 INTRA-LIGAND FREE ENERGY PREDICTED BY IDOCK:   -0.30 KCAL/MOL
REMARK 927      BINDING AFFINITY PREDICTED BY RF-SCORE:    0.00 PKD
ROOT
HETATM    1  C   UNL     1      -8.045   7.848  67.349  1.00  0.00    -0.123 C  
HETATM    2  C   UNL     1      -7.797   8.274  68.763  1.00  0.00    -0.115 A  
HETATM    3  C   UNL     1      -8.736   8.048  69.770  1.00  0.00    -0.136 A  
HETATM    4  N   UNL     1      -9.421   6.795  69.740  1.00  0.00    -0.145 N  
HETATM    5  C   UNL     1     -10.795   6.822  69.677  1.00  0.00    -0.271 C  
HETATM    6  H   UNL     1      -8.911   5.913  69.765  1.00  0.00     0.000 HD 
HETATM    7  C   UNL     1     -11.550   7.411  70.800  1.00  0.00    -0.317 A  
HETATM    8  O   UNL     1     -11.402   6.337  68.731  1.00  0.00    -0.356 OA 
HETATM    9  C   UNL     1     -11.120   8.534  71.504  1.00  0.00    -0.275 A  
HETATM   10  N   UNL     1      -9.755   8.731  71.887  1.00  0.00    -0.309 NA 
HETATM   11  N   UNL     1     -12.047   9.353  72.075  1.00  0.00    -0.345 NA 
HETATM   12  C   UNL     1      -8.637   8.709  71.001  1.00  0.00    -0.173 A  
HETATM   13  C   UNL     1     -13.347   8.980  72.064  1.00  0.00    -0.438 A  
HETATM   14  C   UNL     1      -6.621   8.914  69.126  1.00  0.00    -0.047 A  
HETATM   15  C   UNL     1      -6.490   9.364  70.429  1.00  0.00    -0.071 A  
HETATM   16  C   UNL     1     -13.778   7.743  71.638  1.00  0.00    -0.434 A  
HETATM   17  N   UNL     1      -7.480   9.314  71.345  1.00  0.00    -0.336 NA 
HETATM   18  C   UNL     1     -12.858   6.944  70.984  1.00  0.00    -0.220 A  
ENDROOT
BRANCH  10  19
HETATM   19  C   UNL     1      -9.460   8.204  73.252  1.00  0.00    -0.220 C  
HETATM   20  C   UNL     1     -10.169   7.030  73.862  1.00  0.00    -0.388 C  
HETATM   21  C   UNL     1      -8.729   6.906  73.472  1.00  0.00    -0.156 C  
ENDBRANCH  10  19
TORSDOF 1
ENDMDL
MODEL       63
REMARK 921   NORMALIZED FREE ENERGY PREDICTED BY IDOCK:   -4.59 KCAL/MOL
REMARK 922        TOTAL FREE ENERGY PREDICTED BY IDOCK:   -5.16 KCAL/MOL
REMARK 923 INTER-LIGAND FREE ENERGY PREDICTED BY IDOCK:   -5.21 KCAL/MOL
REMARK 924 INTRA-LIGAND FREE ENERGY PREDICTED BY IDOCK:    0.05 KCAL/MOL
REMARK 927      BINDING AFFINITY PREDICTED BY RF-SCORE:    0.00 PKD
ROOT
HETATM    1  C   UNL     1      -9.462  10.317  64.208  1.00  0.00    -0.365 C  
HETATM    2  C   UNL     1     -10.185  10.755  65.444  1.00  0.00    -0.341 A  
HETATM    3  C   UNL     1     -10.030  10.083  66.657  1.00  0.00    -0.216 A  
HETATM    4  N   UNL     1      -8.712   9.638  66.982  1.00  0.00    -0.128 N  
HETATM    5  C   UNL     1      -8.535   8.295  67.222  1.00  0.00    -0.124 C  
HETATM    6  H   UNL     1      -7.931  10.291  67.033  1.00  0.00     0.000 HD 
HETATM    7  C   UNL     1      -9.220   7.680  68.375  1.00  0.00    -0.140 A  
HETATM    8  O   UNL     1      -7.796   7.612  66.525  1.00  0.00    -0.100 OA 
HETATM    9  C   UNL     1     -10.506   8.032  68.777  1.00  0.00    -0.173 A  
HETATM   10  N   UNL     1     -10.962   9.388  68.810  1.00  0.00    -0.107 NA 
HETATM   11  N   UNL     1     -11.283   7.103  69.401  1.00  0.00    -0.106 NA 
HETATM   12  C   UNL     1     -10.924  10.300  67.713  1.00  0.00    -0.300 A  
HETATM   13  C   UNL     1     -10.739   5.912  69.739  1.00  0.00    -0.340 A  
HETATM   14  C   UNL     1     -11.040  11.846  65.429  1.00  0.00    -0.360 A  
HETATM   15  C   UNL     1     -11.748  12.146  66.580  1.00  0.00    -0.321 A  
HETATM   16  C   UNL     1      -9.395   5.633  69.623  1.00  0.00    -0.171 A  
HETATM   17  N   UNL     1     -11.740  11.376  67.689  1.00  0.00    -0.594 NA 
HETATM   18  C   UNL     1      -8.619   6.536  68.918  1.00  0.00    -0.125 A  
ENDROOT
BRANCH  10  19
HETATM   19  C   UNL     1     -10.756  10.031  70.142  1.00  0.00    -0.307 C  
HETATM   20  C   UNL     1     -11.859  10.272  71.130  1.00  0.00    -0.455 C  
HETATM   21  C   UNL     1     -10.807   9.249  71.429  1.00  0.00    -0.434 C  
ENDBRANCH  10  19
TORSDOF 1
ENDMDL
MODEL       64
REMARK 921   NORMALIZED FREE ENERGY PREDICTED BY IDOCK:   -4.58 KCAL/MOL
REMARK 922        TOTAL FREE ENERGY PREDICTED BY IDOCK:   -5.14 KCAL/MOL
REMARK 923 INTER-LIGAND FREE ENERGY PREDICTED BY IDOCK:   -5.67 KCAL/MOL
REMARK 924 INTRA-LIGAND FREE ENERGY PREDICTED BY IDOCK:    0.52 KCAL/MOL
REMARK 927      BINDING AFFINITY PREDICTED BY RF-SCORE:    0.00 PKD
ROOT
HETATM    1  C   UNL     1      -7.817   6.777  70.958  1.00  0.00    -0.101 C  
HETATM    2  C   UNL     1      -9.097   7.101  71.666  1.00  0.00    -0.141 A  
HETATM    3  C   UNL     1     -10.071   7.910  71.080  1.00  0.00    -0.192 A  
HETATM    4  N   UNL     1     -10.307   7.723  69.684  1.00  0.00    -0.208 N  
HETATM    5  C   UNL     1     -10.159   8.815  68.861  1.00  0.00    -0.198 C  
HETATM    6  H   UNL     1     -10.576   6.813  69.311  1.00  0.00     0.000 HD 
HETATM    7  C   UNL     1     -11.057   9.971  69.040  1.00  0.00    -0.221 A  
HETATM    8  O   UNL     1      -9.325   8.832  67.964  1.00  0.00    -0.141 OA 
HETATM    9  C   UNL     1     -11.490  10.417  70.287  1.00  0.00    -0.325 A  
HETATM   10  N   UNL     1     -11.893   9.524  71.330  1.00  0.00    -0.361 NA 
HETATM   11  N   UNL     1     -11.788  11.736  70.452  1.00  0.00    -0.325 NA 
HETATM   12  C   UNL     1     -11.107   8.453  71.850  1.00  0.00    -0.308 A  
HETATM   13  C   UNL     1     -11.791  12.549  69.372  1.00  0.00    -0.308 A  
HETATM   14  C   UNL     1      -9.361   6.609  72.935  1.00  0.00    -0.147 A  
HETATM   15  C   UNL     1     -10.520   7.019  73.573  1.00  0.00    -0.375 A  
HETATM   16  C   UNL     1     -11.655  12.092  68.079  1.00  0.00    -0.407 A  
HETATM   17  N   UNL     1     -11.360   7.952  73.079  1.00  0.00    -0.352 NA 
HETATM   18  C   UNL     1     -11.272  10.773  67.911  1.00  0.00    -0.386 A  
ENDROOT
BRANCH  10  19
HETATM   19  C   UNL     1     -13.361   9.250  71.316  1.00  0.00    -0.258 C  
HETATM   20  C   UNL     1     -13.959   7.905  71.602  1.00  0.00    -0.482 C  
HETATM   21  C   UNL     1     -14.149   9.023  72.579  1.00  0.00    -0.428 C  
ENDBRANCH  10  19
TORSDOF 1
ENDMDL
MODEL       65
REMARK 921   NORMALIZED FREE ENERGY PREDICTED BY IDOCK:   -4.57 KCAL/MOL
REMARK 922        TOTAL FREE ENERGY PREDICTED BY IDOCK:   -5.14 KCAL/MOL
REMARK 923 INTER-LIGAND FREE ENERGY PREDICTED BY IDOCK:   -5.04 KCAL/MOL
REMARK 924 INTRA-LIGAND FREE ENERGY PREDICTED BY IDOCK:   -0.09 KCAL/MOL
REMARK 927      BINDING AFFINITY PREDICTED BY RF-SCORE:    0.00 PKD
ROOT
HETATM    1  C   UNL     1     -13.269  10.362  71.199  1.00  0.00    -0.399 C  
HETATM    2  C   UNL     1     -11.964   9.645  71.036  1.00  0.00    -0.427 A  
HETATM    3  C   UNL     1     -11.107   9.921  69.970  1.00  0.00    -0.285 A  
HETATM    4  N   UNL     1     -10.974  11.291  69.590  1.00  0.00    -0.423 N  
HETATM    5  C   UNL     1     -11.274  11.625  68.290  1.00  0.00    -0.260 C  
HETATM    6  H   UNL     1     -10.667  11.997  70.259  1.00  0.00     0.000 HD 
HETATM    7  C   UNL     1     -10.455  11.058  67.201  1.00  0.00    -0.274 A  
HETATM    8  O   UNL     1     -12.177  12.406  68.021  1.00  0.00    -0.356 OA 
HETATM    9  C   UNL     1      -9.956   9.757  67.217  1.00  0.00    -0.191 A  
HETATM   10  N   UNL     1      -9.400   9.157  68.391  1.00  0.00    -0.135 NA 
HETATM   11  N   UNL     1      -9.749   9.112  66.035  1.00  0.00    -0.282 NA 
HETATM   12  C   UNL     1     -10.056   9.051  69.654  1.00  0.00    -0.197 A  
HETATM   13  C   UNL     1      -9.897   9.797  64.879  1.00  0.00    -0.113 A  
HETATM   14  C   UNL     1     -11.559   8.676  71.940  1.00  0.00    -0.420 A  
HETATM   15  C   UNL     1     -10.386   7.985  71.685  1.00  0.00    -0.214 A  
HETATM   16  C   UNL     1     -10.104  11.158  64.825  1.00  0.00    -0.351 A  
HETATM   17  N   UNL     1      -9.664   8.122  70.553  1.00  0.00    -0.173 NA 
HETATM   18  C   UNL     1     -10.397  11.801  66.015  1.00  0.00    -0.276 A  
ENDROOT
BRANCH  10  19
HETATM   19  C   UNL     1      -7.923   9.344  68.487  1.00  0.00    -0.093 C  
HETATM   20  C   UNL     1      -7.068   9.816  67.348  1.00  0.00    -0.085 C  
HETATM   21  C   UNL     1      -7.286  10.709  68.530  1.00  0.00    -0.090 C  
ENDBRANCH  10  19
TORSDOF 1
ENDMDL
MODEL       66
REMARK 921   NORMALIZED FREE ENERGY PREDICTED BY IDOCK:   -4.57 KCAL/MOL
REMARK 922        TOTAL FREE ENERGY PREDICTED BY IDOCK:   -5.13 KCAL/MOL
REMARK 923 INTER-LIGAND FREE ENERGY PREDICTED BY IDOCK:   -5.19 KCAL/MOL
REMARK 924 INTRA-LIGAND FREE ENERGY PREDICTED BY IDOCK:    0.06 KCAL/MOL
REMARK 927      BINDING AFFINITY PREDICTED BY RF-SCORE:    0.00 PKD
ROOT
HETATM    1  C   UNL     1      -8.492  12.016  67.295  1.00  0.00    -0.175 C  
HETATM    2  C   UNL     1      -9.684  11.907  68.194  1.00  0.00    -0.194 A  
HETATM    3  C   UNL     1      -9.848  10.826  69.062  1.00  0.00    -0.194 A  
HETATM    4  N   UNL     1      -8.677  10.353  69.728  1.00  0.00    -0.385 N  
HETATM    5  C   UNL     1      -8.336   9.032  69.555  1.00  0.00    -0.117 C  
HETATM    6  H   UNL     1      -8.115  10.972  70.311  1.00  0.00     0.000 HD 
HETATM    7  C   UNL     1      -9.254   7.987  70.046  1.00  0.00    -0.156 A  
HETATM    8  O   UNL     1      -7.274   8.708  69.038  1.00  0.00    -0.070 OA 
HETATM    9  C   UNL     1     -10.641   8.094  69.977  1.00  0.00    -0.239 A  
HETATM   10  N   UNL     1     -11.339   9.309  70.272  1.00  0.00    -0.235 NA 
HETATM   11  N   UNL     1     -11.390   6.961  69.875  1.00  0.00    -0.289 NA 
HETATM   12  C   UNL     1     -11.088  10.575  69.663  1.00  0.00    -0.283 A  
HETATM   13  C   UNL     1     -10.779   5.759  69.986  1.00  0.00    -0.330 A  
HETATM   14  C   UNL     1     -10.675  12.877  68.196  1.00  0.00    -0.258 A  
HETATM   15  C   UNL     1     -11.796  12.674  68.982  1.00  0.00    -0.294 A  
HETATM   16  C   UNL     1      -9.457   5.611  70.346  1.00  0.00    -0.206 A  
HETATM   17  N   UNL     1     -12.037  11.537  69.669  1.00  0.00    -0.310 NA 
HETATM   18  C   UNL     1      -8.676   6.752  70.369  1.00  0.00    -0.151 A  
ENDROOT
BRANCH  10  19
HETATM   19  C   UNL     1     -11.760   9.395  71.701  1.00  0.00    -0.398 C  
HETATM   20  C   UNL     1     -13.118   8.989  72.195  1.00  0.00    -0.496 C  
HETATM   21  C   UNL     1     -11.919   8.173  72.568  1.00  0.00    -0.410 C  
ENDBRANCH  10  19
TORSDOF 1
ENDMDL
MODEL       67
REMARK 921   NORMALIZED FREE ENERGY PREDICTED BY IDOCK:   -4.56 KCAL/MOL
REMARK 922        TOTAL FREE ENERGY PREDICTED BY IDOCK:   -5.12 KCAL/MOL
REMARK 923 INTER-LIGAND FREE ENERGY PREDICTED BY IDOCK:   -5.17 KCAL/MOL
REMARK 924 INTRA-LIGAND FREE ENERGY PREDICTED BY IDOCK:    0.05 KCAL/MOL
REMARK 927      BINDING AFFINITY PREDICTED BY RF-SCORE:    0.00 PKD
ROOT
HETATM    1  C   UNL     1      -7.229  15.083  69.406  1.00  0.00    -0.194 C  
HETATM    2  C   UNL     1      -7.328  13.738  68.753  1.00  0.00    -0.103 A  
HETATM    3  C   UNL     1      -8.115  13.532  67.620  1.00  0.00    -0.180 A  
HETATM    4  N   UNL     1      -8.106  14.565  66.634  1.00  0.00    -0.300 N  
HETATM    5  C   UNL     1      -9.313  15.131  66.293  1.00  0.00    -0.313 C  
HETATM    6  H   UNL     1      -7.237  14.873  66.199  1.00  0.00     0.000 HD 
HETATM    7  C   UNL     1     -10.342  14.287  65.656  1.00  0.00    -0.352 A  
HETATM    8  O   UNL     1      -9.535  16.321  66.471  1.00  0.00    -0.232 OA 
HETATM    9  C   UNL     1     -10.564  12.957  66.007  1.00  0.00    -0.270 A  
HETATM   10  N   UNL     1      -9.498  12.036  66.264  1.00  0.00    -0.227 NA 
HETATM   11  N   UNL     1     -11.812  12.431  65.859  1.00  0.00    -0.511 NA 
HETATM   12  C   UNL     1      -8.443  12.236  67.204  1.00  0.00    -0.184 A  
HETATM   13  C   UNL     1     -12.766  13.168  65.245  1.00  0.00    -0.394 A  
HETATM   14  C   UNL     1      -6.639  12.644  69.253  1.00  0.00    -0.092 A  
HETATM   15  C   UNL     1      -6.842  11.409  68.661  1.00  0.00    -0.078 A  
HETATM   16  C   UNL     1     -12.511  14.371  64.624  1.00  0.00    -0.364 A  
HETATM   17  N   UNL     1      -7.752  11.182  67.690  1.00  0.00    -0.110 NA 
HETATM   18  C   UNL     1     -11.272  14.946  64.842  1.00  0.00    -0.415 A  
ENDROOT
BRANCH  10  19
HETATM   19  C   UNL     1      -9.092  11.275  65.046  1.00  0.00    -0.070 C  
HETATM   20  C   UNL     1      -9.483   9.850  64.785  1.00  0.00    -0.356 C  
HETATM   21  C   UNL     1     -10.062  10.945  63.943  1.00  0.00    -0.422 C  
ENDBRANCH  10  19
TORSDOF 1
ENDMDL
MODEL       68
REMARK 921   NORMALIZED FREE ENERGY PREDICTED BY IDOCK:   -4.55 KCAL/MOL
REMARK 922        TOTAL FREE ENERGY PREDICTED BY IDOCK:   -5.12 KCAL/MOL
REMARK 923 INTER-LIGAND FREE ENERGY PREDICTED BY IDOCK:   -4.83 KCAL/MOL
REMARK 924 INTRA-LIGAND FREE ENERGY PREDICTED BY IDOCK:   -0.28 KCAL/MOL
REMARK 927      BINDING AFFINITY PREDICTED BY RF-SCORE:    0.00 PKD
ROOT
HETATM    1  C   UNL     1     -13.458   9.167  72.009  1.00  0.00    -0.510 C  
HETATM    2  C   UNL     1     -12.424   8.308  71.350  1.00  0.00    -0.315 A  
HETATM    3  C   UNL     1     -11.526   8.831  70.418  1.00  0.00    -0.144 A  
HETATM    4  N   UNL     1     -10.996  10.127  70.694  1.00  0.00    -0.343 N  
HETATM    5  C   UNL     1     -11.188  11.108  69.749  1.00  0.00    -0.245 C  
HETATM    6  H   UNL     1     -10.493  10.319  71.560  1.00  0.00     0.000 HD 
HETATM    7  C   UNL     1     -10.576  10.946  68.416  1.00  0.00    -0.225 A  
HETATM    8  O   UNL     1     -11.821  12.125  70.002  1.00  0.00    -0.328 OA 
HETATM    9  C   UNL     1     -10.483   9.719  67.763  1.00  0.00    -0.246 A  
HETATM   10  N   UNL     1     -10.126   8.508  68.437  1.00  0.00    -0.189 NA 
HETATM   11  N   UNL     1     -10.478   9.692  66.401  1.00  0.00    -0.164 NA 
HETATM   12  C   UNL     1     -10.780   7.982  69.591  1.00  0.00    -0.207 A  
HETATM   13  C   UNL     1     -10.421  10.860  65.722  1.00  0.00    -0.210 A  
HETATM   14  C   UNL     1     -12.320   6.956  71.641  1.00  0.00    -0.413 A  
HETATM   15  C   UNL     1     -11.404   6.197  70.932  1.00  0.00    -0.287 A  
HETATM   16  C   UNL     1     -10.218  12.080  66.328  1.00  0.00    -0.251 A  
HETATM   17  N   UNL     1     -10.677   6.670  69.897  1.00  0.00    -0.230 NA 
HETATM   18  C   UNL     1     -10.305  12.123  67.708  1.00  0.00    -0.217 A  
ENDROOT
BRANCH  10  19
HETATM   19  C   UNL     1      -8.658   8.239  68.394  1.00  0.00    -0.133 C  
HETATM   20  C   UNL     1      -7.635   9.262  67.999  1.00  0.00    -0.084 C  
HETATM   21  C   UNL     1      -7.708   8.796  69.421  1.00  0.00    -0.093 C  
ENDBRANCH  10  19
TORSDOF 1
ENDMDL
MODEL       69
REMARK 921   NORMALIZED FREE ENERGY PREDICTED BY IDOCK:   -4.54 KCAL/MOL
REMARK 922        TOTAL FREE ENERGY PREDICTED BY IDOCK:   -5.11 KCAL/MOL
REMARK 923 INTER-LIGAND FREE ENERGY PREDICTED BY IDOCK:   -4.90 KCAL/MOL
REMARK 924 INTRA-LIGAND FREE ENERGY PREDICTED BY IDOCK:   -0.21 KCAL/MOL
REMARK 927      BINDING AFFINITY PREDICTED BY RF-SCORE:    0.00 PKD
ROOT
HETATM    1  C   UNL     1     -11.034  15.494  64.852  1.00  0.00    -0.452 C  
HETATM    2  C   UNL     1     -11.157  14.015  64.652  1.00  0.00    -0.387 A  
HETATM    3  C   UNL     1     -10.506  13.108  65.489  1.00  0.00    -0.288 A  
HETATM    4  N   UNL     1     -10.481  13.422  66.881  1.00  0.00    -0.271 N  
HETATM    5  C   UNL     1      -9.252  13.521  67.490  1.00  0.00    -0.219 C  
HETATM    6  H   UNL     1     -11.343  13.568  67.406  1.00  0.00     0.000 HD 
HETATM    7  C   UNL     1      -8.393  12.323  67.563  1.00  0.00    -0.170 A  
HETATM    8  O   UNL     1      -8.873  14.566  68.004  1.00  0.00    -0.163 OA 
HETATM    9  C   UNL     1      -8.301  11.386  66.536  1.00  0.00    -0.164 A  
HETATM   10  N   UNL     1      -9.441  10.927  65.802  1.00  0.00    -0.201 NA 
HETATM   11  N   UNL     1      -7.143  10.685  66.381  1.00  0.00    -0.127 NA 
HETATM   12  C   UNL     1     -10.374  11.763  65.120  1.00  0.00    -0.279 A  
HETATM   13  C   UNL     1      -6.168  10.814  67.309  1.00  0.00    -0.061 A  
HETATM   14  C   UNL     1     -11.923  13.490  63.623  1.00  0.00    -0.439 A  
HETATM   15  C   UNL     1     -11.924  12.119  63.434  1.00  0.00    -0.481 A  
HETATM   16  C   UNL     1      -6.332  11.504  68.490  1.00  0.00    -0.052 A  
HETATM   17  N   UNL     1     -11.139  11.265  64.125  1.00  0.00    -0.316 NA 
HETATM   18  C   UNL     1      -7.469  12.282  68.615  1.00  0.00    -0.100 A  
ENDROOT
BRANCH  10  19
HETATM   19  C   UNL     1     -10.045   9.696  66.391  1.00  0.00    -0.247 C  
HETATM   20  C   UNL     1      -9.542   9.038  67.642  1.00  0.00    -0.183 C  
HETATM   21  C   UNL     1     -10.872   9.727  67.649  1.00  0.00    -0.301 C  
ENDBRANCH  10  19
TORSDOF 1
ENDMDL
MODEL       70
REMARK 921   NORMALIZED FREE ENERGY PREDICTED BY IDOCK:   -4.49 KCAL/MOL
REMARK 922        TOTAL FREE ENERGY PREDICTED BY IDOCK:   -5.05 KCAL/MOL
REMARK 923 INTER-LIGAND FREE ENERGY PREDICTED BY IDOCK:   -4.75 KCAL/MOL
REMARK 924 INTRA-LIGAND FREE ENERGY PREDICTED BY IDOCK:   -0.30 KCAL/MOL
REMARK 927      BINDING AFFINITY PREDICTED BY RF-SCORE:    0.00 PKD
ROOT
HETATM    1  C   UNL     1     -11.184  12.815  66.115  1.00  0.00    -0.336 C  
HETATM    2  C   UNL     1     -11.244  12.154  67.457  1.00  0.00    -0.357 A  
HETATM    3  C   UNL     1     -10.661  10.907  67.685  1.00  0.00    -0.242 A  
HETATM    4  N   UNL     1      -9.396  10.667  67.067  1.00  0.00    -0.155 N  
HETATM    5  C   UNL     1      -9.293   9.583  66.226  1.00  0.00    -0.188 C  
HETATM    6  H   UNL     1      -8.598  11.277  67.243  1.00  0.00     0.000 HD 
HETATM    7  C   UNL     1      -9.480   8.229  66.781  1.00  0.00    -0.256 A  
HETATM    8  O   UNL     1      -9.014   9.716  65.042  1.00  0.00    -0.184 OA 
HETATM    9  C   UNL     1     -10.415   7.930  67.769  1.00  0.00    -0.212 A  
HETATM   10  N   UNL     1     -10.648   8.781  68.897  1.00  0.00    -0.194 NA 
HETATM   11  N   UNL     1     -10.950   6.678  67.818  1.00  0.00    -0.288 NA 
HETATM   12  C   UNL     1     -10.979  10.167  68.831  1.00  0.00    -0.223 A  
HETATM   13  C   UNL     1     -10.458   5.722  66.999  1.00  0.00    -0.280 A  
HETATM   14  C   UNL     1     -11.886  12.757  68.528  1.00  0.00    -0.345 A  
HETATM   15  C   UNL     1     -11.987  12.056  69.718  1.00  0.00    -0.300 A  
HETATM   16  C   UNL     1      -9.340   5.897  66.215  1.00  0.00    -0.168 A  
HETATM   17  N   UNL     1     -11.591  10.774  69.870  1.00  0.00    -0.301 NA 
HETATM   18  C   UNL     1      -8.844   7.184  66.098  1.00  0.00    -0.171 A  
ENDROOT
BRANCH  10  19
HETATM   19  C   UNL     1      -9.812   8.411  70.077  1.00  0.00    -0.182 C  
HETATM   20  C   UNL     1      -8.470   7.749  69.972  1.00  0.00    -0.135 C  
HETATM   21  C   UNL     1      -8.562   9.167  70.446  1.00  0.00    -0.236 C  
ENDBRANCH  10  19
TORSDOF 1
ENDMDL
MODEL       71
REMARK 921   NORMALIZED FREE ENERGY PREDICTED BY IDOCK:   -4.49 KCAL/MOL
REMARK 922        TOTAL FREE ENERGY PREDICTED BY IDOCK:   -5.05 KCAL/MOL
REMARK 923 INTER-LIGAND FREE ENERGY PREDICTED BY IDOCK:   -4.75 KCAL/MOL
REMARK 924 INTRA-LIGAND FREE ENERGY PREDICTED BY IDOCK:   -0.30 KCAL/MOL
REMARK 927      BINDING AFFINITY PREDICTED BY RF-SCORE:    0.00 PKD
ROOT
HETATM    1  C   UNL     1      -8.924  14.918  68.223  1.00  0.00    -0.177 C  
HETATM    2  C   UNL     1      -8.382  13.545  67.972  1.00  0.00    -0.168 A  
HETATM    3  C   UNL     1      -9.109  12.401  68.304  1.00  0.00    -0.183 A  
HETATM    4  N   UNL     1     -10.514  12.436  68.053  1.00  0.00    -0.211 N  
HETATM    5  C   UNL     1     -11.358  12.214  69.116  1.00  0.00    -0.276 C  
HETATM    6  H   UNL     1     -10.879  12.620  67.118  1.00  0.00     0.000 HD 
HETATM    7  C   UNL     1     -11.330  10.900  69.787  1.00  0.00    -0.374 A  
HETATM    8  O   UNL     1     -12.153  13.066  69.492  1.00  0.00    -0.293 OA 
HETATM    9  C   UNL     1     -10.160  10.173  69.995  1.00  0.00    -0.190 A  
HETATM   10  N   UNL     1      -9.135  10.056  69.002  1.00  0.00    -0.160 NA 
HETATM   11  N   UNL     1     -10.083   9.333  71.065  1.00  0.00    -0.294 NA 
HETATM   12  C   UNL     1      -8.486  11.148  68.354  1.00  0.00    -0.151 A  
HETATM   13  C   UNL     1     -11.189   9.122  71.814  1.00  0.00    -0.381 A  
HETATM   14  C   UNL     1      -7.133  13.358  67.400  1.00  0.00    -0.108 A  
HETATM   15  C   UNL     1      -6.650  12.066  67.278  1.00  0.00    -0.145 A  
HETATM   16  C   UNL     1     -12.438   9.592  71.472  1.00  0.00    -0.476 A  
HETATM   17  N   UNL     1      -7.275  10.980  67.778  1.00  0.00    -0.089 NA 
HETATM   18  C   UNL     1     -12.507  10.509  70.438  1.00  0.00    -0.392 A  
ENDROOT
BRANCH  10  19
HETATM   19  C   UNL     1      -9.308   8.851  68.139  1.00  0.00    -0.142 C  
HETATM   20  C   UNL     1     -10.641   8.245  67.810  1.00  0.00    -0.236 C  
HETATM   21  C   UNL     1      -9.856   8.937  66.738  1.00  0.00    -0.308 C  
ENDBRANCH  10  19
TORSDOF 1
ENDMDL
MODEL       72
REMARK 921   NORMALIZED FREE ENERGY PREDICTED BY IDOCK:   -4.48 KCAL/MOL
REMARK 922        TOTAL FREE ENERGY PREDICTED BY IDOCK:   -5.05 KCAL/MOL
REMARK 923 INTER-LIGAND FREE ENERGY PREDICTED BY IDOCK:   -4.74 KCAL/MOL
REMARK 924 INTRA-LIGAND FREE ENERGY PREDICTED BY IDOCK:   -0.30 KCAL/MOL
REMARK 927      BINDING AFFINITY PREDICTED BY RF-SCORE:    0.00 PKD
ROOT
HETATM    1  C   UNL     1     -11.498   8.267  71.042  1.00  0.00    -0.303 C  
HETATM    2  C   UNL     1     -10.494   8.341  69.934  1.00  0.00    -0.223 A  
HETATM    3  C   UNL     1     -10.379   9.473  69.126  1.00  0.00    -0.207 A  
HETATM    4  N   UNL     1     -10.500  10.740  69.774  1.00  0.00    -0.436 N  
HETATM    5  C   UNL     1     -11.477  11.596  69.324  1.00  0.00    -0.300 C  
HETATM    6  H   UNL     1      -9.883  11.000  70.544  1.00  0.00     0.000 HD 
HETATM    7  C   UNL     1     -11.395  12.110  67.943  1.00  0.00    -0.361 A  
HETATM    8  O   UNL     1     -12.389  11.967  70.052  1.00  0.00    -0.220 OA 
HETATM    9  C   UNL     1     -10.952  11.343  66.867  1.00  0.00    -0.299 A  
HETATM   10  N   UNL     1      -9.828  10.462  66.956  1.00  0.00    -0.184 NA 
HETATM   11  N   UNL     1     -11.428  11.614  65.620  1.00  0.00    -0.207 NA 
HETATM   12  C   UNL     1      -9.668   9.422  67.920  1.00  0.00    -0.152 A  
HETATM   13  C   UNL     1     -12.205  12.706  65.437  1.00  0.00    -0.459 A  
HETATM   14  C   UNL     1      -9.639   7.282  69.665  1.00  0.00    -0.155 A  
HETATM   15  C   UNL     1      -8.796   7.376  68.571  1.00  0.00    -0.126 A  
HETATM   16  C   UNL     1     -12.427  13.651  66.414  1.00  0.00    -0.377 A  
HETATM   17  N   UNL     1      -8.829   8.391  67.682  1.00  0.00    -0.136 NA 
HETATM   18  C   UNL     1     -12.018  13.340  67.699  1.00  0.00    -0.366 A  
ENDROOT
BRANCH  10  19
HETATM   19  C   UNL     1      -8.550  11.119  66.554  1.00  0.00    -0.169 C  
HETATM   20  C   UNL     1      -8.330  12.603  66.590  1.00  0.00     0.074 C  
HETATM   21  C   UNL     1      -7.604  11.722  67.559  1.00  0.00    -0.135 C  
ENDBRANCH  10  19
TORSDOF 1
ENDMDL
MODEL       73
REMARK 921   NORMALIZED FREE ENERGY PREDICTED BY IDOCK:   -4.47 KCAL/MOL
REMARK 922        TOTAL FREE ENERGY PREDICTED BY IDOCK:   -5.03 KCAL/MOL
REMARK 923 INTER-LIGAND FREE ENERGY PREDICTED BY IDOCK:   -4.74 KCAL/MOL
REMARK 924 INTRA-LIGAND FREE ENERGY PREDICTED BY IDOCK:   -0.29 KCAL/MOL
REMARK 927      BINDING AFFINITY PREDICTED BY RF-SCORE:    0.00 PKD
ROOT
HETATM    1  C   UNL     1     -12.305  14.093  70.394  1.00  0.00    -0.428 C  
HETATM    2  C   UNL     1     -11.461  13.967  69.164  1.00  0.00    -0.340 A  
HETATM    3  C   UNL     1     -10.899  12.748  68.785  1.00  0.00    -0.234 A  
HETATM    4  N   UNL     1     -11.711  11.585  68.954  1.00  0.00    -0.312 N  
HETATM    5  C   UNL     1     -11.215  10.570  69.737  1.00  0.00    -0.298 C  
HETATM    6  H   UNL     1     -12.625  11.511  68.509  1.00  0.00     0.000 HD 
HETATM    7  C   UNL     1      -9.989   9.870  69.308  1.00  0.00    -0.217 A  
HETATM    8  O   UNL     1     -11.786  10.212  70.759  1.00  0.00    -0.297 OA 
HETATM    9  C   UNL     1      -8.917  10.513  68.692  1.00  0.00    -0.162 A  
HETATM   10  N   UNL     1      -9.092  11.516  67.686  1.00  0.00    -0.164 NA 
HETATM   11  N   UNL     1      -7.662  10.010  68.852  1.00  0.00    -0.083 NA 
HETATM   12  C   UNL     1      -9.879  12.698  67.827  1.00  0.00    -0.212 A  
HETATM   13  C   UNL     1      -7.505   8.824  69.484  1.00  0.00    -0.075 A  
HETATM   14  C   UNL     1     -11.205  15.062  68.352  1.00  0.00    -0.303 A  
HETATM   15  C   UNL     1     -10.344  14.902  67.280  1.00  0.00    -0.251 A  
HETATM   16  C   UNL     1      -8.559   8.015  69.849  1.00  0.00    -0.135 A  
HETATM   17  N   UNL     1      -9.652  13.769  67.034  1.00  0.00    -0.243 NA 
HETATM   18  C   UNL     1      -9.830   8.555  69.766  1.00  0.00    -0.186 A  
ENDROOT
BRANCH  10  19
HETATM   19  C   UNL     1      -9.084  10.951  66.305  1.00  0.00    -0.176 C  
HETATM   20  C   UNL     1      -9.599   9.585  65.961  1.00  0.00    -0.316 C  
HETATM   21  C   UNL     1     -10.342  10.797  65.492  1.00  0.00    -0.308 C  
ENDBRANCH  10  19
TORSDOF 1
ENDMDL
MODEL       74
REMARK 921   NORMALIZED FREE ENERGY PREDICTED BY IDOCK:   -4.39 KCAL/MOL
REMARK 922        TOTAL FREE ENERGY PREDICTED BY IDOCK:   -4.95 KCAL/MOL
REMARK 923 INTER-LIGAND FREE ENERGY PREDICTED BY IDOCK:   -5.15 KCAL/MOL
REMARK 924 INTRA-LIGAND FREE ENERGY PREDICTED BY IDOCK:    0.20 KCAL/MOL
REMARK 927      BINDING AFFINITY PREDICTED BY RF-SCORE:    0.00 PKD
ROOT
HETATM    1  C   UNL     1     -12.015  14.931  68.710  1.00  0.00    -0.284 C  
HETATM    2  C   UNL     1     -12.081  13.750  69.628  1.00  0.00    -0.392 A  
HETATM    3  C   UNL     1     -11.338  12.594  69.386  1.00  0.00    -0.208 A  
HETATM    4  N   UNL     1     -10.007  12.774  68.901  1.00  0.00    -0.420 N  
HETATM    5  C   UNL     1      -9.678  12.180  67.705  1.00  0.00    -0.197 C  
HETATM    6  H   UNL     1      -9.325  13.324  69.423  1.00  0.00     0.000 HD 
HETATM    7  C   UNL     1      -9.704  10.709  67.608  1.00  0.00    -0.186 A  
HETATM    8  O   UNL     1      -9.330  12.843  66.736  1.00  0.00    -0.232 OA 
HETATM    9  C   UNL     1     -10.659   9.917  68.243  1.00  0.00    -0.229 A  
HETATM   10  N   UNL     1     -11.103  10.166  69.581  1.00  0.00    -0.249 NA 
HETATM   11  N   UNL     1     -11.004   8.722  67.689  1.00  0.00    -0.005 NA 
HETATM   12  C   UNL     1     -11.631  11.402  70.060  1.00  0.00    -0.299 A  
HETATM   13  C   UNL     1     -10.313   8.271  66.618  1.00  0.00    -0.223 A  
HETATM   14  C   UNL     1     -12.887  13.760  70.756  1.00  0.00    -0.302 A  
HETATM   15  C   UNL     1     -12.975  12.605  71.515  1.00  0.00    -0.282 A  
HETATM   16  C   UNL     1      -9.175   8.882  66.138  1.00  0.00    -0.273 A  
HETATM   17  N   UNL     1     -12.406  11.432  71.166  1.00  0.00    -0.336 NA 
HETATM   18  C   UNL     1      -8.869  10.134  66.641  1.00  0.00    -0.145 A  
ENDROOT
BRANCH  10  19
HETATM   19  C   UNL     1     -10.317   9.406  70.597  1.00  0.00    -0.284 C  
HETATM   20  C   UNL     1     -10.934   8.683  71.758  1.00  0.00    -0.396 C  
HETATM   21  C   UNL     1     -10.307   7.900  70.646  1.00  0.00    -0.205 C  
ENDBRANCH  10  19
TORSDOF 1
ENDMDL
MODEL       75
REMARK 921   NORMALIZED FREE ENERGY PREDICTED BY IDOCK:   -4.38 KCAL/MOL
REMARK 922        TOTAL FREE ENERGY PREDICTED BY IDOCK:   -4.94 KCAL/MOL
REMARK 923 INTER-LIGAND FREE ENERGY PREDICTED BY IDOCK:   -4.64 KCAL/MOL
REMARK 924 INTRA-LIGAND FREE ENERGY PREDICTED BY IDOCK:   -0.30 KCAL/MOL
REMARK 927      BINDING AFFINITY PREDICTED BY RF-SCORE:    0.00 PKD
ROOT
HETATM    1  C   UNL     1     -11.653  10.502  69.532  1.00  0.00    -0.332 C  
HETATM    2  C   UNL     1     -10.561   9.556  69.139  1.00  0.00    -0.237 A  
HETATM    3  C   UNL     1     -10.459   8.283  69.701  1.00  0.00    -0.221 A  
HETATM    4  N   UNL     1     -11.680   7.574  69.912  1.00  0.00    -0.463 N  
HETATM    5  C   UNL     1     -11.963   7.157  71.192  1.00  0.00    -0.342 C  
HETATM    6  H   UNL     1     -12.320   7.383  69.141  1.00  0.00     0.000 HD 
HETATM    7  C   UNL     1     -11.072   6.173  71.835  1.00  0.00    -0.324 A  
HETATM    8  O   UNL     1     -12.953   7.557  71.791  1.00  0.00    -0.335 OA 
HETATM    9  C   UNL     1      -9.689   6.168  71.667  1.00  0.00    -0.158 A  
HETATM   10  N   UNL     1      -9.063   6.398  70.400  1.00  0.00    -0.154 NA 
HETATM   11  N   UNL     1      -8.902   5.683  72.667  1.00  0.00    -0.123 NA 
HETATM   12  C   UNL     1      -9.284   7.533  69.564  1.00  0.00    -0.146 A  
HETATM   13  C   UNL     1      -9.485   5.091  73.733  1.00  0.00    -0.129 A  
HETATM   14  C   UNL     1      -9.605   9.912  68.199  1.00  0.00    -0.153 A  
HETATM   15  C   UNL     1      -8.569   9.029  67.945  1.00  0.00    -0.125 A  
HETATM   16  C   UNL     1     -10.833   4.813  73.803  1.00  0.00    -0.379 A  
HETATM   17  N   UNL     1      -8.370   7.885  68.633  1.00  0.00    -0.127 NA 
HETATM   18  C   UNL     1     -11.645   5.375  72.834  1.00  0.00    -0.296 A  
ENDROOT
BRANCH  10  19
HETATM   19  C   UNL     1      -8.800   5.133  69.653  1.00  0.00    -0.102 C  
HETATM   20  C   UNL     1      -9.651   3.904  69.770  1.00  0.00    -0.271 C  
HETATM   21  C   UNL     1      -9.656   4.690  68.496  1.00  0.00    -0.220 C  
ENDBRANCH  10  19
TORSDOF 1
ENDMDL
MODEL       76
REMARK 921   NORMALIZED FREE ENERGY PREDICTED BY IDOCK:   -4.37 KCAL/MOL
REMARK 922        TOTAL FREE ENERGY PREDICTED BY IDOCK:   -4.93 KCAL/MOL
REMARK 923 INTER-LIGAND FREE ENERGY PREDICTED BY IDOCK:   -4.62 KCAL/MOL
REMARK 924 INTRA-LIGAND FREE ENERGY PREDICTED BY IDOCK:   -0.30 KCAL/MOL
REMARK 927      BINDING AFFINITY PREDICTED BY RF-SCORE:    0.00 PKD
ROOT
HETATM    1  C   UNL     1     -10.613   7.518  67.219  1.00  0.00    -0.394 C  
HETATM    2  C   UNL     1      -9.425   8.387  66.942  1.00  0.00    -0.239 A  
HETATM    3  C   UNL     1      -9.439   9.754  67.220  1.00  0.00    -0.153 A  
HETATM    4  N   UNL     1     -10.081  10.158  68.430  1.00  0.00    -0.158 N  
HETATM    5  C   UNL     1     -11.115  11.060  68.333  1.00  0.00    -0.251 C  
HETATM    6  H   UNL     1      -9.783   9.791  69.334  1.00  0.00     0.000 HD 
HETATM    7  C   UNL     1     -10.835  12.414  67.819  1.00  0.00    -0.257 A  
HETATM    8  O   UNL     1     -12.249  10.775  68.696  1.00  0.00    -0.472 OA 
HETATM    9  C   UNL     1      -9.931  12.670  66.791  1.00  0.00    -0.234 A  
HETATM   10  N   UNL     1      -8.662  12.015  66.695  1.00  0.00    -0.192 NA 
HETATM   11  N   UNL     1     -10.130  13.752  65.988  1.00  0.00    -0.303 NA 
HETATM   12  C   UNL     1      -8.461  10.602  66.685  1.00  0.00    -0.137 A  
HETATM   13  C   UNL     1     -11.115  14.626  66.296  1.00  0.00    -0.336 A  
HETATM   14  C   UNL     1      -8.263   7.863  66.396  1.00  0.00    -0.121 A  
HETATM   15  C   UNL     1      -7.233   8.732  66.080  1.00  0.00    -0.088 A  
HETATM   16  C   UNL     1     -11.841  14.568  67.465  1.00  0.00    -0.404 A  
HETATM   17  N   UNL     1      -7.328  10.076  66.171  1.00  0.00    -0.104 NA 
HETATM   18  C   UNL     1     -11.702  13.431  68.240  1.00  0.00    -0.391 A  
ENDROOT
BRANCH  10  19
HETATM   19  C   UNL     1      -7.569  12.780  67.364  1.00  0.00    -0.152 C  
HETATM   20  C   UNL     1      -7.804  13.797  68.442  1.00  0.00    -0.143 C  
HETATM   21  C   UNL     1      -7.140  12.498  68.781  1.00  0.00    -0.092 C  
ENDBRANCH  10  19
TORSDOF 1
ENDMDL
MODEL       77
REMARK 921   NORMALIZED FREE ENERGY PREDICTED BY IDOCK:   -4.34 KCAL/MOL
REMARK 922        TOTAL FREE ENERGY PREDICTED BY IDOCK:   -4.89 KCAL/MOL
REMARK 923 INTER-LIGAND FREE ENERGY PREDICTED BY IDOCK:   -4.62 KCAL/MOL
REMARK 924 INTRA-LIGAND FREE ENERGY PREDICTED BY IDOCK:   -0.27 KCAL/MOL
REMARK 927      BINDING AFFINITY PREDICTED BY RF-SCORE:    0.00 PKD
ROOT
HETATM    1  C   UNL     1     -12.612   8.723  72.400  1.00  0.00    -0.430 C  
HETATM    2  C   UNL     1     -12.246   9.821  71.450  1.00  0.00    -0.486 A  
HETATM    3  C   UNL     1     -11.307   9.628  70.436  1.00  0.00    -0.277 A  
HETATM    4  N   UNL     1     -11.344   8.373  69.757  1.00  0.00    -0.445 N  
HETATM    5  C   UNL     1     -10.198   7.613  69.759  1.00  0.00    -0.210 C  
HETATM    6  H   UNL     1     -12.190   8.052  69.286  1.00  0.00     0.000 HD 
HETATM    7  C   UNL     1      -8.991   8.139  69.095  1.00  0.00    -0.144 A  
HETATM    8  O   UNL     1     -10.170   6.498  70.267  1.00  0.00    -0.187 OA 
HETATM    9  C   UNL     1      -8.626   9.483  69.125  1.00  0.00    -0.140 A  
HETATM   10  N   UNL     1      -9.574  10.545  68.973  1.00  0.00    -0.196 NA 
HETATM   11  N   UNL     1      -7.307   9.814  69.041  1.00  0.00    -0.075 NA 
HETATM   12  C   UNL     1     -10.751  10.721  69.760  1.00  0.00    -0.186 A  
HETATM   13  C   UNL     1      -6.402   8.842  68.789  1.00  0.00    -0.049 A  
HETATM   14  C   UNL     1     -12.828  11.077  71.544  1.00  0.00    -0.555 A  
HETATM   15  C   UNL     1     -12.382  12.076  70.695  1.00  0.00    -0.304 A  
HETATM   16  C   UNL     1      -6.748   7.549  68.463  1.00  0.00    -0.057 A  
HETATM   17  N   UNL     1     -11.339  11.934  69.850  1.00  0.00    -0.165 NA 
HETATM   18  C   UNL     1      -8.073   7.189  68.627  1.00  0.00    -0.124 A  
ENDROOT
BRANCH  10  19
HETATM   19  C   UNL     1      -9.719  10.985  67.554  1.00  0.00    -0.172 C  
HETATM   20  C   UNL     1      -9.165  10.225  66.386  1.00  0.00    -0.186 C  
HETATM   21  C   UNL     1     -10.647  10.295  66.589  1.00  0.00    -0.232 C  
ENDBRANCH  10  19
TORSDOF 1
ENDMDL
MODEL       78
REMARK 921   NORMALIZED FREE ENERGY PREDICTED BY IDOCK:   -4.28 KCAL/MOL
REMARK 922        TOTAL FREE ENERGY PREDICTED BY IDOCK:   -4.83 KCAL/MOL
REMARK 923 INTER-LIGAND FREE ENERGY PREDICTED BY IDOCK:   -4.88 KCAL/MOL
REMARK 924 INTRA-LIGAND FREE ENERGY PREDICTED BY IDOCK:    0.05 KCAL/MOL
REMARK 927      BINDING AFFINITY PREDICTED BY RF-SCORE:    0.00 PKD
ROOT
HETATM    1  C   UNL     1     -12.844  13.920  65.447  1.00  0.00    -0.466 C  
HETATM    2  C   UNL     1     -11.789  13.693  66.485  1.00  0.00    -0.441 A  
HETATM    3  C   UNL     1     -10.667  12.904  66.228  1.00  0.00    -0.274 A  
HETATM    4  N   UNL     1     -10.074  13.033  64.935  1.00  0.00    -0.499 N  
HETATM    5  C   UNL     1      -9.961  11.896  64.170  1.00  0.00    -0.262 C  
HETATM    6  H   UNL     1      -9.746  13.935  64.592  1.00  0.00     0.000 HD 
HETATM    7  C   UNL     1      -9.105  10.794  64.649  1.00  0.00    -0.223 A  
HETATM    8  O   UNL     1     -10.524  11.794  63.087  1.00  0.00    -0.378 OA 
HETATM    9  C   UNL     1      -9.005  10.433  65.991  1.00  0.00    -0.159 A  
HETATM   10  N   UNL     1      -8.924  11.395  67.048  1.00  0.00    -0.162 NA 
HETATM   11  N   UNL     1      -8.718   9.140  66.309  1.00  0.00    -0.135 NA 
HETATM   12  C   UNL     1      -9.856  12.451  67.275  1.00  0.00    -0.207 A  
HETATM   13  C   UNL     1      -8.399   8.275  65.319  1.00  0.00    -0.166 A  
HETATM   14  C   UNL     1     -11.889  14.259  67.747  1.00  0.00    -0.414 A  
HETATM   15  C   UNL     1     -10.929  13.939  68.692  1.00  0.00    -0.261 A  
HETATM   16  C   UNL     1      -8.201   8.660  64.011  1.00  0.00    -0.149 A  
HETATM   17  N   UNL     1      -9.956  13.024  68.495  1.00  0.00    -0.209 NA 
HETATM   18  C   UNL     1      -8.570   9.949  63.668  1.00  0.00    -0.203 A  
ENDROOT
BRANCH  10  19
HETATM   19  C   UNL     1      -7.516  11.738  67.405  1.00  0.00    -0.143 C  
HETATM   20  C   UNL     1      -6.759  11.089  68.525  1.00  0.00    -0.061 C  
HETATM   21  C   UNL     1      -6.363  10.816  67.108  1.00  0.00    -0.072 C  
ENDBRANCH  10  19
TORSDOF 1
ENDMDL
MODEL       79
REMARK 921   NORMALIZED FREE ENERGY PREDICTED BY IDOCK:   -4.26 KCAL/MOL
REMARK 922        TOTAL FREE ENERGY PREDICTED BY IDOCK:   -4.81 KCAL/MOL
REMARK 923 INTER-LIGAND FREE ENERGY PREDICTED BY IDOCK:   -4.50 KCAL/MOL
REMARK 924 INTRA-LIGAND FREE ENERGY PREDICTED BY IDOCK:   -0.30 KCAL/MOL
REMARK 927      BINDING AFFINITY PREDICTED BY RF-SCORE:    0.00 PKD
ROOT
HETATM    1  C   UNL     1      -6.846  17.120  67.388  1.00  0.00    -0.179 C  
HETATM    2  C   UNL     1      -8.248  16.796  66.975  1.00  0.00    -0.224 A  
HETATM    3  C   UNL     1      -8.777  15.514  67.127  1.00  0.00    -0.211 A  
HETATM    4  N   UNL     1      -8.437  14.816  68.326  1.00  0.00    -0.144 N  
HETATM    5  C   UNL     1      -7.818  13.594  68.198  1.00  0.00    -0.143 C  
HETATM    6  H   UNL     1      -8.645  15.210  69.243  1.00  0.00     0.000 HD 
HETATM    7  C   UNL     1      -8.549  12.488  67.550  1.00  0.00    -0.183 A  
HETATM    8  O   UNL     1      -6.694  13.396  68.642  1.00  0.00    -0.082 OA 
HETATM    9  C   UNL     1      -9.396  12.668  66.459  1.00  0.00    -0.228 A  
HETATM   10  N   UNL     1     -10.309  13.766  66.361  1.00  0.00    -0.284 NA 
HETATM   11  N   UNL     1      -9.559  11.647  65.572  1.00  0.00    -0.227 NA 
HETATM   12  C   UNL     1      -9.957  15.145  66.470  1.00  0.00    -0.266 A  
HETATM   13  C   UNL     1      -9.008  10.444  65.847  1.00  0.00    -0.162 A  
HETATM   14  C   UNL     1      -9.076  17.761  66.422  1.00  0.00    -0.254 A  
HETATM   15  C   UNL     1     -10.330  17.378  65.976  1.00  0.00    -0.304 A  
HETATM   16  C   UNL     1      -8.411  10.141  67.052  1.00  0.00    -0.129 A  
HETATM   17  N   UNL     1     -10.760  16.099  65.949  1.00  0.00    -0.292 NA 
HETATM   18  C   UNL     1      -8.170  11.191  67.919  1.00  0.00    -0.121 A  
ENDROOT
BRANCH  10  19
HETATM   19  C   UNL     1     -11.661  13.439  66.902  1.00  0.00    -0.389 C  
HETATM   20  C   UNL     1     -11.911  12.376  67.931  1.00  0.00    -0.370 C  
HETATM   21  C   UNL     1     -12.081  13.818  68.298  1.00  0.00    -0.314 C  
ENDBRANCH  10  19
TORSDOF 1
ENDMDL
MODEL       80
REMARK 921   NORMALIZED FREE ENERGY PREDICTED BY IDOCK:   -4.26 KCAL/MOL
REMARK 922        TOTAL FREE ENERGY PREDICTED BY IDOCK:   -4.81 KCAL/MOL
REMARK 923 INTER-LIGAND FREE ENERGY PREDICTED BY IDOCK:   -4.71 KCAL/MOL
REMARK 924 INTRA-LIGAND FREE ENERGY PREDICTED BY IDOCK:   -0.10 KCAL/MOL
REMARK 927      BINDING AFFINITY PREDICTED BY RF-SCORE:    0.00 PKD
ROOT
HETATM    1  C   UNL     1     -10.171  11.248  67.629  1.00  0.00    -0.206 C  
HETATM    2  C   UNL     1      -8.845  11.942  67.597  1.00  0.00    -0.169 A  
HETATM    3  C   UNL     1      -8.736  13.321  67.785  1.00  0.00    -0.194 A  
HETATM    4  N   UNL     1      -9.579  13.902  68.781  1.00  0.00    -0.390 N  
HETATM    5  C   UNL     1     -10.430  14.908  68.387  1.00  0.00    -0.243 C  
HETATM    6  H   UNL     1      -9.550  13.582  69.749  1.00  0.00     0.000 HD 
HETATM    7  C   UNL     1      -9.858  16.170  67.880  1.00  0.00    -0.235 A  
HETATM    8  O   UNL     1     -11.645  14.793  68.483  1.00  0.00    -0.293 OA 
HETATM    9  C   UNL     1      -8.715  16.226  67.086  1.00  0.00    -0.191 A  
HETATM   10  N   UNL     1      -7.559  15.418  67.335  1.00  0.00    -0.185 NA 
HETATM   11  N   UNL     1      -8.574  17.250  66.198  1.00  0.00    -0.482 NA 
HETATM   12  C   UNL     1      -7.555  13.997  67.454  1.00  0.00    -0.148 A  
HETATM   13  C   UNL     1      -9.475  18.258  66.211  1.00  0.00    -0.230 A  
HETATM   14  C   UNL     1      -7.670  11.239  67.377  1.00  0.00    -0.128 A  
HETATM   15  C   UNL     1      -6.486  11.949  67.268  1.00  0.00    -0.141 A  
HETATM   16  C   UNL     1     -10.453  18.389  67.173  1.00  0.00    -0.434 A  
HETATM   17  N   UNL     1      -6.417  13.297  67.257  1.00  0.00    -0.240 NA 
HETATM   18  C   UNL     1     -10.652  17.315  68.022  1.00  0.00    -0.394 A  
ENDROOT
BRANCH  10  19
HETATM   19  C   UNL     1      -6.557  16.104  68.202  1.00  0.00    -0.124 C  
HETATM   20  C   UNL     1      -6.609  17.565  68.541  1.00  0.00    -0.198 C  
HETATM   21  C   UNL     1      -6.877  16.547  69.606  1.00  0.00    -0.081 C  
ENDBRANCH  10  19
TORSDOF 1
ENDMDL
MODEL       81
REMARK 921   NORMALIZED FREE ENERGY PREDICTED BY IDOCK:   -4.26 KCAL/MOL
REMARK 922        TOTAL FREE ENERGY PREDICTED BY IDOCK:   -4.81 KCAL/MOL
REMARK 923 INTER-LIGAND FREE ENERGY PREDICTED BY IDOCK:   -4.72 KCAL/MOL
REMARK 924 INTRA-LIGAND FREE ENERGY PREDICTED BY IDOCK:   -0.09 KCAL/MOL
REMARK 927      BINDING AFFINITY PREDICTED BY RF-SCORE:    0.00 PKD
ROOT
HETATM    1  C   UNL     1      -6.844   5.328  72.945  1.00  0.00    -0.081 C  
HETATM    2  C   UNL     1      -7.777   4.858  71.872  1.00  0.00    -0.103 A  
HETATM    3  C   UNL     1      -8.757   5.695  71.338  1.00  0.00    -0.132 A  
HETATM    4  N   UNL     1      -8.388   7.057  71.116  1.00  0.00    -0.117 N  
HETATM    5  C   UNL     1      -9.140   8.029  71.734  1.00  0.00    -0.158 C  
HETATM    6  H   UNL     1      -7.597   7.299  70.522  1.00  0.00     0.000 HD 
HETATM    7  C   UNL     1     -10.563   8.169  71.372  1.00  0.00    -0.269 A  
HETATM    8  O   UNL     1      -8.646   8.800  72.547  1.00  0.00    -0.403 OA 
HETATM    9  C   UNL     1     -11.392   7.084  71.095  1.00  0.00    -0.282 A  
HETATM   10  N   UNL     1     -10.963   5.963  70.313  1.00  0.00    -0.326 NA 
HETATM   11  N   UNL     1     -12.726   7.187  71.347  1.00  0.00    -0.385 NA 
HETATM   12  C   UNL     1      -9.806   5.170  70.573  1.00  0.00    -0.215 A  
HETATM   13  C   UNL     1     -13.232   8.383  71.726  1.00  0.00    -0.355 A  
HETATM   14  C   UNL     1      -7.703   3.568  71.369  1.00  0.00    -0.056 A  
HETATM   15  C   UNL     1      -8.651   3.165  70.444  1.00  0.00    -0.063 A  
HETATM   16  C   UNL     1     -12.498   9.549  71.730  1.00  0.00    -0.484 A  
HETATM   17  N   UNL     1      -9.711   3.917  70.078  1.00  0.00    -0.201 NA 
HETATM   18  C   UNL     1     -11.130   9.437  71.556  1.00  0.00    -0.446 A  
ENDROOT
BRANCH  10  19
HETATM   19  C   UNL     1     -11.281   6.120  68.863  1.00  0.00    -0.261 C  
HETATM   20  C   UNL     1     -10.810   7.274  68.028  1.00  0.00    -0.161 C  
HETATM   21  C   UNL     1     -10.249   5.907  67.787  1.00  0.00    -0.223 C  
ENDBRANCH  10  19
TORSDOF 1
ENDMDL
MODEL       82
REMARK 921   NORMALIZED FREE ENERGY PREDICTED BY IDOCK:   -4.13 KCAL/MOL
REMARK 922        TOTAL FREE ENERGY PREDICTED BY IDOCK:   -4.67 KCAL/MOL
REMARK 923 INTER-LIGAND FREE ENERGY PREDICTED BY IDOCK:   -4.73 KCAL/MOL
REMARK 924 INTRA-LIGAND FREE ENERGY PREDICTED BY IDOCK:    0.06 KCAL/MOL
REMARK 927      BINDING AFFINITY PREDICTED BY RF-SCORE:    0.00 PKD
ROOT
HETATM    1  C   UNL     1      -8.553  13.009  68.499  1.00  0.00    -0.049 C  
HETATM    2  C   UNL     1      -8.392  11.521  68.530  1.00  0.00    -0.146 A  
HETATM    3  C   UNL     1      -9.411  10.684  68.984  1.00  0.00    -0.191 A  
HETATM    4  N   UNL     1     -10.744  11.032  68.609  1.00  0.00    -0.185 N  
HETATM    5  C   UNL     1     -11.658  11.235  69.617  1.00  0.00    -0.330 C  
HETATM    6  H   UNL     1     -11.009  11.128  67.629  1.00  0.00     0.000 HD 
HETATM    7  C   UNL     1     -12.011  10.105  70.497  1.00  0.00    -0.400 A  
HETATM    8  O   UNL     1     -12.209  12.317  69.774  1.00  0.00    -0.232 OA 
HETATM    9  C   UNL     1     -11.090   9.152  70.925  1.00  0.00    -0.291 A  
HETATM   10  N   UNL     1     -10.095   8.594  70.059  1.00  0.00    -0.185 NA 
HETATM   11  N   UNL     1     -11.283   8.533  72.123  1.00  0.00    -0.342 NA 
HETATM   12  C   UNL     1      -9.151   9.343  69.296  1.00  0.00    -0.152 A  
HETATM   13  C   UNL     1     -12.434   8.756  72.798  1.00  0.00    -0.031 A  
HETATM   14  C   UNL     1      -7.217  10.916  68.108  1.00  0.00    -0.083 A  
HETATM   15  C   UNL     1      -7.095   9.544  68.246  1.00  0.00    -0.075 A  
HETATM   16  C   UNL     1     -13.496   9.460  72.275  1.00  0.00    -0.539 A  
HETATM   17  N   UNL     1      -8.008   8.766  68.865  1.00  0.00    -0.103 NA 
HETATM   18  C   UNL     1     -13.275  10.157  71.100  1.00  0.00    -0.438 A  
ENDROOT
BRANCH  10  19
HETATM   19  C   UNL     1     -10.551   7.337  69.397  1.00  0.00    -0.229 C  
HETATM   20  C   UNL     1     -10.038   5.973  69.757  1.00  0.00    -0.246 C  
HETATM   21  C   UNL     1     -11.451   6.345  70.088  1.00  0.00    -0.484 C  
ENDBRANCH  10  19
TORSDOF 1
ENDMDL
MODEL       83
REMARK 921   NORMALIZED FREE ENERGY PREDICTED BY IDOCK:   -4.12 KCAL/MOL
REMARK 922        TOTAL FREE ENERGY PREDICTED BY IDOCK:   -4.66 KCAL/MOL
REMARK 923 INTER-LIGAND FREE ENERGY PREDICTED BY IDOCK:   -4.75 KCAL/MOL
REMARK 924 INTRA-LIGAND FREE ENERGY PREDICTED BY IDOCK:    0.09 KCAL/MOL
REMARK 927      BINDING AFFINITY PREDICTED BY RF-SCORE:    0.00 PKD
ROOT
HETATM    1  C   UNL     1     -11.031  11.779  65.175  1.00  0.00    -0.351 C  
HETATM    2  C   UNL     1     -11.123  11.802  66.670  1.00  0.00    -0.364 A  
HETATM    3  C   UNL     1     -10.658  10.741  67.447  1.00  0.00    -0.242 A  
HETATM    4  N   UNL     1      -9.438  10.126  67.032  1.00  0.00    -0.164 N  
HETATM    5  C   UNL     1      -9.461   8.776  66.772  1.00  0.00    -0.191 C  
HETATM    6  H   UNL     1      -8.580  10.669  66.933  1.00  0.00     0.000 HD 
HETATM    7  C   UNL     1      -9.765   7.842  67.873  1.00  0.00    -0.181 A  
HETATM    8  O   UNL     1      -9.199   8.333  65.661  1.00  0.00    -0.130 OA 
HETATM    9  C   UNL     1     -10.700   8.113  68.869  1.00  0.00    -0.064 A  
HETATM   10  N   UNL     1     -10.822   9.398  69.487  1.00  0.00    -0.232 NA 
HETATM   11  N   UNL     1     -11.353   7.077  69.465  1.00  0.00    -0.146 NA 
HETATM   12  C   UNL     1     -11.018  10.631  68.796  1.00  0.00    -0.246 A  
HETATM   13  C   UNL     1     -10.977   5.810  69.175  1.00  0.00    -0.238 A  
HETATM   14  C   UNL     1     -11.677  12.883  67.339  1.00  0.00    -0.428 A  
HETATM   15  C   UNL     1     -11.816  12.806  68.715  1.00  0.00    -0.307 A  
HETATM   16  C   UNL     1      -9.866   5.504  68.421  1.00  0.00    -0.186 A  
HETATM   17  N   UNL     1     -11.543  11.699  69.437  1.00  0.00    -0.299 NA 
HETATM   18  C   UNL     1      -9.251   6.545  67.748  1.00  0.00    -0.113 A  
ENDROOT
BRANCH  10  19
HETATM   19  C   UNL     1      -9.997   9.520  70.725  1.00  0.00    -0.264 C  
HETATM   20  C   UNL     1     -10.346   8.858  72.026  1.00  0.00    -0.378 C  
HETATM   21  C   UNL     1      -9.158   8.384  71.247  1.00  0.00    -0.226 C  
ENDBRANCH  10  19
TORSDOF 1
ENDMDL
MODEL       84
REMARK 921   NORMALIZED FREE ENERGY PREDICTED BY IDOCK:   -4.07 KCAL/MOL
REMARK 922        TOTAL FREE ENERGY PREDICTED BY IDOCK:   -4.61 KCAL/MOL
REMARK 923 INTER-LIGAND FREE ENERGY PREDICTED BY IDOCK:   -4.31 KCAL/MOL
REMARK 924 INTRA-LIGAND FREE ENERGY PREDICTED BY IDOCK:   -0.30 KCAL/MOL
REMARK 927      BINDING AFFINITY PREDICTED BY RF-SCORE:    0.00 PKD
ROOT
HETATM    1  C   UNL     1      -6.487   8.645  68.608  1.00  0.00    -0.054 C  
HETATM    2  C   UNL     1      -7.970   8.484  68.480  1.00  0.00    -0.117 A  
HETATM    3  C   UNL     1      -8.788   8.331  69.601  1.00  0.00    -0.139 A  
HETATM    4  N   UNL     1      -8.469   9.128  70.742  1.00  0.00    -0.201 N  
HETATM    5  C   UNL     1      -8.218   8.473  71.926  1.00  0.00    -0.142 C  
HETATM    6  H   UNL     1      -8.429  10.145  70.682  1.00  0.00     0.000 HD 
HETATM    7  C   UNL     1      -9.300   7.690  72.552  1.00  0.00    -0.215 A  
HETATM    8  O   UNL     1      -7.133   8.557  72.486  1.00  0.00    -0.170 OA 
HETATM    9  C   UNL     1     -10.222   6.942  71.823  1.00  0.00    -0.189 A  
HETATM   10  N   UNL     1     -10.820   7.417  70.612  1.00  0.00    -0.237 NA 
HETATM   11  N   UNL     1     -10.775   5.835  72.393  1.00  0.00    -0.223 NA 
HETATM   12  C   UNL     1     -10.107   7.881  69.467  1.00  0.00    -0.195 A  
HETATM   13  C   UNL     1     -10.524   5.572  73.695  1.00  0.00    -0.262 A  
HETATM   14  C   UNL     1      -8.589   8.479  67.239  1.00  0.00    -0.123 A  
HETATM   15  C   UNL     1      -9.951   8.236  67.182  1.00  0.00    -0.239 A  
HETATM   16  C   UNL     1      -9.856   6.442  74.529  1.00  0.00    -0.356 A  
HETATM   17  N   UNL     1     -10.699   7.897  68.253  1.00  0.00    -0.096 NA 
HETATM   18  C   UNL     1      -9.224   7.522  73.941  1.00  0.00    -0.314 A  
ENDROOT
BRANCH  10  19
HETATM   19  C   UNL     1     -12.115   8.120  70.849  1.00  0.00    -0.148 C  
HETATM   20  C   UNL     1     -12.540   8.654  72.185  1.00  0.00    -0.451 C  
HETATM   21  C   UNL     1     -12.192   9.606  71.082  1.00  0.00    -0.437 C  
ENDBRANCH  10  19
TORSDOF 1
ENDMDL
MODEL       85
REMARK 921   NORMALIZED FREE ENERGY PREDICTED BY IDOCK:   -4.06 KCAL/MOL
REMARK 922        TOTAL FREE ENERGY PREDICTED BY IDOCK:   -4.60 KCAL/MOL
REMARK 923 INTER-LIGAND FREE ENERGY PREDICTED BY IDOCK:   -4.29 KCAL/MOL
REMARK 924 INTRA-LIGAND FREE ENERGY PREDICTED BY IDOCK:   -0.30 KCAL/MOL
REMARK 927      BINDING AFFINITY PREDICTED BY RF-SCORE:    0.00 PKD
ROOT
HETATM    1  C   UNL     1      -8.094   7.640  65.954  1.00  0.00    -0.122 C  
HETATM    2  C   UNL     1      -8.842   8.916  65.717  1.00  0.00    -0.223 A  
HETATM    3  C   UNL     1      -9.384   9.652  66.771  1.00  0.00    -0.152 A  
HETATM    4  N   UNL     1      -8.597   9.749  67.959  1.00  0.00    -0.122 N  
HETATM    5  C   UNL     1      -9.160   9.310  69.134  1.00  0.00    -0.145 C  
HETATM    6  H   UNL     1      -7.652  10.131  67.936  1.00  0.00     0.000 HD 
HETATM    7  C   UNL     1     -10.355  10.000  69.656  1.00  0.00    -0.274 A  
HETATM    8  O   UNL     1      -8.672   8.386  69.772  1.00  0.00    -0.130 OA 
HETATM    9  C   UNL     1     -11.371  10.492  68.839  1.00  0.00    -0.251 A  
HETATM   10  N   UNL     1     -11.112  11.171  67.606  1.00  0.00    -0.267 NA 
HETATM   11  N   UNL     1     -12.639  10.566  69.330  1.00  0.00    -0.118 NA 
HETATM   12  C   UNL     1     -10.328  10.658  66.529  1.00  0.00    -0.241 A  
HETATM   13  C   UNL     1     -12.854  10.294  70.638  1.00  0.00    -0.285 A  
HETATM   14  C   UNL     1      -9.026   9.414  64.436  1.00  0.00    -0.215 A  
HETATM   15  C   UNL     1      -9.804  10.548  64.275  1.00  0.00    -0.338 A  
HETATM   16  C   UNL     1     -11.838  10.089  71.545  1.00  0.00    -0.406 A  
HETATM   17  N   UNL     1     -10.484  11.142  65.278  1.00  0.00    -0.272 NA 
HETATM   18  C   UNL     1     -10.560   9.931  71.040  1.00  0.00    -0.173 A  
ENDROOT
BRANCH  10  19
HETATM   19  C   UNL     1     -11.019  12.651  67.774  1.00  0.00    -0.234 C  
HETATM   20  C   UNL     1     -10.648  13.321  69.065  1.00  0.00    -0.096 C  
HETATM   21  C   UNL     1      -9.698  13.364  67.908  1.00  0.00    -0.226 C  
ENDBRANCH  10  19
TORSDOF 1
ENDMDL
MODEL       86
REMARK 921   NORMALIZED FREE ENERGY PREDICTED BY IDOCK:   -4.06 KCAL/MOL
REMARK 922        TOTAL FREE ENERGY PREDICTED BY IDOCK:   -4.59 KCAL/MOL
REMARK 923 INTER-LIGAND FREE ENERGY PREDICTED BY IDOCK:   -4.68 KCAL/MOL
REMARK 924 INTRA-LIGAND FREE ENERGY PREDICTED BY IDOCK:    0.09 KCAL/MOL
REMARK 927      BINDING AFFINITY PREDICTED BY RF-SCORE:    0.00 PKD
ROOT
HETATM    1  C   UNL     1     -12.724  13.910  65.605  1.00  0.00    -0.534 C  
HETATM    2  C   UNL     1     -11.516  13.079  65.907  1.00  0.00    -0.374 A  
HETATM    3  C   UNL     1     -10.476  13.563  66.703  1.00  0.00    -0.274 A  
HETATM    4  N   UNL     1     -10.847  14.338  67.843  1.00  0.00    -0.250 N  
HETATM    5  C   UNL     1     -10.340  15.613  67.940  1.00  0.00    -0.259 C  
HETATM    6  H   UNL     1     -11.465  13.960  68.561  1.00  0.00     0.000 HD 
HETATM    7  C   UNL     1      -8.882  15.794  68.068  1.00  0.00    -0.176 A  
HETATM    8  O   UNL     1     -11.073  16.594  67.958  1.00  0.00    -0.343 OA 
HETATM    9  C   UNL     1      -7.951  15.001  67.400  1.00  0.00    -0.194 A  
HETATM   10  N   UNL     1      -8.096  13.583  67.269  1.00  0.00    -0.159 NA 
HETATM   11  N   UNL     1      -6.739  15.531  67.076  1.00  0.00    -0.246 NA 
HETATM   12  C   UNL     1      -9.235  12.915  66.729  1.00  0.00    -0.230 A  
HETATM   13  C   UNL     1      -6.418  16.762  67.535  1.00  0.00    -0.152 A  
HETATM   14  C   UNL     1     -11.383  11.793  65.406  1.00  0.00    -0.284 A  
HETATM   15  C   UNL     1     -10.203  11.109  65.646  1.00  0.00    -0.256 A  
HETATM   16  C   UNL     1      -7.189  17.459  68.439  1.00  0.00    -0.223 A  
HETATM   17  N   UNL     1      -9.127  11.657  66.249  1.00  0.00    -0.215 NA 
HETATM   18  C   UNL     1      -8.453  16.966  68.705  1.00  0.00    -0.244 A  
ENDROOT
BRANCH  10  19
HETATM   19  C   UNL     1      -7.415  12.833  68.366  1.00  0.00    -0.124 C  
HETATM   20  C   UNL     1      -5.929  12.643  68.446  1.00  0.00    -0.059 C  
HETATM   21  C   UNL     1      -6.618  13.526  69.440  1.00  0.00    -0.082 C  
ENDBRANCH  10  19
TORSDOF 1
ENDMDL
MODEL       87
REMARK 921   NORMALIZED FREE ENERGY PREDICTED BY IDOCK:   -4.05 KCAL/MOL
REMARK 922        TOTAL FREE ENERGY PREDICTED BY IDOCK:   -4.59 KCAL/MOL
REMARK 923 INTER-LIGAND FREE ENERGY PREDICTED BY IDOCK:   -4.67 KCAL/MOL
REMARK 924 INTRA-LIGAND FREE ENERGY PREDICTED BY IDOCK:    0.08 KCAL/MOL
REMARK 927      BINDING AFFINITY PREDICTED BY RF-SCORE:    0.00 PKD
ROOT
HETATM    1  C   UNL     1     -12.147  12.872  69.003  1.00  0.00    -0.198 C  
HETATM    2  C   UNL     1     -11.783  12.895  67.550  1.00  0.00    -0.422 A  
HETATM    3  C   UNL     1     -10.995  11.895  66.979  1.00  0.00    -0.278 A  
HETATM    4  N   UNL     1     -11.242  10.557  67.411  1.00  0.00    -0.258 N  
HETATM    5  C   UNL     1     -10.189   9.857  67.952  1.00  0.00    -0.193 C  
HETATM    6  H   UNL     1     -12.166  10.135  67.321  1.00  0.00     0.000 HD 
HETATM    7  C   UNL     1      -9.019   9.557  67.103  1.00  0.00    -0.148 A  
HETATM    8  O   UNL     1     -10.217   9.447  69.105  1.00  0.00    -0.187 OA 
HETATM    9  C   UNL     1      -8.516  10.444  66.155  1.00  0.00    -0.147 A  
HETATM   10  N   UNL     1      -9.359  11.214  65.291  1.00  0.00    -0.220 NA 
HETATM   11  N   UNL     1      -7.189  10.406  65.849  1.00  0.00    -0.131 NA 
HETATM   12  C   UNL     1     -10.411  12.078  65.719  1.00  0.00    -0.254 A  
HETATM   13  C   UNL     1      -6.425   9.417  66.367  1.00  0.00    -0.066 A  
HETATM   14  C   UNL     1     -12.216  13.914  66.716  1.00  0.00    -0.438 A  
HETATM   15  C   UNL     1     -11.771  13.928  65.405  1.00  0.00    -0.340 A  
HETATM   16  C   UNL     1      -6.939   8.352  67.074  1.00  0.00    -0.074 A  
HETATM   17  N   UNL     1     -10.855  13.067  64.913  1.00  0.00    -0.308 NA 
HETATM   18  C   UNL     1      -8.267   8.429  67.456  1.00  0.00    -0.125 A  
ENDROOT
BRANCH  10  19
HETATM   19  C   UNL     1      -9.623  10.532  63.990  1.00  0.00    -0.311 C  
HETATM   20  C   UNL     1      -9.133  11.042  62.668  1.00  0.00    -0.375 C  
HETATM   21  C   UNL     1      -8.550   9.787  63.240  1.00  0.00    -0.200 C  
ENDBRANCH  10  19
TORSDOF 1
ENDMDL
MODEL       88
REMARK 921   NORMALIZED FREE ENERGY PREDICTED BY IDOCK:   -3.99 KCAL/MOL
REMARK 922        TOTAL FREE ENERGY PREDICTED BY IDOCK:   -4.53 KCAL/MOL
REMARK 923 INTER-LIGAND FREE ENERGY PREDICTED BY IDOCK:   -4.33 KCAL/MOL
REMARK 924 INTRA-LIGAND FREE ENERGY PREDICTED BY IDOCK:   -0.20 KCAL/MOL
REMARK 927      BINDING AFFINITY PREDICTED BY RF-SCORE:    0.00 PKD
ROOT
HETATM    1  C   UNL     1     -11.661  12.799  65.769  1.00  0.00    -0.419 C  
HETATM    2  C   UNL     1     -10.849  11.634  65.293  1.00  0.00    -0.340 A  
HETATM    3  C   UNL     1     -10.309  10.707  66.184  1.00  0.00    -0.227 A  
HETATM    4  N   UNL     1     -11.128  10.325  67.290  1.00  0.00    -0.222 N  
HETATM    5  C   UNL     1     -10.623  10.518  68.554  1.00  0.00    -0.206 C  
HETATM    6  H   UNL     1     -12.054   9.922  67.146  1.00  0.00     0.000 HD 
HETATM    7  C   UNL     1      -9.416   9.775  68.963  1.00  0.00    -0.173 A  
HETATM    8  O   UNL     1     -11.173  11.263  69.356  1.00  0.00    -0.244 OA 
HETATM    9  C   UNL     1      -8.353   9.511  68.102  1.00  0.00    -0.118 A  
HETATM   10  N   UNL     1      -8.542   9.108  66.741  1.00  0.00    -0.125 NA 
HETATM   11  N   UNL     1      -7.099   9.379  68.617  1.00  0.00    -0.069 NA 
HETATM   12  C   UNL     1      -9.313   9.813  65.770  1.00  0.00    -0.221 A  
HETATM   13  C   UNL     1      -6.940   9.368  69.960  1.00  0.00    -0.071 A  
HETATM   14  C   UNL     1     -10.602  11.434  63.943  1.00  0.00    -0.452 A  
HETATM   15  C   UNL     1      -9.769  10.391  63.573  1.00  0.00    -0.275 A  
HETATM   16  C   UNL     1      -7.992   9.333  70.848  1.00  0.00    -0.161 A  
HETATM   17  N   UNL     1      -9.095   9.619  64.451  1.00  0.00    -0.243 NA 
HETATM   18  C   UNL     1      -9.259   9.549  70.336  1.00  0.00    -0.305 A  
ENDROOT
BRANCH  10  19
HETATM   19  C   UNL     1      -8.574   7.624  66.582  1.00  0.00    -0.133 C  
HETATM   20  C   UNL     1      -8.442   6.661  67.725  1.00  0.00    -0.122 C  
HETATM   21  C   UNL     1      -9.754   6.794  67.015  1.00  0.00    -0.200 C  
ENDBRANCH  10  19
TORSDOF 1
ENDMDL
MODEL       89
REMARK 921   NORMALIZED FREE ENERGY PREDICTED BY IDOCK:   -3.96 KCAL/MOL
REMARK 922        TOTAL FREE ENERGY PREDICTED BY IDOCK:   -4.50 KCAL/MOL
REMARK 923 INTER-LIGAND FREE ENERGY PREDICTED BY IDOCK:   -4.32 KCAL/MOL
REMARK 924 INTRA-LIGAND FREE ENERGY PREDICTED BY IDOCK:   -0.18 KCAL/MOL
REMARK 927      BINDING AFFINITY PREDICTED BY RF-SCORE:    0.00 PKD
ROOT
HETATM    1  C   UNL     1     -11.134   5.014  73.174  1.00  0.00    -0.395 C  
HETATM    2  C   UNL     1      -9.981   5.366  72.285  1.00  0.00    -0.219 A  
HETATM    3  C   UNL     1      -9.858   6.632  71.713  1.00  0.00    -0.161 A  
HETATM    4  N   UNL     1     -10.212   7.746  72.535  1.00  0.00    -0.237 N  
HETATM    5  C   UNL     1     -11.190   8.594  72.072  1.00  0.00    -0.364 C  
HETATM    6  H   UNL     1      -9.755   7.906  73.432  1.00  0.00     0.000 HD 
HETATM    7  C   UNL     1     -10.945   9.358  70.833  1.00  0.00    -0.391 A  
HETATM    8  O   UNL     1     -12.239   8.756  72.682  1.00  0.00    -0.333 OA 
HETATM    9  C   UNL     1     -10.260   8.838  69.737  1.00  0.00    -0.202 A  
HETATM   10  N   UNL     1      -9.078   8.041  69.871  1.00  0.00    -0.145 NA 
HETATM   11  N   UNL     1     -10.558   9.297  68.490  1.00  0.00    -0.206 NA 
HETATM   12  C   UNL     1      -8.965   6.857  70.658  1.00  0.00    -0.151 A  
HETATM   13  C   UNL     1     -11.406  10.343  68.361  1.00  0.00    -0.227 A  
HETATM   14  C   UNL     1      -8.989   4.441  71.996  1.00  0.00    -0.147 A  
HETATM   15  C   UNL     1      -7.998   4.797  71.096  1.00  0.00    -0.088 A  
HETATM   16  C   UNL     1     -11.877  11.073  69.430  1.00  0.00    -0.407 A  
HETATM   17  N   UNL     1      -7.995   5.953  70.399  1.00  0.00    -0.104 NA 
HETATM   18  C   UNL     1     -11.647  10.563  70.696  1.00  0.00    -0.445 A  
ENDROOT
BRANCH  10  19
HETATM   19  C   UNL     1      -7.828   8.855  69.813  1.00  0.00    -0.090 C  
HETATM   20  C   UNL     1      -7.810  10.338  69.590  1.00  0.00    -0.168 C  
HETATM   21  C   UNL     1      -7.422   9.785  70.926  1.00  0.00     0.159 C  
ENDBRANCH  10  19
TORSDOF 1
ENDMDL
MODEL       90
REMARK 921   NORMALIZED FREE ENERGY PREDICTED BY IDOCK:   -3.90 KCAL/MOL
REMARK 922        TOTAL FREE ENERGY PREDICTED BY IDOCK:   -4.43 KCAL/MOL
REMARK 923 INTER-LIGAND FREE ENERGY PREDICTED BY IDOCK:   -4.79 KCAL/MOL
REMARK 924 INTRA-LIGAND FREE ENERGY PREDICTED BY IDOCK:    0.36 KCAL/MOL
REMARK 927      BINDING AFFINITY PREDICTED BY RF-SCORE:    0.00 PKD
ROOT
HETATM    1  C   UNL     1     -11.072   6.643  68.348  1.00  0.00    -0.281 C  
HETATM    2  C   UNL     1     -10.006   6.899  67.328  1.00  0.00    -0.224 A  
HETATM    3  C   UNL     1      -9.788   8.174  66.803  1.00  0.00    -0.259 A  
HETATM    4  N   UNL     1      -9.879   9.268  67.715  1.00  0.00    -0.164 N  
HETATM    5  C   UNL     1     -10.785  10.263  67.429  1.00  0.00    -0.281 C  
HETATM    6  H   UNL     1      -9.293   9.311  68.549  1.00  0.00     0.000 HD 
HETATM    7  C   UNL     1     -10.600  11.066  66.205  1.00  0.00    -0.295 A  
HETATM    8  O   UNL     1     -11.715  10.519  68.183  1.00  0.00    -0.431 OA 
HETATM    9  C   UNL     1     -10.139  10.533  65.004  1.00  0.00    -0.321 A  
HETATM   10  N   UNL     1      -9.068   9.585  64.938  1.00  0.00    -0.224 NA 
HETATM   11  N   UNL     1     -10.530  11.106  63.831  1.00  0.00    -0.366 NA 
HETATM   12  C   UNL     1      -9.016   8.349  65.648  1.00  0.00    -0.134 A  
HETATM   13  C   UNL     1     -11.239  12.257  63.867  1.00  0.00    -0.421 A  
HETATM   14  C   UNL     1      -9.194   5.876  66.863  1.00  0.00    -0.128 A  
HETATM   15  C   UNL     1      -8.288   6.158  65.855  1.00  0.00    -0.140 A  
HETATM   16  C   UNL     1     -11.465  12.972  65.023  1.00  0.00    -0.345 A  
HETATM   17  N   UNL     1      -8.219   7.346  65.218  1.00  0.00    -0.134 NA 
HETATM   18  C   UNL     1     -11.144  12.357  66.220  1.00  0.00    -0.344 A  
ENDROOT
BRANCH  10  19
HETATM   19  C   UNL     1      -7.738  10.235  64.749  1.00  0.00    -0.119 C  
HETATM   20  C   UNL     1      -6.465   9.474  64.521  1.00  0.00    -0.093 C  
HETATM   21  C   UNL     1      -7.052  10.287  63.409  1.00  0.00    -0.089 C  
ENDBRANCH  10  19
TORSDOF 1
ENDMDL
MODEL       91
REMARK 921   NORMALIZED FREE ENERGY PREDICTED BY IDOCK:   -3.88 KCAL/MOL
REMARK 922        TOTAL FREE ENERGY PREDICTED BY IDOCK:   -4.41 KCAL/MOL
REMARK 923 INTER-LIGAND FREE ENERGY PREDICTED BY IDOCK:   -4.34 KCAL/MOL
REMARK 924 INTRA-LIGAND FREE ENERGY PREDICTED BY IDOCK:   -0.06 KCAL/MOL
REMARK 927      BINDING AFFINITY PREDICTED BY RF-SCORE:    0.00 PKD
ROOT
HETATM    1  C   UNL     1     -11.315  16.338  64.103  1.00  0.00     0.183 C  
HETATM    2  C   UNL     1     -10.706  16.719  65.417  1.00  0.00    -0.201 A  
HETATM    3  C   UNL     1     -10.394  15.761  66.383  1.00  0.00    -0.299 A  
HETATM    4  N   UNL     1      -9.839  14.532  65.913  1.00  0.00    -0.343 N  
HETATM    5  C   UNL     1     -10.499  13.370  66.237  1.00  0.00    -0.289 C  
HETATM    6  H   UNL     1      -8.984  14.517  65.358  1.00  0.00     0.000 HD 
HETATM    7  C   UNL     1     -10.610  12.984  67.657  1.00  0.00    -0.232 A  
HETATM    8  O   UNL     1     -10.961  12.634  65.375  1.00  0.00    -0.276 OA 
HETATM    9  C   UNL     1     -10.807  13.902  68.686  1.00  0.00    -0.262 A  
HETATM   10  N   UNL     1     -10.127  15.161  68.740  1.00  0.00    -0.219 NA 
HETATM   11  N   UNL     1     -11.466  13.506  69.810  1.00  0.00    -0.219 NA 
HETATM   12  C   UNL     1     -10.118  16.140  67.703  1.00  0.00    -0.248 A  
HETATM   13  C   UNL     1     -11.785  12.201  69.958  1.00  0.00    -0.252 A  
HETATM   14  C   UNL     1     -10.430  18.042  65.726  1.00  0.00    -0.202 A  
HETATM   15  C   UNL     1      -9.951  18.339  66.991  1.00  0.00    -0.342 A  
HETATM   16  C   UNL     1     -11.352  11.212  69.102  1.00  0.00    -0.340 A  
HETATM   17  N   UNL     1      -9.836  17.431  67.983  1.00  0.00    -0.276 NA 
HETATM   18  C   UNL     1     -10.756  11.616  67.921  1.00  0.00    -0.241 A  
ENDROOT
BRANCH  10  19
HETATM   19  C   UNL     1      -8.859  15.094  69.525  1.00  0.00    -0.124 C  
HETATM   20  C   UNL     1      -7.714  14.189  69.181  1.00  0.00     0.023 C  
HETATM   21  C   UNL     1      -7.565  15.669  69.012  1.00  0.00    -0.187 C  
ENDBRANCH  10  19
TORSDOF 1
ENDMDL
MODEL       92
REMARK 921   NORMALIZED FREE ENERGY PREDICTED BY IDOCK:   -3.87 KCAL/MOL
REMARK 922        TOTAL FREE ENERGY PREDICTED BY IDOCK:   -4.39 KCAL/MOL
REMARK 923 INTER-LIGAND FREE ENERGY PREDICTED BY IDOCK:   -4.09 KCAL/MOL
REMARK 924 INTRA-LIGAND FREE ENERGY PREDICTED BY IDOCK:   -0.30 KCAL/MOL
REMARK 927      BINDING AFFINITY PREDICTED BY RF-SCORE:    0.00 PKD
ROOT
HETATM    1  C   UNL     1      -9.248   1.596  67.771  1.00  0.00    -0.187 C  
HETATM    2  C   UNL     1      -9.344   2.993  67.240  1.00  0.00    -0.198 A  
HETATM    3  C   UNL     1      -9.505   4.088  68.089  1.00  0.00    -0.158 A  
HETATM    4  N   UNL     1      -8.766   4.069  69.311  1.00  0.00    -0.078 N  
HETATM    5  C   UNL     1      -9.473   4.167  70.486  1.00  0.00    -0.173 C  
HETATM    6  H   UNL     1      -7.749   3.986  69.311  1.00  0.00     0.000 HD 
HETATM    7  C   UNL     1     -10.235   5.401  70.759  1.00  0.00    -0.313 A  
HETATM    8  O   UNL     1      -9.454   3.273  71.322  1.00  0.00    -0.129 OA 
HETATM    9  C   UNL     1     -10.919   6.111  69.775  1.00  0.00    -0.390 A  
HETATM   10  N   UNL     1     -10.375   6.344  68.471  1.00  0.00    -0.177 NA 
HETATM   11  N   UNL     1     -12.023   6.829  70.121  1.00  0.00    -0.276 NA 
HETATM   12  C   UNL     1      -9.898   5.334  67.583  1.00  0.00    -0.155 A  
HETATM   13  C   UNL     1     -12.344   6.949  71.430  1.00  0.00    -0.376 A  
HETATM   14  C   UNL     1      -9.278   3.251  65.879  1.00  0.00    -0.148 A  
HETATM   15  C   UNL     1      -9.464   4.553  65.445  1.00  0.00    -0.172 A  
HETATM   16  C   UNL     1     -11.533   6.508  72.452  1.00  0.00    -0.306 A  
HETATM   17  N   UNL     1      -9.813   5.574  66.257  1.00  0.00    -0.159 NA 
HETATM   18  C   UNL     1     -10.458   5.709  72.108  1.00  0.00    -0.265 A  
ENDROOT
BRANCH  10  19
HETATM   19  C   UNL     1      -9.630   7.634  68.382  1.00  0.00    -0.151 C  
HETATM   20  C   UNL     1      -9.120   8.385  69.576  1.00  0.00    -0.153 C  
HETATM   21  C   UNL     1      -8.150   7.728  68.644  1.00  0.00    -0.127 C  
ENDBRANCH  10  19
TORSDOF 1
ENDMDL
MODEL       93
REMARK 921   NORMALIZED FREE ENERGY PREDICTED BY IDOCK:   -3.86 KCAL/MOL
REMARK 922        TOTAL FREE ENERGY PREDICTED BY IDOCK:   -4.39 KCAL/MOL
REMARK 923 INTER-LIGAND FREE ENERGY PREDICTED BY IDOCK:   -4.81 KCAL/MOL
REMARK 924 INTRA-LIGAND FREE ENERGY PREDICTED BY IDOCK:    0.42 KCAL/MOL
REMARK 927      BINDING AFFINITY PREDICTED BY RF-SCORE:    0.00 PKD
ROOT
HETATM    1  C   UNL     1     -12.530  12.140  70.717  1.00  0.00    -0.362 C  
HETATM    2  C   UNL     1     -11.897  13.351  70.105  1.00  0.00    -0.342 A  
HETATM    3  C   UNL     1     -11.011  13.250  69.032  1.00  0.00    -0.206 A  
HETATM    4  N   UNL     1     -11.331  12.292  68.023  1.00  0.00    -0.270 N  
HETATM    5  C   UNL     1     -10.397  11.320  67.748  1.00  0.00    -0.182 C  
HETATM    6  H   UNL     1     -12.219  12.326  67.524  1.00  0.00     0.000 HD 
HETATM    7  C   UNL     1      -9.087  11.723  67.202  1.00  0.00    -0.175 A  
HETATM    8  O   UNL     1     -10.642  10.132  67.912  1.00  0.00    -0.212 OA 
HETATM    9  C   UNL     1      -8.416  12.878  67.599  1.00  0.00    -0.183 A  
HETATM   10  N   UNL     1      -9.083  14.127  67.807  1.00  0.00    -0.182 NA 
HETATM   11  N   UNL     1      -7.055  12.905  67.546  1.00  0.00    -0.151 NA 
HETATM   12  C   UNL     1     -10.200  14.333  68.670  1.00  0.00    -0.246 A  
HETATM   13  C   UNL     1      -6.399  11.867  66.979  1.00  0.00    -0.141 A  
HETATM   14  C   UNL     1     -12.168  14.624  70.585  1.00  0.00    -0.394 A  
HETATM   15  C   UNL     1     -11.483  15.695  70.038  1.00  0.00    -0.344 A  
HETATM   16  C   UNL     1      -7.035  10.842  66.313  1.00  0.00    -0.134 A  
HETATM   17  N   UNL     1     -10.487  15.568  69.135  1.00  0.00    -0.218 NA 
HETATM   18  C   UNL     1      -8.411  10.765  66.435  1.00  0.00    -0.153 A  
ENDROOT
BRANCH  10  19
HETATM   19  C   UNL     1      -9.094  14.983  66.584  1.00  0.00    -0.280 C  
HETATM   20  C   UNL     1      -9.811  16.297  66.493  1.00  0.00    -0.287 C  
HETATM   21  C   UNL     1      -8.314  16.269  66.495  1.00  0.00    -0.343 C  
ENDBRANCH  10  19
TORSDOF 1
ENDMDL
MODEL       94
REMARK 921   NORMALIZED FREE ENERGY PREDICTED BY IDOCK:   -3.85 KCAL/MOL
REMARK 922        TOTAL FREE ENERGY PREDICTED BY IDOCK:   -4.37 KCAL/MOL
REMARK 923 INTER-LIGAND FREE ENERGY PREDICTED BY IDOCK:   -4.07 KCAL/MOL
REMARK 924 INTRA-LIGAND FREE ENERGY PREDICTED BY IDOCK:   -0.30 KCAL/MOL
REMARK 927      BINDING AFFINITY PREDICTED BY RF-SCORE:    0.00 PKD
ROOT
HETATM    1  C   UNL     1      -8.452   2.235  71.300  1.00  0.00    -0.087 C  
HETATM    2  C   UNL     1      -8.905   2.985  70.085  1.00  0.00    -0.148 A  
HETATM    3  C   UNL     1      -9.377   4.295  70.169  1.00  0.00    -0.158 A  
HETATM    4  N   UNL     1      -8.694   5.169  71.068  1.00  0.00    -0.126 N  
HETATM    5  C   UNL     1      -9.434   5.770  72.060  1.00  0.00    -0.150 C  
HETATM    6  H   UNL     1      -7.692   5.341  70.979  1.00  0.00     0.000 HD 
HETATM    7  C   UNL     1     -10.506   6.709  71.680  1.00  0.00    -0.232 A  
HETATM    8  O   UNL     1      -9.198   5.571  73.245  1.00  0.00    -0.133 OA 
HETATM    9  C   UNL     1     -11.327   6.524  70.570  1.00  0.00    -0.367 A  
HETATM   10  N   UNL     1     -10.830   6.066  69.308  1.00  0.00    -0.329 NA 
HETATM   11  N   UNL     1     -12.593   7.027  70.590  1.00  0.00    -0.171 NA 
HETATM   12  C   UNL     1     -10.075   4.874  69.102  1.00  0.00    -0.159 A  
HETATM   13  C   UNL     1     -12.970   7.813  71.625  1.00  0.00    -0.345 A  
HETATM   14  C   UNL     1      -8.873   2.403  68.827  1.00  0.00    -0.149 A  
HETATM   15  C   UNL     1      -9.389   3.114  67.758  1.00  0.00    -0.203 A  
HETATM   16  C   UNL     1     -12.100   8.259  72.594  1.00  0.00    -0.326 A  
HETATM   17  N   UNL     1     -10.021   4.301  67.879  1.00  0.00    -0.056 NA 
HETATM   18  C   UNL     1     -10.840   7.688  72.626  1.00  0.00    -0.395 A  
ENDROOT
BRANCH  10  19
HETATM   19  C   UNL     1     -10.456   7.188  68.398  1.00  0.00    -0.197 C  
HETATM   20  C   UNL     1     -10.040   8.547  68.878  1.00  0.00    -0.213 C  
HETATM   21  C   UNL     1      -9.032   7.649  68.232  1.00  0.00    -0.127 C  
ENDBRANCH  10  19
TORSDOF 1
ENDMDL
MODEL       95
REMARK 921   NORMALIZED FREE ENERGY PREDICTED BY IDOCK:   -3.84 KCAL/MOL
REMARK 922        TOTAL FREE ENERGY PREDICTED BY IDOCK:   -4.36 KCAL/MOL
REMARK 923 INTER-LIGAND FREE ENERGY PREDICTED BY IDOCK:   -4.51 KCAL/MOL
REMARK 924 INTRA-LIGAND FREE ENERGY PREDICTED BY IDOCK:    0.14 KCAL/MOL
REMARK 927      BINDING AFFINITY PREDICTED BY RF-SCORE:    0.00 PKD
ROOT
HETATM    1  C   UNL     1      -8.100   7.501  65.874  1.00  0.00    -0.127 C  
HETATM    2  C   UNL     1      -9.014   8.516  66.488  1.00  0.00    -0.194 A  
HETATM    3  C   UNL     1      -9.398   8.438  67.827  1.00  0.00    -0.134 A  
HETATM    4  N   UNL     1      -8.395   8.041  68.762  1.00  0.00    -0.126 N  
HETATM    5  C   UNL     1      -8.647   6.933  69.536  1.00  0.00    -0.134 C  
HETATM    6  H   UNL     1      -7.522   8.560  68.852  1.00  0.00     0.000 HD 
HETATM    7  C   UNL     1      -9.773   6.969  70.489  1.00  0.00    -0.178 A  
HETATM    8  O   UNL     1      -7.939   5.936  69.478  1.00  0.00    -0.101 OA 
HETATM    9  C   UNL     1     -10.985   7.601  70.217  1.00  0.00    -0.252 A  
HETATM   10  N   UNL     1     -11.065   8.873  69.566  1.00  0.00    -0.081 NA 
HETATM   11  N   UNL     1     -12.122   7.134  70.804  1.00  0.00    -0.317 NA 
HETATM   12  C   UNL     1     -10.474   9.195  68.307  1.00  0.00    -0.208 A  
HETATM   13  C   UNL     1     -12.026   6.164  71.741  1.00  0.00    -0.164 A  
HETATM   14  C   UNL     1      -9.516   9.575  65.746  1.00  0.00    -0.314 A  
HETATM   15  C   UNL     1     -10.427  10.428  66.345  1.00  0.00    -0.177 A  
HETATM   16  C   UNL     1     -10.826   5.717  72.250  1.00  0.00    -0.298 A  
HETATM   17  N   UNL     1     -10.941  10.232  67.578  1.00  0.00    -0.301 NA 
HETATM   18  C   UNL     1      -9.674   6.125  71.603  1.00  0.00    -0.177 A  
ENDROOT
BRANCH  10  19
HETATM   19  C   UNL     1     -11.098  10.011  70.531  1.00  0.00    -0.331 C  
HETATM   20  C   UNL     1     -12.174  11.055  70.551  1.00  0.00    -0.472 C  
HETATM   21  C   UNL     1     -12.079  10.068  71.673  1.00  0.00    -0.420 C  
ENDBRANCH  10  19
TORSDOF 1
ENDMDL
MODEL       96
REMARK 921   NORMALIZED FREE ENERGY PREDICTED BY IDOCK:   -3.82 KCAL/MOL
REMARK 922        TOTAL FREE ENERGY PREDICTED BY IDOCK:   -4.34 KCAL/MOL
REMARK 923 INTER-LIGAND FREE ENERGY PREDICTED BY IDOCK:   -4.39 KCAL/MOL
REMARK 924 INTRA-LIGAND FREE ENERGY PREDICTED BY IDOCK:    0.05 KCAL/MOL
REMARK 927      BINDING AFFINITY PREDICTED BY RF-SCORE:    0.00 PKD
ROOT
HETATM    1  C   UNL     1     -11.316  10.890  69.841  1.00  0.00    -0.381 C  
HETATM    2  C   UNL     1     -11.611   9.689  70.685  1.00  0.00    -0.371 A  
HETATM    3  C   UNL     1     -10.845   8.526  70.595  1.00  0.00    -0.225 A  
HETATM    4  N   UNL     1      -9.435   8.696  70.444  1.00  0.00    -0.164 N  
HETATM    5  C   UNL     1      -8.838   8.125  69.345  1.00  0.00    -0.143 C  
HETATM    6  H   UNL     1      -8.890   9.221  71.128  1.00  0.00     0.000 HD 
HETATM    7  C   UNL     1      -8.856   6.657  69.204  1.00  0.00    -0.129 A  
HETATM    8  O   UNL     1      -8.262   8.805  68.504  1.00  0.00    -0.115 OA 
HETATM    9  C   UNL     1      -9.942   5.867  69.573  1.00  0.00    -0.185 A  
HETATM   10  N   UNL     1     -10.689   6.091  70.774  1.00  0.00    -0.260 NA 
HETATM   11  N   UNL     1     -10.159   4.691  68.920  1.00  0.00    -0.096 NA 
HETATM   12  C   UNL     1     -11.302   7.324  71.147  1.00  0.00    -0.267 A  
HETATM   13  C   UNL     1      -9.238   4.255  68.031  1.00  0.00    -0.142 A  
HETATM   14  C   UNL     1     -12.662   9.686  71.590  1.00  0.00    -0.499 A  
HETATM   15  C   UNL     1     -12.940   8.515  72.274  1.00  0.00    -0.341 A  
HETATM   16  C   UNL     1      -8.013   4.857  67.852  1.00  0.00    -0.093 A  
HETATM   17  N   UNL     1     -12.317   7.341  72.038  1.00  0.00    -0.289 NA 
HETATM   18  C   UNL     1      -7.821   6.091  68.447  1.00  0.00    -0.106 A  
ENDROOT
BRANCH  10  19
HETATM   19  C   UNL     1     -10.174   5.294  71.926  1.00  0.00    -0.207 C  
HETATM   20  C   UNL     1      -9.697   3.876  71.811  1.00  0.00    -0.243 C  
HETATM   21  C   UNL     1      -8.713   4.969  72.091  1.00  0.00    -0.133 C  
ENDBRANCH  10  19
TORSDOF 1
ENDMDL
MODEL       97
REMARK 921   NORMALIZED FREE ENERGY PREDICTED BY IDOCK:   -3.72 KCAL/MOL
REMARK 922        TOTAL FREE ENERGY PREDICTED BY IDOCK:   -4.24 KCAL/MOL
REMARK 923 INTER-LIGAND FREE ENERGY PREDICTED BY IDOCK:   -4.28 KCAL/MOL
REMARK 924 INTRA-LIGAND FREE ENERGY PREDICTED BY IDOCK:    0.05 KCAL/MOL
REMARK 927      BINDING AFFINITY PREDICTED BY RF-SCORE:    0.00 PKD
ROOT
HETATM    1  C   UNL     1     -13.145  11.180  70.460  1.00  0.00     0.027 C  
HETATM    2  C   UNL     1     -11.706  11.023  70.077  1.00  0.00    -0.437 A  
HETATM    3  C   UNL     1     -10.978  12.076  69.523  1.00  0.00     0.007 A  
HETATM    4  N   UNL     1     -11.210  13.375  70.068  1.00  0.00    -0.477 N  
HETATM    5  C   UNL     1     -11.622  14.364  69.206  1.00  0.00    -0.304 C  
HETATM    6  H   UNL     1     -11.075  13.563  71.062  1.00  0.00     0.000 HD 
HETATM    7  C   UNL     1     -10.717  14.787  68.120  1.00  0.00    -0.247 A  
HETATM    8  O   UNL     1     -12.702  14.924  69.343  1.00  0.00    -0.009 OA 
HETATM    9  C   UNL     1      -9.902  13.903  67.417  1.00  0.00    -0.237 A  
HETATM   10  N   UNL     1      -9.178  12.845  68.053  1.00  0.00    -0.206 NA 
HETATM   11  N   UNL     1      -9.571  14.190  66.127  1.00  0.00    -0.281 NA 
HETATM   12  C   UNL     1      -9.749  11.843  68.893  1.00  0.00     0.058 A  
HETATM   13  C   UNL     1      -9.922  15.389  65.610  1.00  0.00    -0.362 A  
HETATM   14  C   UNL     1     -11.040   9.820  70.259  1.00  0.00    -0.349 A  
HETATM   15  C   UNL     1      -9.738   9.711  69.802  1.00  0.00    -0.224 A  
HETATM   16  C   UNL     1     -10.471  16.406  66.361  1.00  0.00    -0.288 A  
HETATM   17  N   UNL     1      -9.107  10.671  69.093  1.00  0.00    -0.169 NA 
HETATM   18  C   UNL     1     -10.885  16.094  67.643  1.00  0.00    -0.297 A  
ENDROOT
BRANCH  10  19
HETATM   19  C   UNL     1      -7.795  13.249  68.442  1.00  0.00    -0.137 C  
HETATM   20  C   UNL     1      -6.564  12.837  67.690  1.00  0.00    -0.150 C  
HETATM   21  C   UNL     1      -7.006  14.268  67.662  1.00  0.00    -0.202 C  
ENDBRANCH  10  19
TORSDOF 1
ENDMDL
MODEL       98
REMARK 921   NORMALIZED FREE ENERGY PREDICTED BY IDOCK:   -3.70 KCAL/MOL
REMARK 922        TOTAL FREE ENERGY PREDICTED BY IDOCK:   -4.21 KCAL/MOL
REMARK 923 INTER-LIGAND FREE ENERGY PREDICTED BY IDOCK:   -4.28 KCAL/MOL
REMARK 924 INTRA-LIGAND FREE ENERGY PREDICTED BY IDOCK:    0.06 KCAL/MOL
REMARK 927      BINDING AFFINITY PREDICTED BY RF-SCORE:    0.00 PKD
ROOT
HETATM    1  C   UNL     1     -13.183  10.882  71.532  1.00  0.00    -0.420 C  
HETATM    2  C   UNL     1     -12.133  10.949  70.467  1.00  0.00    -0.464 A  
HETATM    3  C   UNL     1     -11.071  10.044  70.429  1.00  0.00    -0.327 A  
HETATM    4  N   UNL     1     -11.372   8.685  70.747  1.00  0.00    -0.263 N  
HETATM    5  C   UNL     1     -10.681   8.105  71.784  1.00  0.00    -0.251 C  
HETATM    6  H   UNL     1     -12.075   8.164  70.223  1.00  0.00     0.000 HD 
HETATM    7  C   UNL     1      -9.220   7.939  71.665  1.00  0.00    -0.180 A  
HETATM    8  O   UNL     1     -11.255   7.691  72.784  1.00  0.00    -0.338 OA 
HETATM    9  C   UNL     1      -8.391   8.880  71.057  1.00  0.00    -0.191 A  
HETATM   10  N   UNL     1      -8.746   9.554  69.845  1.00  0.00    -0.191 NA 
HETATM   11  N   UNL     1      -7.098   8.989  71.470  1.00  0.00    -0.256 NA 
HETATM   12  C   UNL     1      -9.947  10.295  69.632  1.00  0.00    -0.207 A  
HETATM   13  C   UNL     1      -6.614   8.090  72.356  1.00  0.00    -0.075 A  
HETATM   14  C   UNL     1     -12.175  11.917  69.475  1.00  0.00    -0.197 A  
HETATM   15  C   UNL     1     -11.127  11.984  68.572  1.00  0.00    -0.244 A  
HETATM   16  C   UNL     1      -7.311   6.972  72.759  1.00  0.00    -0.077 A  
HETATM   17  N   UNL     1     -10.010  11.231  68.661  1.00  0.00    -0.202 NA 
HETATM   18  C   UNL     1      -8.648   6.900  72.410  1.00  0.00    -0.128 A  
ENDROOT
BRANCH  10  19
HETATM   19  C   UNL     1      -8.241   8.851  68.629  1.00  0.00    -0.116 C  
HETATM   20  C   UNL     1      -6.893   9.103  68.020  1.00  0.00    -0.069 C  
HETATM   21  C   UNL     1      -7.169   7.795  68.696  1.00  0.00    -0.085 C  
ENDBRANCH  10  19
TORSDOF 1
ENDMDL
MODEL       99
REMARK 921   NORMALIZED FREE ENERGY PREDICTED BY IDOCK:   -3.70 KCAL/MOL
REMARK 922        TOTAL FREE ENERGY PREDICTED BY IDOCK:   -4.21 KCAL/MOL
REMARK 923 INTER-LIGAND FREE ENERGY PREDICTED BY IDOCK:   -4.27 KCAL/MOL
REMARK 924 INTRA-LIGAND FREE ENERGY PREDICTED BY IDOCK:    0.06 KCAL/MOL
REMARK 927      BINDING AFFINITY PREDICTED BY RF-SCORE:    0.00 PKD
ROOT
HETATM    1  C   UNL     1      -6.964  12.313  68.962  1.00  0.00    -0.078 C  
HETATM    2  C   UNL     1      -8.078  13.021  68.256  1.00  0.00    -0.151 A  
HETATM    3  C   UNL     1      -8.785  12.417  67.215  1.00  0.00    -0.191 A  
HETATM    4  N   UNL     1      -9.093  11.031  67.367  1.00  0.00    -0.141 N  
HETATM    5  C   UNL     1      -8.648  10.169  66.393  1.00  0.00    -0.130 C  
HETATM    6  H   UNL     1      -9.624  10.693  68.170  1.00  0.00     0.000 HD 
HETATM    7  C   UNL     1      -9.165  10.316  65.019  1.00  0.00    -0.259 A  
HETATM    8  O   UNL     1      -7.864   9.263  66.648  1.00  0.00    -0.102 OA 
HETATM    9  C   UNL     1      -9.423  11.551  64.428  1.00  0.00    -0.080 A  
HETATM   10  N   UNL     1     -10.049  12.629  65.131  1.00  0.00    -0.267 NA 
HETATM   11  N   UNL     1      -9.319  11.673  63.075  1.00  0.00    -0.304 NA 
HETATM   12  C   UNL     1      -9.601  13.178  66.369  1.00  0.00    -0.255 A  
HETATM   13  C   UNL     1      -9.106  10.565  62.330  1.00  0.00    -0.281 A  
HETATM   14  C   UNL     1      -8.449  14.310  68.609  1.00  0.00    -0.142 A  
HETATM   15  C   UNL     1      -9.424  14.945  67.859  1.00  0.00    -0.200 A  
HETATM   16  C   UNL     1      -9.136   9.288  62.846  1.00  0.00    -0.006 A  
HETATM   17  N   UNL     1      -9.965  14.427  66.736  1.00  0.00    -0.256 NA 
HETATM   18  C   UNL     1      -9.158   9.163  64.224  1.00  0.00     0.017 A  
ENDROOT
BRANCH  10  19
HETATM   19  C   UNL     1     -11.532  12.639  64.963  1.00  0.00    -0.329 C  
HETATM   20  C   UNL     1     -12.269  13.643  64.126  1.00  0.00    -0.450 C  
HETATM   21  C   UNL     1     -12.200  12.215  63.681  1.00  0.00    -0.663 C  
ENDBRANCH  10  19
TORSDOF 1
ENDMDL
MODEL      100
REMARK 921   NORMALIZED FREE ENERGY PREDICTED BY IDOCK:   -3.66 KCAL/MOL
REMARK 922        TOTAL FREE ENERGY PREDICTED BY IDOCK:   -4.17 KCAL/MOL
REMARK 923 INTER-LIGAND FREE ENERGY PREDICTED BY IDOCK:   -3.87 KCAL/MOL
REMARK 924 INTRA-LIGAND FREE ENERGY PREDICTED BY IDOCK:   -0.30 KCAL/MOL
REMARK 927      BINDING AFFINITY PREDICTED BY RF-SCORE:    0.00 PKD
ROOT
HETATM    1  C   UNL     1      -6.226  10.330  65.807  1.00  0.00    -0.109 C  
HETATM    2  C   UNL     1      -7.718  10.447  65.818  1.00  0.00    -0.146 A  
HETATM    3  C   UNL     1      -8.455  10.298  66.994  1.00  0.00    -0.129 A  
HETATM    4  N   UNL     1      -7.901  10.874  68.177  1.00  0.00    -0.109 N  
HETATM    5  C   UNL     1      -7.678  10.041  69.248  1.00  0.00    -0.117 C  
HETATM    6  H   UNL     1      -7.678  11.868  68.226  1.00  0.00     0.000 HD 
HETATM    7  C   UNL     1      -8.830   9.384  69.894  1.00  0.00    -0.212 A  
HETATM    8  O   UNL     1      -6.553   9.863  69.698  1.00  0.00    -0.046 OA 
HETATM    9  C   UNL     1      -9.932   8.907  69.187  1.00  0.00    -0.190 A  
HETATM   10  N   UNL     1     -10.530   9.629  68.105  1.00  0.00    -0.210 NA 
HETATM   11  N   UNL     1     -10.632   7.850  69.686  1.00  0.00    -0.237 NA 
HETATM   12  C   UNL     1      -9.841  10.104  66.950  1.00  0.00    -0.195 A  
HETATM   13  C   UNL     1     -10.326   7.383  70.918  1.00  0.00    -0.200 A  
HETATM   14  C   UNL     1      -8.428  10.708  64.656  1.00  0.00    -0.088 A  
HETATM   15  C   UNL     1      -9.811  10.714  64.714  1.00  0.00    -0.310 A  
HETATM   16  C   UNL     1      -9.443   8.010  71.769  1.00  0.00    -0.223 A  
HETATM   17  N   UNL     1     -10.518  10.377  65.813  1.00  0.00    -0.170 NA 
HETATM   18  C   UNL     1      -8.672   9.030  71.240  1.00  0.00    -0.240 A  
ENDROOT
BRANCH  10  19
HETATM   19  C   UNL     1     -11.648  10.510  68.552  1.00  0.00    -0.148 C  
HETATM   20  C   UNL     1     -11.747  11.096  69.930  1.00  0.00    -0.433 C  
HETATM   21  C   UNL     1     -11.470  11.991  68.762  1.00  0.00    -0.355 C  
ENDBRANCH  10  19
TORSDOF 1
ENDMDL
MODEL      101
REMARK 921   NORMALIZED FREE ENERGY PREDICTED BY IDOCK:   -3.66 KCAL/MOL
REMARK 922        TOTAL FREE ENERGY PREDICTED BY IDOCK:   -4.17 KCAL/MOL
REMARK 923 INTER-LIGAND FREE ENERGY PREDICTED BY IDOCK:   -4.27 KCAL/MOL
REMARK 924 INTRA-LIGAND FREE ENERGY PREDICTED BY IDOCK:    0.09 KCAL/MOL
REMARK 927      BINDING AFFINITY PREDICTED BY RF-SCORE:    0.00 PKD
ROOT
HETATM    1  C   UNL     1     -10.750   7.641  67.082  1.00  0.00    -0.361 C  
HETATM    2  C   UNL     1     -10.072   8.936  66.758  1.00  0.00    -0.350 A  
HETATM    3  C   UNL     1     -10.167  10.042  67.603  1.00  0.00    -0.204 A  
HETATM    4  N   UNL     1     -10.107   9.786  69.006  1.00  0.00    -0.178 N  
HETATM    5  C   UNL     1     -11.164  10.210  69.777  1.00  0.00    -0.272 C  
HETATM    6  H   UNL     1      -9.309   9.307  69.422  1.00  0.00     0.000 HD 
HETATM    7  C   UNL     1     -11.445  11.655  69.872  1.00  0.00    -0.308 A  
HETATM    8  O   UNL     1     -11.851   9.419  70.412  1.00  0.00    -0.212 OA 
HETATM    9  C   UNL     1     -11.303  12.533  68.800  1.00  0.00    -0.293 A  
HETATM   10  N   UNL     1     -10.200  12.472  67.890  1.00  0.00    -0.213 NA 
HETATM   11  N   UNL     1     -12.088  13.645  68.746  1.00  0.00    -0.348 NA 
HETATM   12  C   UNL     1      -9.798  11.317  67.156  1.00  0.00    -0.190 A  
HETATM   13  C   UNL     1     -12.880  13.941  69.801  1.00  0.00     0.310 A  
HETATM   14  C   UNL     1      -9.323   9.086  65.600  1.00  0.00    -0.289 A  
HETATM   15  C   UNL     1      -8.796  10.334  65.312  1.00  0.00    -0.180 A  
HETATM   16  C   UNL     1     -12.833  13.261  70.999  1.00  0.00    -0.311 A  
HETATM   17  N   UNL     1      -9.055  11.444  66.034  1.00  0.00    -0.209 NA 
HETATM   18  C   UNL     1     -12.103  12.086  71.031  1.00  0.00    -0.083 A  
ENDROOT
BRANCH  10  19
HETATM   19  C   UNL     1      -9.069  13.356  68.301  1.00  0.00    -0.181 C  
HETATM   20  C   UNL     1      -8.602  14.537  67.502  1.00  0.00    -0.198 C  
HETATM   21  C   UNL     1      -9.287  14.755  68.815  1.00  0.00    -0.198 C  
ENDBRANCH  10  19
TORSDOF 1
ENDMDL
MODEL      102
REMARK 921   NORMALIZED FREE ENERGY PREDICTED BY IDOCK:   -3.66 KCAL/MOL
REMARK 922        TOTAL FREE ENERGY PREDICTED BY IDOCK:   -4.17 KCAL/MOL
REMARK 923 INTER-LIGAND FREE ENERGY PREDICTED BY IDOCK:   -3.87 KCAL/MOL
REMARK 924 INTRA-LIGAND FREE ENERGY PREDICTED BY IDOCK:   -0.30 KCAL/MOL
REMARK 927      BINDING AFFINITY PREDICTED BY RF-SCORE:    0.00 PKD
ROOT
HETATM    1  C   UNL     1      -7.484   8.053  69.431  1.00  0.00    -0.096 C  
HETATM    2  C   UNL     1      -8.569   8.222  68.413  1.00  0.00    -0.133 A  
HETATM    3  C   UNL     1      -8.918   9.479  67.919  1.00  0.00    -0.123 A  
HETATM    4  N   UNL     1      -7.848  10.388  67.662  1.00  0.00    -0.105 N  
HETATM    5  C   UNL     1      -7.876  11.604  68.304  1.00  0.00    -0.136 C  
HETATM    6  H   UNL     1      -7.089  10.145  67.025  1.00  0.00     0.000 HD 
HETATM    7  C   UNL     1      -8.979  12.540  68.013  1.00  0.00    -0.192 A  
HETATM    8  O   UNL     1      -6.991  11.939  69.081  1.00  0.00    -0.105 OA 
HETATM    9  C   UNL     1     -10.291  12.130  67.791  1.00  0.00    -0.206 A  
HETATM   10  N   UNL     1     -10.620  10.981  67.003  1.00  0.00    -0.243 NA 
HETATM   11  N   UNL     1     -11.312  12.974  68.109  1.00  0.00    -0.274 NA 
HETATM   12  C   UNL     1     -10.114   9.663  67.214  1.00  0.00    -0.211 A  
HETATM   13  C   UNL     1     -11.023  14.236  68.498  1.00  0.00    -0.252 A  
HETATM   14  C   UNL     1      -9.271   7.131  67.923  1.00  0.00    -0.129 A  
HETATM   15  C   UNL     1     -10.323   7.361  67.052  1.00  0.00    -0.314 A  
HETATM   16  C   UNL     1      -9.755  14.773  68.450  1.00  0.00    -0.214 A  
HETATM   17  N   UNL     1     -10.778   8.590  66.731  1.00  0.00    -0.161 NA 
HETATM   18  C   UNL     1      -8.708  13.901  68.209  1.00  0.00    -0.183 A  
ENDROOT
BRANCH  10  19
HETATM   19  C   UNL     1     -10.861  11.317  65.569  1.00  0.00    -0.179 C  
HETATM   20  C   UNL     1     -10.393  12.588  64.923  1.00  0.00    -0.323 C  
HETATM   21  C   UNL     1      -9.761  11.285  64.540  1.00  0.00    -0.293 C  
ENDBRANCH  10  19
TORSDOF 1
ENDMDL
MODEL      103
REMARK 921   NORMALIZED FREE ENERGY PREDICTED BY IDOCK:   -3.59 KCAL/MOL
REMARK 922        TOTAL FREE ENERGY PREDICTED BY IDOCK:   -4.10 KCAL/MOL
REMARK 923 INTER-LIGAND FREE ENERGY PREDICTED BY IDOCK:   -4.25 KCAL/MOL
REMARK 924 INTRA-LIGAND FREE ENERGY PREDICTED BY IDOCK:    0.15 KCAL/MOL
REMARK 927      BINDING AFFINITY PREDICTED BY RF-SCORE:    0.00 PKD
ROOT
HETATM    1  C   UNL     1     -11.023  10.413  69.376  1.00  0.00    -0.296 C  
HETATM    2  C   UNL     1     -10.548   9.290  68.507  1.00  0.00    -0.222 A  
HETATM    3  C   UNL     1     -10.527   7.972  68.962  1.00  0.00    -0.199 A  
HETATM    4  N   UNL     1     -11.632   7.550  69.761  1.00  0.00    -0.466 N  
HETATM    5  C   UNL     1     -11.361   7.063  71.019  1.00  0.00    -0.287 C  
HETATM    6  H   UNL     1     -12.589   7.607  69.412  1.00  0.00     0.000 HD 
HETATM    7  C   UNL     1     -10.565   5.828  71.150  1.00  0.00    -0.315 A  
HETATM    8  O   UNL     1     -11.795   7.610  72.025  1.00  0.00    -0.281 OA 
HETATM    9  C   UNL     1      -9.491   5.519  70.319  1.00  0.00    -0.165 A  
HETATM   10  N   UNL     1      -9.518   5.743  68.905  1.00  0.00    -0.122 NA 
HETATM   11  N   UNL     1      -8.478   4.747  70.803  1.00  0.00    -0.100 NA 
HETATM   12  C   UNL     1      -9.807   6.988  68.272  1.00  0.00    -0.144 A  
HETATM   13  C   UNL     1      -8.608   4.187  72.027  1.00  0.00    -0.106 A  
HETATM   14  C   UNL     1     -10.108   9.520  67.212  1.00  0.00    -0.272 A  
HETATM   15  C   UNL     1      -9.596   8.455  66.490  1.00  0.00    -0.236 A  
HETATM   16  C   UNL     1      -9.774   4.227  72.760  1.00  0.00    -0.181 A  
HETATM   17  N   UNL     1      -9.399   7.223  67.006  1.00  0.00    -0.142 NA 
HETATM   18  C   UNL     1     -10.773   5.074  72.313  1.00  0.00    -0.246 A  
ENDROOT
BRANCH  10  19
HETATM   19  C   UNL     1      -9.990   4.549  68.143  1.00  0.00    -0.031 C  
HETATM   20  C   UNL     1      -9.219   3.919  67.021  1.00  0.00    -0.194 C  
HETATM   21  C   UNL     1      -9.371   3.187  68.319  1.00  0.00    -0.246 C  
ENDBRANCH  10  19
TORSDOF 1
ENDMDL
MODEL      104
REMARK 921   NORMALIZED FREE ENERGY PREDICTED BY IDOCK:   -3.58 KCAL/MOL
REMARK 922        TOTAL FREE ENERGY PREDICTED BY IDOCK:   -4.09 KCAL/MOL
REMARK 923 INTER-LIGAND FREE ENERGY PREDICTED BY IDOCK:   -4.18 KCAL/MOL
REMARK 924 INTRA-LIGAND FREE ENERGY PREDICTED BY IDOCK:    0.09 KCAL/MOL
REMARK 927      BINDING AFFINITY PREDICTED BY RF-SCORE:    0.00 PKD
ROOT
HETATM    1  C   UNL     1      -8.528   9.288  62.344  1.00  0.00    -0.207 C  
HETATM    2  C   UNL     1      -9.214  10.029  63.449  1.00  0.00    -0.317 A  
HETATM    3  C   UNL     1      -9.238   9.535  64.755  1.00  0.00    -0.205 A  
HETATM    4  N   UNL     1      -8.040   8.924  65.233  1.00  0.00    -0.119 N  
HETATM    5  C   UNL     1      -8.120   7.625  65.675  1.00  0.00    -0.127 C  
HETATM    6  H   UNL     1      -7.156   9.433  65.246  1.00  0.00     0.000 HD 
HETATM    7  C   UNL     1      -8.956   7.321  66.852  1.00  0.00    -0.148 A  
HETATM    8  O   UNL     1      -7.486   6.725  65.138  1.00  0.00    -0.077 OA 
HETATM    9  C   UNL     1     -10.174   7.947  67.106  1.00  0.00    -0.290 A  
HETATM   10  N   UNL     1     -10.378   9.351  66.912  1.00  0.00    -0.246 NA 
HETATM   11  N   UNL     1     -11.134   7.273  67.799  1.00  0.00    -0.045 NA 
HETATM   12  C   UNL     1     -10.125  10.062  65.702  1.00  0.00    -0.251 A  
HETATM   13  C   UNL     1     -10.830   6.073  68.343  1.00  0.00    -0.281 A  
HETATM   14  C   UNL     1      -9.855  11.236  63.217  1.00  0.00    -0.418 A  
HETATM   15  C   UNL     1     -10.549  11.826  64.260  1.00  0.00    -0.335 A  
HETATM   16  C   UNL     1      -9.555   5.552  68.365  1.00  0.00    -0.155 A  
HETATM   17  N   UNL     1     -10.730  11.247  65.465  1.00  0.00    -0.250 NA 
HETATM   18  C   UNL     1      -8.598   6.188  67.595  1.00  0.00    -0.106 A  
ENDROOT
BRANCH  10  19
HETATM   19  C   UNL     1     -10.119  10.145  68.150  1.00  0.00    -0.152 C  
HETATM   20  C   UNL     1     -10.779   9.870  69.468  1.00  0.00    -0.265 C  
HETATM   21  C   UNL     1      -9.315   9.599  69.301  1.00  0.00    -0.184 C  
ENDBRANCH  10  19
TORSDOF 1
ENDMDL
MODEL      105
REMARK 921   NORMALIZED FREE ENERGY PREDICTED BY IDOCK:   -3.54 KCAL/MOL
REMARK 922        TOTAL FREE ENERGY PREDICTED BY IDOCK:   -4.05 KCAL/MOL
REMARK 923 INTER-LIGAND FREE ENERGY PREDICTED BY IDOCK:   -3.94 KCAL/MOL
REMARK 924 INTRA-LIGAND FREE ENERGY PREDICTED BY IDOCK:   -0.11 KCAL/MOL
REMARK 927      BINDING AFFINITY PREDICTED BY RF-SCORE:    0.00 PKD
ROOT
HETATM    1  C   UNL     1      -8.841  11.110  66.503  1.00  0.00    -0.174 C  
HETATM    2  C   UNL     1      -8.130  10.913  67.806  1.00  0.00    -0.115 A  
HETATM    3  C   UNL     1      -8.502   9.905  68.696  1.00  0.00    -0.114 A  
HETATM    4  N   UNL     1      -8.860   8.645  68.128  1.00  0.00    -0.141 N  
HETATM    5  C   UNL     1     -10.111   8.149  68.414  1.00  0.00    -0.200 C  
HETATM    6  H   UNL     1      -8.212   8.132  67.531  1.00  0.00     0.000 HD 
HETATM    7  C   UNL     1     -10.443   7.814  69.812  1.00  0.00    -0.233 A  
HETATM    8  O   UNL     1     -10.936   7.946  67.533  1.00  0.00    -0.141 OA 
HETATM    9  C   UNL     1     -10.009   8.565  70.902  1.00  0.00    -0.191 A  
HETATM   10  N   UNL     1      -8.682   9.093  70.998  1.00  0.00    -0.237 NA 
HETATM   11  N   UNL     1     -10.769   8.594  72.032  1.00  0.00    -0.337 NA 
HETATM   12  C   UNL     1      -8.048   9.918  70.021  1.00  0.00    -0.177 A  
HETATM   13  C   UNL     1     -11.849   7.785  72.118  1.00  0.00    -0.324 A  
HETATM   14  C   UNL     1      -7.072  11.728  68.179  1.00  0.00    -0.079 A  
HETATM   15  C   UNL     1      -6.515  11.554  69.434  1.00  0.00    -0.111 A  
HETATM   16  C   UNL     1     -12.146   6.817  71.184  1.00  0.00    -0.422 A  
HETATM   17  N   UNL     1      -7.007  10.707  70.364  1.00  0.00    -0.251 NA 
HETATM   18  C   UNL     1     -11.430   6.838  70.000  1.00  0.00    -0.390 A  
ENDROOT
BRANCH  10  19
HETATM   19  C   UNL     1      -7.749   8.173  71.714  1.00  0.00    -0.102 C  
HETATM   20  C   UNL     1      -8.196   6.962  72.477  1.00  0.00    -0.110 C  
HETATM   21  C   UNL     1      -7.429   6.793  71.202  1.00  0.00    -0.087 C  
ENDBRANCH  10  19
TORSDOF 1
ENDMDL
MODEL      106
REMARK 921   NORMALIZED FREE ENERGY PREDICTED BY IDOCK:   -3.53 KCAL/MOL
REMARK 922        TOTAL FREE ENERGY PREDICTED BY IDOCK:   -4.04 KCAL/MOL
REMARK 923 INTER-LIGAND FREE ENERGY PREDICTED BY IDOCK:   -3.75 KCAL/MOL
REMARK 924 INTRA-LIGAND FREE ENERGY PREDICTED BY IDOCK:   -0.29 KCAL/MOL
REMARK 927      BINDING AFFINITY PREDICTED BY RF-SCORE:    0.00 PKD
ROOT
HETATM    1  C   UNL     1      -7.167   2.274  70.680  1.00  0.00    -0.033 C  
HETATM    2  C   UNL     1      -7.732   3.386  71.508  1.00  0.00    -0.056 A  
HETATM    3  C   UNL     1      -8.657   4.290  70.985  1.00  0.00    -0.088 A  
HETATM    4  N   UNL     1      -9.658   3.756  70.118  1.00  0.00    -0.193 N  
HETATM    5  C   UNL     1      -9.748   4.279  68.850  1.00  0.00    -0.125 C  
HETATM    6  H   UNL     1     -10.284   3.013  70.429  1.00  0.00     0.000 HD 
HETATM    7  C   UNL     1     -10.112   5.700  68.687  1.00  0.00    -0.240 A  
HETATM    8  O   UNL     1      -9.570   3.585  67.857  1.00  0.00    -0.190 OA 
HETATM    9  C   UNL     1      -9.673   6.704  69.546  1.00  0.00    -0.149 A  
HETATM   10  N   UNL     1      -9.621   6.539  70.967  1.00  0.00    -0.175 NA 
HETATM   11  N   UNL     1      -9.525   7.970  69.065  1.00  0.00    -0.151 NA 
HETATM   12  C   UNL     1      -8.943   5.488  71.652  1.00  0.00    -0.136 A  
HETATM   13  C   UNL     1      -9.942   8.248  67.809  1.00  0.00    -0.186 A  
HETATM   14  C   UNL     1      -7.354   3.561  72.831  1.00  0.00    -0.058 A  
HETATM   15  C   UNL     1      -7.842   4.661  73.517  1.00  0.00    -0.095 A  
HETATM   16  C   UNL     1     -10.648   7.357  67.031  1.00  0.00    -0.414 A  
HETATM   17  N   UNL     1      -8.580   5.636  72.945  1.00  0.00    -0.122 NA 
HETATM   18  C   UNL     1     -10.728   6.050  67.479  1.00  0.00    -0.383 A  
ENDROOT
BRANCH  10  19
HETATM   19  C   UNL     1     -10.869   7.000  71.644  1.00  0.00    -0.223 C  
HETATM   20  C   UNL     1     -12.234   6.905  71.028  1.00  0.00    -0.427 C  
HETATM   21  C   UNL     1     -11.887   6.037  72.198  1.00  0.00    -0.304 C  
ENDBRANCH  10  19
TORSDOF 1
ENDMDL
MODEL      107
REMARK 921   NORMALIZED FREE ENERGY PREDICTED BY IDOCK:   -3.43 KCAL/MOL
REMARK 922        TOTAL FREE ENERGY PREDICTED BY IDOCK:   -3.93 KCAL/MOL
REMARK 923 INTER-LIGAND FREE ENERGY PREDICTED BY IDOCK:   -3.78 KCAL/MOL
REMARK 924 INTRA-LIGAND FREE ENERGY PREDICTED BY IDOCK:   -0.15 KCAL/MOL
REMARK 927      BINDING AFFINITY PREDICTED BY RF-SCORE:    0.00 PKD
ROOT
HETATM    1  C   UNL     1      -5.838  12.539  70.305  1.00  0.00    -0.159 C  
HETATM    2  C   UNL     1      -6.665  13.314  69.326  1.00  0.00    -0.066 A  
HETATM    3  C   UNL     1      -7.645  12.698  68.547  1.00  0.00    -0.121 A  
HETATM    4  N   UNL     1      -8.438  11.697  69.186  1.00  0.00    -0.358 N  
HETATM    5  C   UNL     1      -8.449  10.440  68.627  1.00  0.00    -0.129 C  
HETATM    6  H   UNL     1      -8.977  11.906  70.026  1.00  0.00     0.000 HD 
HETATM    7  C   UNL     1      -9.003  10.266  67.271  1.00  0.00    -0.140 A  
HETATM    8  O   UNL     1      -8.045   9.462  69.243  1.00  0.00    -0.096 OA 
HETATM    9  C   UNL     1      -8.831  11.199  66.250  1.00  0.00    -0.185 A  
HETATM   10  N   UNL     1      -8.932  12.610  66.467  1.00  0.00    -0.164 NA 
HETATM   11  N   UNL     1      -8.820  10.772  64.957  1.00  0.00    -0.195 NA 
HETATM   12  C   UNL     1      -8.191  13.352  67.435  1.00  0.00    -0.183 A  
HETATM   13  C   UNL     1      -9.116   9.479  64.690  1.00  0.00    -0.210 A  
HETATM   14  C   UNL     1      -6.485  14.678  69.154  1.00  0.00    -0.110 A  
HETATM   15  C   UNL     1      -7.216  15.322  68.170  1.00  0.00    -0.120 A  
HETATM   16  C   UNL     1      -9.576   8.595  65.641  1.00  0.00    -0.032 A  
HETATM   17  N   UNL     1      -8.018  14.684  67.292  1.00  0.00    -0.200 NA 
HETATM   18  C   UNL     1      -9.510   8.997  66.963  1.00  0.00    -0.212 A  
ENDROOT
BRANCH  10  19
HETATM   19  C   UNL     1     -10.310  13.131  66.227  1.00  0.00    -0.287 C  
HETATM   20  C   UNL     1     -11.435  12.294  65.695  1.00  0.00    -0.416 C  
HETATM   21  C   UNL     1     -11.472  12.770  67.114  1.00  0.00    -0.394 C  
ENDBRANCH  10  19
TORSDOF 1
ENDMDL
MODEL      108
REMARK 921   NORMALIZED FREE ENERGY PREDICTED BY IDOCK:   -3.42 KCAL/MOL
REMARK 922        TOTAL FREE ENERGY PREDICTED BY IDOCK:   -3.92 KCAL/MOL
REMARK 923 INTER-LIGAND FREE ENERGY PREDICTED BY IDOCK:   -3.61 KCAL/MOL
REMARK 924 INTRA-LIGAND FREE ENERGY PREDICTED BY IDOCK:   -0.30 KCAL/MOL
REMARK 927      BINDING AFFINITY PREDICTED BY RF-SCORE:    0.00 PKD
ROOT
HETATM    1  C   UNL     1     -12.328  11.508  69.588  1.00  0.00    -0.207 C  
HETATM    2  C   UNL     1     -11.403  10.444  70.092  1.00  0.00    -0.397 A  
HETATM    3  C   UNL     1     -10.350   9.961  69.314  1.00  0.00    -0.219 A  
HETATM    4  N   UNL     1      -9.631  10.920  68.539  1.00  0.00    -0.180 N  
HETATM    5  C   UNL     1      -9.568  10.723  67.179  1.00  0.00    -0.161 C  
HETATM    6  H   UNL     1      -9.180  11.723  68.978  1.00  0.00     0.000 HD 
HETATM    7  C   UNL     1      -8.879   9.525  66.663  1.00  0.00    -0.150 A  
HETATM    8  O   UNL     1     -10.036  11.535  66.392  1.00  0.00    -0.206 OA 
HETATM    9  C   UNL     1      -8.941   8.280  67.285  1.00  0.00    -0.137 A  
HETATM   10  N   UNL     1      -8.858   8.119  68.705  1.00  0.00    -0.134 NA 
HETATM   11  N   UNL     1      -8.822   7.154  66.527  1.00  0.00    -0.136 NA 
HETATM   12  C   UNL     1      -9.691   8.774  69.660  1.00  0.00    -0.173 A  
HETATM   13  C   UNL     1      -8.506   7.274  65.218  1.00  0.00    -0.057 A  
HETATM   14  C   UNL     1     -11.559   9.896  71.357  1.00  0.00    -0.428 A  
HETATM   15  C   UNL     1     -10.729   8.853  71.731  1.00  0.00    -0.362 A  
HETATM   16  C   UNL     1      -8.149   8.468  64.631  1.00  0.00    -0.153 A  
HETATM   17  N   UNL     1      -9.843   8.262  70.901  1.00  0.00    -0.179 NA 
HETATM   18  C   UNL     1      -8.348   9.621  65.370  1.00  0.00    -0.146 A  
ENDROOT
BRANCH  10  19
HETATM   19  C   UNL     1      -7.461   7.886  69.175  1.00  0.00    -0.093 C  
HETATM   20  C   UNL     1      -6.243   8.342  68.426  1.00  0.00    -0.050 C  
HETATM   21  C   UNL     1      -6.602   8.994  69.725  1.00  0.00    -0.045 C  
ENDBRANCH  10  19
TORSDOF 1
ENDMDL
MODEL      109
REMARK 921   NORMALIZED FREE ENERGY PREDICTED BY IDOCK:   -3.40 KCAL/MOL
REMARK 922        TOTAL FREE ENERGY PREDICTED BY IDOCK:   -3.90 KCAL/MOL
REMARK 923 INTER-LIGAND FREE ENERGY PREDICTED BY IDOCK:   -3.74 KCAL/MOL
REMARK 924 INTRA-LIGAND FREE ENERGY PREDICTED BY IDOCK:   -0.15 KCAL/MOL
REMARK 927      BINDING AFFINITY PREDICTED BY RF-SCORE:    0.00 PKD
ROOT
HETATM    1  C   UNL     1     -11.648  13.684  64.454  1.00  0.00    -0.421 C  
HETATM    2  C   UNL     1     -10.790  12.459  64.517  1.00  0.00    -0.358 A  
HETATM    3  C   UNL     1      -9.892  12.248  65.564  1.00  0.00    -0.206 A  
HETATM    4  N   UNL     1     -10.331  12.616  66.872  1.00  0.00    -0.232 N  
HETATM    5  C   UNL     1      -9.569  13.526  67.567  1.00  0.00    -0.221 C  
HETATM    6  H   UNL     1     -11.178  12.219  67.276  1.00  0.00     0.000 HD 
HETATM    7  C   UNL     1      -8.188  13.165  67.938  1.00  0.00    -0.162 A  
HETATM    8  O   UNL     1     -10.023  14.609  67.914  1.00  0.00    -0.218 OA 
HETATM    9  C   UNL     1      -7.343  12.425  67.114  1.00  0.00    -0.081 A  
HETATM   10  N   UNL     1      -7.791  11.286  66.371  1.00  0.00    -0.142 NA 
HETATM   11  N   UNL     1      -5.997  12.616  67.201  1.00  0.00    -0.307 NA 
HETATM   12  C   UNL     1      -8.890  11.274  65.461  1.00  0.00    -0.088 A  
HETATM   13  C   UNL     1      -5.509  13.413  68.178  1.00  0.00    -0.106 A  
HETATM   14  C   UNL     1     -10.855  11.484  63.533  1.00  0.00    -0.473 A  
HETATM   15  C   UNL     1      -9.972  10.420  63.599  1.00  0.00    -0.136 A  
HETATM   16  C   UNL     1      -6.285  13.930  69.192  1.00  0.00    -0.098 A  
HETATM   17  N   UNL     1      -8.977  10.323  64.506  1.00  0.00    -0.200 NA 
HETATM   18  C   UNL     1      -7.657  13.809  69.064  1.00  0.00     0.022 A  
ENDROOT
BRANCH  10  19
HETATM   19  C   UNL     1      -7.603  10.005  67.114  1.00  0.00    -0.092 C  
HETATM   20  C   UNL     1      -8.064   9.785  68.524  1.00  0.00    -0.104 C  
HETATM   21  C   UNL     1      -8.745   9.066  67.401  1.00  0.00    -0.122 C  
ENDBRANCH  10  19
TORSDOF 1
ENDMDL
MODEL      110
REMARK 921   NORMALIZED FREE ENERGY PREDICTED BY IDOCK:   -3.39 KCAL/MOL
REMARK 922        TOTAL FREE ENERGY PREDICTED BY IDOCK:   -3.89 KCAL/MOL
REMARK 923 INTER-LIGAND FREE ENERGY PREDICTED BY IDOCK:   -4.15 KCAL/MOL
REMARK 924 INTRA-LIGAND FREE ENERGY PREDICTED BY IDOCK:    0.27 KCAL/MOL
REMARK 927      BINDING AFFINITY PREDICTED BY RF-SCORE:    0.00 PKD
ROOT
HETATM    1  C   UNL     1      -6.235  13.319  69.696  1.00  0.00    -0.113 C  
HETATM    2  C   UNL     1      -6.852  14.398  68.861  1.00  0.00    -0.102 A  
HETATM    3  C   UNL     1      -8.041  14.192  68.161  1.00  0.00    -0.148 A  
HETATM    4  N   UNL     1      -9.054  13.436  68.825  1.00  0.00    -0.390 N  
HETATM    5  C   UNL     1      -9.516  12.301  68.200  1.00  0.00    -0.213 C  
HETATM    6  H   UNL     1      -9.423  13.727  69.731  1.00  0.00     0.000 HD 
HETATM    7  C   UNL     1     -10.212  12.432  66.905  1.00  0.00    -0.238 A  
HETATM    8  O   UNL     1      -9.395  11.195  68.710  1.00  0.00    -0.181 OA 
HETATM    9  C   UNL     1      -9.840  13.352  65.928  1.00  0.00    -0.238 A  
HETATM   10  N   UNL     1      -9.464  14.699  66.235  1.00  0.00    -0.299 NA 
HETATM   11  N   UNL     1     -10.078  13.061  64.618  1.00  0.00    -0.276 NA 
HETATM   12  C   UNL     1      -8.443  15.081  67.156  1.00  0.00    -0.218 A  
HETATM   13  C   UNL     1     -10.794  11.956  64.312  1.00  0.00    -0.344 A  
HETATM   14  C   UNL     1      -6.260  15.647  68.749  1.00  0.00    -0.103 A  
HETATM   15  C   UNL     1      -6.829  16.573  67.891  1.00  0.00    -0.139 A  
HETATM   16  C   UNL     1     -11.429  11.178  65.255  1.00  0.00     0.246 A  
HETATM   17  N   UNL     1      -7.866  16.299  67.072  1.00  0.00    -0.193 NA 
HETATM   18  C   UNL     1     -11.123  11.418  66.583  1.00  0.00    -0.333 A  
ENDROOT
BRANCH  10  19
HETATM   19  C   UNL     1     -10.617  15.644  66.179  1.00  0.00    -0.320 C  
HETATM   20  C   UNL     1     -10.495  17.084  65.778  1.00  0.00    -0.261 C  
HETATM   21  C   UNL     1     -11.204  16.122  64.877  1.00  0.00    -0.292 C  
ENDBRANCH  10  19
TORSDOF 1
ENDMDL
MODEL      111
REMARK 921   NORMALIZED FREE ENERGY PREDICTED BY IDOCK:   -3.39 KCAL/MOL
REMARK 922        TOTAL FREE ENERGY PREDICTED BY IDOCK:   -3.88 KCAL/MOL
REMARK 923 INTER-LIGAND FREE ENERGY PREDICTED BY IDOCK:   -3.91 KCAL/MOL
REMARK 924 INTRA-LIGAND FREE ENERGY PREDICTED BY IDOCK:    0.03 KCAL/MOL
REMARK 927      BINDING AFFINITY PREDICTED BY RF-SCORE:    0.00 PKD
ROOT
HETATM    1  C   UNL     1     -10.798  14.229  65.057  1.00  0.00    -0.414 C  
HETATM    2  C   UNL     1      -9.699  14.104  66.066  1.00  0.00    -0.297 A  
HETATM    3  C   UNL     1      -9.187  12.860  66.438  1.00  0.00    -0.137 A  
HETATM    4  N   UNL     1      -9.021  11.896  65.397  1.00  0.00    -0.407 N  
HETATM    5  C   UNL     1      -9.667  10.690  65.536  1.00  0.00    -0.237 C  
HETATM    6  H   UNL     1      -8.444  12.095  64.580  1.00  0.00     0.000 HD 
HETATM    7  C   UNL     1      -9.296   9.807  66.658  1.00  0.00    -0.200 A  
HETATM    8  O   UNL     1     -10.513  10.321  64.732  1.00  0.00    -0.200 OA 
HETATM    9  C   UNL     1      -8.969  10.279  67.927  1.00  0.00    -0.131 A  
HETATM   10  N   UNL     1      -8.150  11.435  68.135  1.00  0.00    -0.130 NA 
HETATM   11  N   UNL     1      -9.211   9.490  69.011  1.00  0.00    -0.150 NA 
HETATM   12  C   UNL     1      -8.392  12.728  67.583  1.00  0.00    -0.175 A  
HETATM   13  C   UNL     1      -9.630   8.218  68.816  1.00  0.00    -0.150 A  
HETATM   14  C   UNL     1      -9.148  15.222  66.673  1.00  0.00    -0.312 A  
HETATM   15  C   UNL     1      -8.199  15.036  67.663  1.00  0.00    -0.168 A  
HETATM   16  C   UNL     1      -9.685   7.620  67.577  1.00  0.00    -0.197 A  
HETATM   17  N   UNL     1      -7.851  13.827  68.152  1.00  0.00    -0.136 NA 
HETATM   18  C   UNL     1      -9.521   8.437  66.472  1.00  0.00    -0.284 A  
ENDROOT
BRANCH  10  19
HETATM   19  C   UNL     1      -6.704  11.095  68.279  1.00  0.00    -0.059 C  
HETATM   20  C   UNL     1      -5.860  10.554  67.163  1.00  0.00    -0.050 C  
HETATM   21  C   UNL     1      -5.615  11.941  67.673  1.00  0.00    -0.075 C  
ENDBRANCH  10  19
TORSDOF 1
ENDMDL
MODEL      112
REMARK 921   NORMALIZED FREE ENERGY PREDICTED BY IDOCK:   -3.34 KCAL/MOL
REMARK 922        TOTAL FREE ENERGY PREDICTED BY IDOCK:   -3.84 KCAL/MOL
REMARK 923 INTER-LIGAND FREE ENERGY PREDICTED BY IDOCK:   -3.68 KCAL/MOL
REMARK 924 INTRA-LIGAND FREE ENERGY PREDICTED BY IDOCK:   -0.16 KCAL/MOL
REMARK 927      BINDING AFFINITY PREDICTED BY RF-SCORE:    0.00 PKD
ROOT
HETATM    1  C   UNL     1      -9.013   5.518  65.890  1.00  0.00    -0.158 C  
HETATM    2  C   UNL     1      -9.712   6.165  67.046  1.00  0.00    -0.167 A  
HETATM    3  C   UNL     1      -9.652   7.542  67.259  1.00  0.00    -0.156 A  
HETATM    4  N   UNL     1      -9.728   8.375  66.102  1.00  0.00    -0.425 N  
HETATM    5  C   UNL     1      -8.691   9.251  65.878  1.00  0.00    -0.154 C  
HETATM    6  H   UNL     1     -10.522   8.323  65.464  1.00  0.00     0.000 HD 
HETATM    7  C   UNL     1      -8.441  10.327  66.856  1.00  0.00    -0.126 A  
HETATM    8  O   UNL     1      -7.998   9.179  64.871  1.00  0.00    -0.112 OA 
HETATM    9  C   UNL     1      -8.584  10.158  68.231  1.00  0.00    -0.116 A  
HETATM   10  N   UNL     1      -9.673   9.433  68.812  1.00  0.00    -0.154 NA 
HETATM   11  N   UNL     1      -7.822  10.909  69.074  1.00  0.00    -0.141 NA 
HETATM   12  C   UNL     1     -10.041   8.093  68.486  1.00  0.00    -0.200 A  
HETATM   13  C   UNL     1      -7.051  11.894  68.560  1.00  0.00    -0.089 A  
HETATM   14  C   UNL     1     -10.447   5.415  67.952  1.00  0.00    -0.202 A  
HETATM   15  C   UNL     1     -10.994   6.057  69.050  1.00  0.00    -0.339 A  
HETATM   16  C   UNL     1      -7.102  12.286  67.240  1.00  0.00    -0.138 A  
HETATM   17  N   UNL     1     -10.769   7.354  69.351  1.00  0.00    -0.231 NA 
HETATM   18  C   UNL     1      -7.809  11.477  66.367  1.00  0.00    -0.020 A  
ENDROOT
BRANCH  10  19
HETATM   19  C   UNL     1     -10.828  10.312  69.161  1.00  0.00    -0.233 C  
HETATM   20  C   UNL     1     -10.813  11.805  69.008  1.00  0.00    -0.239 C  
HETATM   21  C   UNL     1     -11.679  10.976  68.110  1.00  0.00    -0.277 C  
ENDBRANCH  10  19
TORSDOF 1
ENDMDL
MODEL      113
REMARK 921   NORMALIZED FREE ENERGY PREDICTED BY IDOCK:   -3.30 KCAL/MOL
REMARK 922        TOTAL FREE ENERGY PREDICTED BY IDOCK:   -3.79 KCAL/MOL
REMARK 923 INTER-LIGAND FREE ENERGY PREDICTED BY IDOCK:   -3.64 KCAL/MOL
REMARK 924 INTRA-LIGAND FREE ENERGY PREDICTED BY IDOCK:   -0.16 KCAL/MOL
REMARK 927      BINDING AFFINITY PREDICTED BY RF-SCORE:    0.00 PKD
ROOT
HETATM    1  C   UNL     1     -11.374  13.891  66.830  1.00  0.00    -0.347 C  
HETATM    2  C   UNL     1     -10.551  15.043  67.318  1.00  0.00    -0.279 A  
HETATM    3  C   UNL     1      -9.227  14.874  67.726  1.00  0.00    -0.186 A  
HETATM    4  N   UNL     1      -8.425  13.982  66.953  1.00  0.00    -0.404 N  
HETATM    5  C   UNL     1      -7.840  12.923  67.606  1.00  0.00    -0.168 C  
HETATM    6  H   UNL     1      -8.292  14.124  65.952  1.00  0.00     0.000 HD 
HETATM    7  C   UNL     1      -6.839  13.196  68.655  1.00  0.00    -0.099 A  
HETATM    8  O   UNL     1      -8.102  11.764  67.311  1.00  0.00    -0.148 OA 
HETATM    9  C   UNL     1      -6.939  14.261  69.548  1.00  0.00    -0.083 A  
HETATM   10  N   UNL     1      -7.360  15.570  69.146  1.00  0.00    -0.161 NA 
HETATM   11  N   UNL     1      -6.384  14.143  70.786  1.00  0.00    -0.097 NA 
HETATM   12  C   UNL     1      -8.572  15.872  68.459  1.00  0.00    -0.190 A  
HETATM   13  C   UNL     1      -5.632  13.055  71.067  1.00  0.00    -0.158 A  
HETATM   14  C   UNL     1     -11.076  16.325  67.386  1.00  0.00    -0.095 A  
HETATM   15  C   UNL     1     -10.296  17.330  67.932  1.00  0.00    -0.360 A  
HETATM   16  C   UNL     1      -5.267  12.122  70.122  1.00  0.00    -0.097 A  
HETATM   17  N   UNL     1      -9.090  17.119  68.502  1.00  0.00    -0.259 NA 
HETATM   18  C   UNL     1      -5.892  12.191  68.890  1.00  0.00    -0.061 A  
ENDROOT
BRANCH  10  19
HETATM   19  C   UNL     1      -6.214  16.452  68.776  1.00  0.00    -0.132 C  
HETATM   20  C   UNL     1      -5.132  16.053  67.817  1.00  0.00    -0.142 C  
HETATM   21  C   UNL     1      -6.113  17.115  67.428  1.00  0.00    -0.172 C  
ENDBRANCH  10  19
TORSDOF 1
ENDMDL
MODEL      114
REMARK 921   NORMALIZED FREE ENERGY PREDICTED BY IDOCK:   -3.22 KCAL/MOL
REMARK 922        TOTAL FREE ENERGY PREDICTED BY IDOCK:   -3.71 KCAL/MOL
REMARK 923 INTER-LIGAND FREE ENERGY PREDICTED BY IDOCK:   -3.91 KCAL/MOL
REMARK 924 INTRA-LIGAND FREE ENERGY PREDICTED BY IDOCK:    0.20 KCAL/MOL
REMARK 927      BINDING AFFINITY PREDICTED BY RF-SCORE:    0.00 PKD
ROOT
HETATM    1  C   UNL     1     -11.153  17.248  65.704  1.00  0.00     0.306 C  
HETATM    2  C   UNL     1     -10.250  18.314  66.242  1.00  0.00    -0.414 A  
HETATM    3  C   UNL     1      -8.986  18.013  66.752  1.00  0.00    -0.269 A  
HETATM    4  N   UNL     1      -8.229  17.025  66.053  1.00  0.00    -0.236 N  
HETATM    5  C   UNL     1      -7.812  15.923  66.761  1.00  0.00    -0.238 C  
HETATM    6  H   UNL     1      -8.006  17.132  65.064  1.00  0.00     0.000 HD 
HETATM    7  C   UNL     1      -6.870  16.109  67.882  1.00  0.00    -0.153 A  
HETATM    8  O   UNL     1      -8.175  14.793  66.461  1.00  0.00    -0.001 OA 
HETATM    9  C   UNL     1      -6.921  17.196  68.751  1.00  0.00    -0.217 A  
HETATM   10  N   UNL     1      -7.167  18.533  68.303  1.00  0.00    -0.255 NA 
HETATM   11  N   UNL     1      -6.477  17.044  70.030  1.00  0.00     0.023 NA 
HETATM   12  C   UNL     1      -8.284  18.950  67.521  1.00  0.00    -0.268 A  
HETATM   13  C   UNL     1      -5.870  15.888  70.380  1.00  0.00    -0.071 A  
HETATM   14  C   UNL     1     -10.637  19.646  66.254  1.00  0.00    -0.585 A  
HETATM   15  C   UNL     1      -9.796  20.572  66.846  1.00  0.00    -0.366 A  
HETATM   16  C   UNL     1      -5.537  14.902  69.477  1.00  0.00    -0.097 A  
HETATM   17  N   UNL     1      -8.667  20.246  67.509  1.00  0.00    -0.334 NA 
HETATM   18  C   UNL     1      -6.057  15.013  68.200  1.00  0.00    -0.144 A  
ENDROOT
BRANCH  10  19
HETATM   19  C   UNL     1      -5.908  19.281  68.012  1.00  0.00    -0.203 C  
HETATM   20  C   UNL     1      -5.176  19.202  66.705  1.00  0.00    -0.161 C  
HETATM   21  C   UNL     1      -5.874  20.470  67.088  1.00  0.00    -0.226 C  
ENDBRANCH  10  19
TORSDOF 1
ENDMDL
MODEL      115
REMARK 921   NORMALIZED FREE ENERGY PREDICTED BY IDOCK:   -3.18 KCAL/MOL
REMARK 922        TOTAL FREE ENERGY PREDICTED BY IDOCK:   -3.66 KCAL/MOL
REMARK 923 INTER-LIGAND FREE ENERGY PREDICTED BY IDOCK:   -3.98 KCAL/MOL
REMARK 924 INTRA-LIGAND FREE ENERGY PREDICTED BY IDOCK:    0.32 KCAL/MOL
REMARK 927      BINDING AFFINITY PREDICTED BY RF-SCORE:    0.00 PKD
ROOT
HETATM    1  C   UNL     1     -13.463   7.406  71.706  1.00  0.00    -0.383 C  
HETATM    2  C   UNL     1     -12.069   6.869  71.800  1.00  0.00    -0.385 A  
HETATM    3  C   UNL     1     -10.973   7.591  71.326  1.00  0.00    -0.242 A  
HETATM    4  N   UNL     1     -10.981   8.999  71.561  1.00  0.00    -0.321 N  
HETATM    5  C   UNL     1     -10.887   9.829  70.468  1.00  0.00    -0.323 C  
HETATM    6  H   UNL     1     -11.054   9.376  72.506  1.00  0.00     0.000 HD 
HETATM    7  C   UNL     1      -9.661   9.792  69.648  1.00  0.00    -0.242 A  
HETATM    8  O   UNL     1     -11.779  10.618  70.185  1.00  0.00    -0.276 OA 
HETATM    9  C   UNL     1      -8.961   8.620  69.372  1.00  0.00    -0.145 A  
HETATM   10  N   UNL     1      -8.726   7.608  70.357  1.00  0.00    -0.142 NA 
HETATM   11  N   UNL     1      -8.254   8.529  68.211  1.00  0.00    -0.122 NA 
HETATM   12  C   UNL     1      -9.734   6.967  71.138  1.00  0.00    -0.172 A  
HETATM   13  C   UNL     1      -8.134   9.625  67.428  1.00  0.00    -0.110 A  
HETATM   14  C   UNL     1     -11.814   5.627  72.363  1.00  0.00    -0.181 A  
HETATM   15  C   UNL     1     -10.516   5.146  72.339  1.00  0.00    -0.216 A  
HETATM   16  C   UNL     1      -8.563  10.878  67.806  1.00  0.00    -0.128 A  
HETATM   17  N   UNL     1      -9.497   5.764  71.705  1.00  0.00    -0.148 NA 
HETATM   18  C   UNL     1      -9.352  10.961  68.940  1.00  0.00    -0.169 A  
ENDROOT
BRANCH  10  19
HETATM   19  C   UNL     1      -7.429   7.793  71.070  1.00  0.00    -0.074 C  
HETATM   20  C   UNL     1      -7.301   8.462  72.407  1.00  0.00    -0.126 C  
HETATM   21  C   UNL     1      -7.060   6.989  72.290  1.00  0.00    -0.072 C  
ENDBRANCH  10  19
TORSDOF 1
ENDMDL
MODEL      116
REMARK 921   NORMALIZED FREE ENERGY PREDICTED BY IDOCK:   -3.16 KCAL/MOL
REMARK 922        TOTAL FREE ENERGY PREDICTED BY IDOCK:   -3.65 KCAL/MOL
REMARK 923 INTER-LIGAND FREE ENERGY PREDICTED BY IDOCK:   -3.60 KCAL/MOL
REMARK 924 INTRA-LIGAND FREE ENERGY PREDICTED BY IDOCK:   -0.05 KCAL/MOL
REMARK 927      BINDING AFFINITY PREDICTED BY RF-SCORE:    0.00 PKD
ROOT
HETATM    1  C   UNL     1      -5.381   8.595  70.493  1.00  0.00    -0.021 C  
HETATM    2  C   UNL     1      -6.344   7.708  69.766  1.00  0.00    -0.031 A  
HETATM    3  C   UNL     1      -7.536   7.286  70.354  1.00  0.00    -0.088 A  
HETATM    4  N   UNL     1      -8.241   8.247  71.140  1.00  0.00    -0.110 N  
HETATM    5  C   UNL     1      -8.504   7.929  72.452  1.00  0.00    -0.141 C  
HETATM    6  H   UNL     1      -8.539   9.138  70.743  1.00  0.00     0.000 HD 
HETATM    7  C   UNL     1      -9.383   6.781  72.746  1.00  0.00    -0.150 A  
HETATM    8  O   UNL     1      -8.056   8.597  73.375  1.00  0.00    -0.411 OA 
HETATM    9  C   UNL     1      -9.377   5.604  72.001  1.00  0.00    -0.150 A  
HETATM   10  N   UNL     1      -9.290   5.593  70.572  1.00  0.00    -0.158 NA 
HETATM   11  N   UNL     1      -9.719   4.434  72.609  1.00  0.00    -0.144 NA 
HETATM   12  C   UNL     1      -8.271   6.229  69.802  1.00  0.00    -0.125 A  
HETATM   13  C   UNL     1     -10.190   4.465  73.876  1.00  0.00    -0.185 A  
HETATM   14  C   UNL     1      -6.084   7.269  68.476  1.00  0.00    -0.027 A  
HETATM   15  C   UNL     1      -6.968   6.378  67.891  1.00  0.00    -0.076 A  
HETATM   16  C   UNL     1     -10.487   5.632  74.546  1.00  0.00    -0.162 A  
HETATM   17  N   UNL     1      -8.015   5.824  68.539  1.00  0.00    -0.100 NA 
HETATM   18  C   UNL     1     -10.066   6.817  73.969  1.00  0.00    -0.389 A  
ENDROOT
BRANCH  10  19
HETATM   19  C   UNL     1     -10.631   5.581  69.916  1.00  0.00    -0.317 C  
HETATM   20  C   UNL     1     -11.651   6.667  70.086  1.00  0.00    -0.446 C  
HETATM   21  C   UNL     1     -10.970   6.491  68.764  1.00  0.00    -0.371 C  
ENDBRANCH  10  19
TORSDOF 1
ENDMDL
MODEL      117
REMARK 921   NORMALIZED FREE ENERGY PREDICTED BY IDOCK:   -3.12 KCAL/MOL
REMARK 922        TOTAL FREE ENERGY PREDICTED BY IDOCK:   -3.60 KCAL/MOL
REMARK 923 INTER-LIGAND FREE ENERGY PREDICTED BY IDOCK:   -3.30 KCAL/MOL
REMARK 924 INTRA-LIGAND FREE ENERGY PREDICTED BY IDOCK:   -0.30 KCAL/MOL
REMARK 927      BINDING AFFINITY PREDICTED BY RF-SCORE:    0.00 PKD
ROOT
HETATM    1  C   UNL     1      -5.987   8.486  71.665  1.00  0.00    -0.048 C  
HETATM    2  C   UNL     1      -7.371   7.918  71.604  1.00  0.00    -0.070 A  
HETATM    3  C   UNL     1      -8.087   7.864  70.407  1.00  0.00    -0.114 A  
HETATM    4  N   UNL     1      -7.352   7.514  69.234  1.00  0.00    -0.086 N  
HETATM    5  C   UNL     1      -7.367   8.402  68.183  1.00  0.00    -0.096 C  
HETATM    6  H   UNL     1      -6.834   6.638  69.176  1.00  0.00     0.000 HD 
HETATM    7  C   UNL     1      -8.648   8.691  67.511  1.00  0.00    -0.135 A  
HETATM    8  O   UNL     1      -6.339   8.927  67.774  1.00  0.00    -0.055 OA 
HETATM    9  C   UNL     1      -9.861   8.790  68.188  1.00  0.00    -0.168 A  
HETATM   10  N   UNL     1     -10.237   7.894  69.239  1.00  0.00    -0.211 NA 
HETATM   11  N   UNL     1     -10.838   9.595  67.684  1.00  0.00    -0.265 NA 
HETATM   12  C   UNL     1      -9.466   7.623  70.409  1.00  0.00    -0.164 A  
HETATM   13  C   UNL     1     -10.658  10.163  66.470  1.00  0.00    -0.109 A  
HETATM   14  C   UNL     1      -7.997   7.423  72.738  1.00  0.00    -0.118 A  
HETATM   15  C   UNL     1      -9.310   6.995  72.634  1.00  0.00    -0.138 A  
HETATM   16  C   UNL     1      -9.603   9.858  65.639  1.00  0.00    -0.320 A  
HETATM   17  N   UNL     1     -10.057   7.127  71.518  1.00  0.00    -0.187 NA 
HETATM   18  C   UNL     1      -8.570   9.110  66.176  1.00  0.00    -0.149 A  
ENDROOT
BRANCH  10  19
HETATM   19  C   UNL     1     -11.019   6.723  68.742  1.00  0.00    -0.209 C  
HETATM   20  C   UNL     1     -10.844   6.123  67.378  1.00  0.00    -0.431 C  
HETATM   21  C   UNL     1     -10.409   5.355  68.588  1.00  0.00    -0.229 C  
ENDBRANCH  10  19
TORSDOF 1
ENDMDL
MODEL      118
REMARK 921   NORMALIZED FREE ENERGY PREDICTED BY IDOCK:   -3.11 KCAL/MOL
REMARK 922        TOTAL FREE ENERGY PREDICTED BY IDOCK:   -3.59 KCAL/MOL
REMARK 923 INTER-LIGAND FREE ENERGY PREDICTED BY IDOCK:   -3.65 KCAL/MOL
REMARK 924 INTRA-LIGAND FREE ENERGY PREDICTED BY IDOCK:    0.06 KCAL/MOL
REMARK 927      BINDING AFFINITY PREDICTED BY RF-SCORE:    0.00 PKD
ROOT
HETATM    1  C   UNL     1     -10.833   5.956  70.331  1.00  0.00    -0.378 C  
HETATM    2  C   UNL     1      -9.667   6.266  69.444  1.00  0.00    -0.162 A  
HETATM    3  C   UNL     1      -9.498   7.528  68.873  1.00  0.00    -0.145 A  
HETATM    4  N   UNL     1      -9.812   8.653  69.694  1.00  0.00    -0.183 N  
HETATM    5  C   UNL     1     -10.758   9.536  69.230  1.00  0.00    -0.222 C  
HETATM    6  H   UNL     1      -9.351   8.796  70.593  1.00  0.00     0.000 HD 
HETATM    7  C   UNL     1     -10.483  10.291  67.992  1.00  0.00    -0.234 A  
HETATM    8  O   UNL     1     -11.801   9.736  69.839  1.00  0.00    -0.103 OA 
HETATM    9  C   UNL     1      -9.816   9.747  66.897  1.00  0.00    -0.201 A  
HETATM   10  N   UNL     1      -8.664   8.908  67.032  1.00  0.00    -0.122 NA 
HETATM   11  N   UNL     1     -10.095  10.218  65.650  1.00  0.00    -0.281 NA 
HETATM   12  C   UNL     1      -8.595   7.720  67.819  1.00  0.00    -0.121 A  
HETATM   13  C   UNL     1     -10.905  11.293  65.520  1.00  0.00    -0.179 A  
HETATM   14  C   UNL     1      -8.709   5.306  69.155  1.00  0.00    -0.106 A  
HETATM   15  C   UNL     1      -7.704   5.626  68.257  1.00  0.00    -0.089 A  
HETATM   16  C   UNL     1     -11.351  12.039  66.589  1.00  0.00    -0.399 A  
HETATM   17  N   UNL     1      -7.658   6.782  67.561  1.00  0.00    -0.103 NA 
HETATM   18  C   UNL     1     -11.141  11.521  67.854  1.00  0.00    -0.317 A  
ENDROOT
BRANCH  10  19
HETATM   19  C   UNL     1      -7.385   9.676  66.977  1.00  0.00    -0.087 C  
HETATM   20  C   UNL     1      -6.636   9.957  65.708  1.00  0.00    -0.094 C  
HETATM   21  C   UNL     1      -7.313  11.079  66.433  1.00  0.00    -0.128 C  
ENDBRANCH  10  19
TORSDOF 1
ENDMDL
MODEL      119
REMARK 921   NORMALIZED FREE ENERGY PREDICTED BY IDOCK:   -3.10 KCAL/MOL
REMARK 922        TOTAL FREE ENERGY PREDICTED BY IDOCK:   -3.58 KCAL/MOL
REMARK 923 INTER-LIGAND FREE ENERGY PREDICTED BY IDOCK:   -3.90 KCAL/MOL
REMARK 924 INTRA-LIGAND FREE ENERGY PREDICTED BY IDOCK:    0.31 KCAL/MOL
REMARK 927      BINDING AFFINITY PREDICTED BY RF-SCORE:    0.00 PKD
ROOT
HETATM    1  C   UNL     1      -6.343  12.571  67.359  1.00  0.00    -0.157 C  
HETATM    2  C   UNL     1      -6.755  11.131  67.368  1.00  0.00    -0.084 A  
HETATM    3  C   UNL     1      -8.058  10.746  67.684  1.00  0.00    -0.114 A  
HETATM    4  N   UNL     1      -9.112  11.562  67.173  1.00  0.00    -0.164 N  
HETATM    5  C   UNL     1      -9.991  12.109  68.078  1.00  0.00    -0.203 C  
HETATM    6  H   UNL     1      -9.209  11.733  66.172  1.00  0.00     0.000 HD 
HETATM    7  C   UNL     1     -10.838  11.209  68.884  1.00  0.00    -0.261 A  
HETATM    8  O   UNL     1     -10.110  13.321  68.202  1.00  0.00    -0.228 OA 
HETATM    9  C   UNL     1     -10.395   9.988  69.385  1.00  0.00    -0.227 A  
HETATM   10  N   UNL     1      -9.590   9.083  68.621  1.00  0.00    -0.151 NA 
HETATM   11  N   UNL     1     -10.939   9.507  70.538  1.00  0.00    -0.264 NA 
HETATM   12  C   UNL     1      -8.355   9.411  67.987  1.00  0.00    -0.119 A  
HETATM   13  C   UNL     1     -11.991  10.156  71.087  1.00  0.00    -0.386 A  
HETATM   14  C   UNL     1      -5.852  10.124  67.063  1.00  0.00    -0.050 A  
HETATM   15  C   UNL     1      -6.269   8.808  67.177  1.00  0.00    -0.059 A  
HETATM   16  C   UNL     1     -12.646  11.198  70.468  1.00  0.00    -0.360 A  
HETATM   17  N   UNL     1      -7.470   8.440  67.670  1.00  0.00    -0.093 NA 
HETATM   18  C   UNL     1     -12.050  11.742  69.344  1.00  0.00    -0.301 A  
ENDROOT
BRANCH  10  19
HETATM   19  C   UNL     1     -10.406   8.077  67.879  1.00  0.00    -0.222 C  
HETATM   20  C   UNL     1      -9.867   6.765  67.391  1.00  0.00    -0.174 C  
HETATM   21  C   UNL     1     -10.862   6.788  68.511  1.00  0.00    -0.280 C  
ENDBRANCH  10  19
TORSDOF 1
ENDMDL
MODEL      120
REMARK 921   NORMALIZED FREE ENERGY PREDICTED BY IDOCK:   -3.09 KCAL/MOL
REMARK 922        TOTAL FREE ENERGY PREDICTED BY IDOCK:   -3.57 KCAL/MOL
REMARK 923 INTER-LIGAND FREE ENERGY PREDICTED BY IDOCK:   -3.37 KCAL/MOL
REMARK 924 INTRA-LIGAND FREE ENERGY PREDICTED BY IDOCK:   -0.19 KCAL/MOL
REMARK 927      BINDING AFFINITY PREDICTED BY RF-SCORE:    0.00 PKD
ROOT
HETATM    1  C   UNL     1      -7.578  16.741  69.106  1.00  0.00    -0.181 C  
HETATM    2  C   UNL     1      -7.141  15.312  69.206  1.00  0.00    -0.177 A  
HETATM    3  C   UNL     1      -7.631  14.335  68.338  1.00  0.00    -0.124 A  
HETATM    4  N   UNL     1      -7.793  14.713  66.971  1.00  0.00    -0.343 N  
HETATM    5  C   UNL     1      -9.046  14.584  66.418  1.00  0.00    -0.185 C  
HETATM    6  H   UNL     1      -7.008  15.065  66.424  1.00  0.00     0.000 HD 
HETATM    7  C   UNL     1      -9.640  13.238  66.302  1.00  0.00    -0.244 A  
HETATM    8  O   UNL     1      -9.659  15.553  65.988  1.00  0.00    -0.293 OA 
HETATM    9  C   UNL     1      -9.482  12.248  67.269  1.00  0.00    -0.186 A  
HETATM   10  N   UNL     1      -8.235  12.000  67.926  1.00  0.00    -0.143 NA 
HETATM   11  N   UNL     1     -10.459  11.311  67.423  1.00  0.00    -0.203 NA 
HETATM   12  C   UNL     1      -7.462  12.975  68.624  1.00  0.00    -0.093 A  
HETATM   13  C   UNL     1     -11.487  11.283  66.544  1.00  0.00     0.097 A  
HETATM   14  C   UNL     1      -6.230  14.904  70.168  1.00  0.00    -0.165 A  
HETATM   15  C   UNL     1      -5.935  13.555  70.268  1.00  0.00    -0.146 A  
HETATM   16  C   UNL     1     -11.530  12.056  65.405  1.00  0.00    -0.361 A  
HETATM   17  N   UNL     1      -6.559  12.594  69.555  1.00  0.00    -0.076 NA 
HETATM   18  C   UNL     1     -10.588  13.062  65.286  1.00  0.00    -0.320 A  
ENDROOT
BRANCH  10  19
HETATM   19  C   UNL     1      -7.420  10.957  67.237  1.00  0.00    -0.104 C  
HETATM   20  C   UNL     1      -7.183  10.929  65.756  1.00  0.00     0.014 C  
HETATM   21  C   UNL     1      -6.049  11.244  66.682  1.00  0.00    -0.143 C  
ENDBRANCH  10  19
TORSDOF 1
ENDMDL
MODEL      121
REMARK 921   NORMALIZED FREE ENERGY PREDICTED BY IDOCK:   -3.05 KCAL/MOL
REMARK 922        TOTAL FREE ENERGY PREDICTED BY IDOCK:   -3.52 KCAL/MOL
REMARK 923 INTER-LIGAND FREE ENERGY PREDICTED BY IDOCK:   -3.95 KCAL/MOL
REMARK 924 INTRA-LIGAND FREE ENERGY PREDICTED BY IDOCK:    0.43 KCAL/MOL
REMARK 927      BINDING AFFINITY PREDICTED BY RF-SCORE:    0.00 PKD
ROOT
HETATM    1  C   UNL     1      -9.480   3.977  68.590  1.00  0.00    -0.220 C  
HETATM    2  C   UNL     1      -9.154   5.395  68.233  1.00  0.00    -0.116 A  
HETATM    3  C   UNL     1      -9.486   6.455  69.076  1.00  0.00    -0.129 A  
HETATM    4  N   UNL     1      -9.311   6.241  70.477  1.00  0.00    -0.161 N  
HETATM    5  C   UNL     1     -10.409   6.403  71.289  1.00  0.00    -0.207 C  
HETATM    6  H   UNL     1      -8.404   5.978  70.862  1.00  0.00     0.000 HD 
HETATM    7  C   UNL     1     -11.033   7.736  71.390  1.00  0.00    -0.264 A  
HETATM    8  O   UNL     1     -10.855   5.477  71.955  1.00  0.00    -0.239 OA 
HETATM    9  C   UNL     1     -11.153   8.607  70.309  1.00  0.00    -0.217 A  
HETATM   10  N   UNL     1     -10.104   8.807  69.355  1.00  0.00    -0.197 NA 
HETATM   11  N   UNL     1     -12.189   9.492  70.283  1.00  0.00     0.048 NA 
HETATM   12  C   UNL     1      -9.459   7.775  68.609  1.00  0.00    -0.152 A  
HETATM   13  C   UNL     1     -12.988   9.598  71.368  1.00  0.00    -0.385 A  
HETATM   14  C   UNL     1      -8.511   5.707  67.045  1.00  0.00    -0.110 A  
HETATM   15  C   UNL     1      -8.319   7.042  66.730  1.00  0.00    -0.116 A  
HETATM   16  C   UNL     1     -12.729   8.968  72.565  1.00  0.00    -0.373 A  
HETATM   17  N   UNL     1      -8.815   8.065  67.458  1.00  0.00    -0.127 NA 
HETATM   18  C   UNL     1     -11.732   8.009  72.572  1.00  0.00    -0.446 A  
ENDROOT
BRANCH  10  19
HETATM   19  C   UNL     1      -9.211   9.946  69.716  1.00  0.00    -0.227 C  
HETATM   20  C   UNL     1      -7.775   9.783  70.120  1.00  0.00    -0.188 C  
HETATM   21  C   UNL     1      -8.107  10.421  68.807  1.00  0.00    -0.125 C  
ENDBRANCH  10  19
TORSDOF 1
ENDMDL
MODEL      122
REMARK 921   NORMALIZED FREE ENERGY PREDICTED BY IDOCK:   -3.00 KCAL/MOL
REMARK 922        TOTAL FREE ENERGY PREDICTED BY IDOCK:   -3.48 KCAL/MOL
REMARK 923 INTER-LIGAND FREE ENERGY PREDICTED BY IDOCK:   -3.56 KCAL/MOL
REMARK 924 INTRA-LIGAND FREE ENERGY PREDICTED BY IDOCK:    0.08 KCAL/MOL
REMARK 927      BINDING AFFINITY PREDICTED BY RF-SCORE:    0.00 PKD
ROOT
HETATM    1  C   UNL     1      -9.882  11.574  67.933  1.00  0.00    -0.192 C  
HETATM    2  C   UNL     1      -9.412  10.188  67.613  1.00  0.00    -0.166 A  
HETATM    3  C   UNL     1      -9.521   9.148  68.537  1.00  0.00    -0.146 A  
HETATM    4  N   UNL     1     -10.718   9.102  69.314  1.00  0.00    -0.310 N  
HETATM    5  C   UNL     1     -10.590   9.131  70.683  1.00  0.00    -0.246 C  
HETATM    6  H   UNL     1     -11.634   9.048  68.870  1.00  0.00     0.000 HD 
HETATM    7  C   UNL     1      -9.896   8.019  71.360  1.00  0.00    -0.213 A  
HETATM    8  O   UNL     1     -11.071  10.038  71.352  1.00  0.00    -0.259 OA 
HETATM    9  C   UNL     1      -8.778   7.380  70.829  1.00  0.00    -0.145 A  
HETATM   10  N   UNL     1      -8.666   7.041  69.442  1.00  0.00    -0.133 NA 
HETATM   11  N   UNL     1      -7.866   6.826  71.676  1.00  0.00    -0.100 NA 
HETATM   12  C   UNL     1      -8.814   7.953  68.355  1.00  0.00    -0.130 A  
HETATM   13  C   UNL     1      -8.139   6.787  72.999  1.00  0.00    -0.108 A  
HETATM   14  C   UNL     1      -8.847   9.887  66.384  1.00  0.00    -0.159 A  
HETATM   15  C   UNL     1      -8.349   8.610  66.182  1.00  0.00    -0.125 A  
HETATM   16  C   UNL     1      -9.359   7.142  73.533  1.00  0.00    -0.231 A  
HETATM   17  N   UNL     1      -8.282   7.668  67.146  1.00  0.00    -0.117 NA 
HETATM   18  C   UNL     1     -10.254   7.781  72.693  1.00  0.00    -0.340 A  
ENDROOT
BRANCH  10  19
HETATM   19  C   UNL     1      -9.152   5.661  69.148  1.00  0.00    -0.112 C  
HETATM   20  C   UNL     1      -8.318   4.428  69.333  1.00  0.00    -0.083 C  
HETATM   21  C   UNL     1      -9.485   4.676  70.239  1.00  0.00    -0.240 C  
ENDBRANCH  10  19
TORSDOF 1
ENDMDL
MODEL      123
REMARK 921   NORMALIZED FREE ENERGY PREDICTED BY IDOCK:   -3.00 KCAL/MOL
REMARK 922        TOTAL FREE ENERGY PREDICTED BY IDOCK:   -3.47 KCAL/MOL
REMARK 923 INTER-LIGAND FREE ENERGY PREDICTED BY IDOCK:   -3.65 KCAL/MOL
REMARK 924 INTRA-LIGAND FREE ENERGY PREDICTED BY IDOCK:    0.18 KCAL/MOL
REMARK 927      BINDING AFFINITY PREDICTED BY RF-SCORE:    0.00 PKD
ROOT
HETATM    1  C   UNL     1      -7.052   7.392  72.374  1.00  0.00    -0.071 C  
HETATM    2  C   UNL     1      -8.183   6.930  71.508  1.00  0.00    -0.110 A  
HETATM    3  C   UNL     1      -8.687   7.726  70.478  1.00  0.00    -0.140 A  
HETATM    4  N   UNL     1      -7.735   8.459  69.706  1.00  0.00    -0.091 N  
HETATM    5  C   UNL     1      -7.878   9.825  69.648  1.00  0.00    -0.142 C  
HETATM    6  H   UNL     1      -6.977   7.986  69.216  1.00  0.00     0.000 HD 
HETATM    7  C   UNL     1      -9.088  10.390  69.020  1.00  0.00    -0.193 A  
HETATM    8  O   UNL     1      -7.010  10.579  70.070  1.00  0.00    -0.145 OA 
HETATM    9  C   UNL     1     -10.353   9.821  69.150  1.00  0.00    -0.211 A  
HETATM   10  N   UNL     1     -10.577   8.409  69.082  1.00  0.00    -0.199 NA 
HETATM   11  N   UNL     1     -11.451  10.625  69.086  1.00  0.00    -0.275 NA 
HETATM   12  C   UNL     1      -9.920   7.429  69.884  1.00  0.00    -0.188 A  
HETATM   13  C   UNL     1     -11.293  11.928  68.758  1.00  0.00    -0.274 A  
HETATM   14  C   UNL     1      -8.774   5.691  71.698  1.00  0.00    -0.136 A  
HETATM   15  C   UNL     1      -9.874   5.359  70.925  1.00  0.00    -0.188 A  
HETATM   16  C   UNL     1     -10.096  12.463  68.337  1.00  0.00    -0.217 A  
HETATM   17  N   UNL     1     -10.475   6.211  70.067  1.00  0.00    -0.213 NA 
HETATM   18  C   UNL     1      -8.966  11.677  68.479  1.00  0.00    -0.138 A  
ENDROOT
BRANCH  10  19
HETATM   19  C   UNL     1     -10.903   7.946  67.701  1.00  0.00    -0.055 C  
HETATM   20  C   UNL     1      -9.868   7.661  66.653  1.00  0.00    -0.283 C  
HETATM   21  C   UNL     1     -10.652   6.532  67.246  1.00  0.00    -0.383 C  
ENDBRANCH  10  19
TORSDOF 1
ENDMDL
MODEL      124
REMARK 921   NORMALIZED FREE ENERGY PREDICTED BY IDOCK:   -2.97 KCAL/MOL
REMARK 922        TOTAL FREE ENERGY PREDICTED BY IDOCK:   -3.44 KCAL/MOL
REMARK 923 INTER-LIGAND FREE ENERGY PREDICTED BY IDOCK:   -3.58 KCAL/MOL
REMARK 924 INTRA-LIGAND FREE ENERGY PREDICTED BY IDOCK:    0.14 KCAL/MOL
REMARK 927      BINDING AFFINITY PREDICTED BY RF-SCORE:    0.00 PKD
ROOT
HETATM    1  C   UNL     1      -7.437   6.212  64.761  1.00  0.00    -0.084 C  
HETATM    2  C   UNL     1      -7.864   6.236  66.196  1.00  0.00    -0.105 A  
HETATM    3  C   UNL     1      -8.651   7.270  66.707  1.00  0.00    -0.127 A  
HETATM    4  N   UNL     1      -9.698   7.756  65.866  1.00  0.00    -0.412 N  
HETATM    5  C   UNL     1      -9.694   9.095  65.553  1.00  0.00    -0.100 C  
HETATM    6  H   UNL     1     -10.423   7.132  65.512  1.00  0.00     0.000 HD 
HETATM    7  C   UNL     1      -9.863  10.082  66.636  1.00  0.00    -0.259 A  
HETATM    8  O   UNL     1      -9.592   9.481  64.396  1.00  0.00    -0.104 OA 
HETATM    9  C   UNL     1      -9.310   9.926  67.905  1.00  0.00    -0.137 A  
HETATM   10  N   UNL     1      -9.307   8.675  68.600  1.00  0.00    -0.142 NA 
HETATM   11  N   UNL     1      -8.986  11.035  68.628  1.00  0.00    -0.166 NA 
HETATM   12  C   UNL     1      -8.787   7.448  68.089  1.00  0.00    -0.127 A  
HETATM   13  C   UNL     1      -9.339  12.252  68.156  1.00  0.00    -0.205 A  
HETATM   14  C   UNL     1      -7.491   5.231  67.075  1.00  0.00    -0.087 A  
HETATM   15  C   UNL     1      -7.841   5.357  68.409  1.00  0.00    -0.084 A  
HETATM   16  C   UNL     1     -10.142  12.433  67.052  1.00  0.00    -0.223 A  
HETATM   17  N   UNL     1      -8.432   6.452  68.930  1.00  0.00    -0.121 NA 
HETATM   18  C   UNL     1     -10.404  11.322  66.270  1.00  0.00    -0.294 A  
ENDROOT
BRANCH  10  19
HETATM   19  C   UNL     1     -10.495   8.509  69.488  1.00  0.00    -0.220 C  
HETATM   20  C   UNL     1     -10.402   8.231  70.960  1.00  0.00    -0.230 C  
HETATM   21  C   UNL     1     -10.906   9.560  70.486  1.00  0.00    -0.352 C  
ENDBRANCH  10  19
TORSDOF 1
ENDMDL
MODEL      125
REMARK 921   NORMALIZED FREE ENERGY PREDICTED BY IDOCK:   -2.96 KCAL/MOL
REMARK 922        TOTAL FREE ENERGY PREDICTED BY IDOCK:   -3.43 KCAL/MOL
REMARK 923 INTER-LIGAND FREE ENERGY PREDICTED BY IDOCK:   -3.68 KCAL/MOL
REMARK 924 INTRA-LIGAND FREE ENERGY PREDICTED BY IDOCK:    0.25 KCAL/MOL
REMARK 927      BINDING AFFINITY PREDICTED BY RF-SCORE:    0.00 PKD
ROOT
HETATM    1  C   UNL     1      -9.645   5.318  68.340  1.00  0.00    -0.176 C  
HETATM    2  C   UNL     1      -8.806   6.503  67.970  1.00  0.00    -0.114 A  
HETATM    3  C   UNL     1      -8.994   7.748  68.571  1.00  0.00    -0.133 A  
HETATM    4  N   UNL     1      -9.269   7.750  69.972  1.00  0.00    -0.153 N  
HETATM    5  C   UNL     1     -10.432   8.352  70.393  1.00  0.00    -0.214 C  
HETATM    6  H   UNL     1      -8.626   7.321  70.637  1.00  0.00     0.000 HD 
HETATM    7  C   UNL     1     -10.605   9.801  70.175  1.00  0.00    -0.337 A  
HETATM    8  O   UNL     1     -11.306   7.721  70.973  1.00  0.00    -0.263 OA 
HETATM    9  C   UNL     1     -10.156  10.461  69.034  1.00  0.00    -0.213 A  
HETATM   10  N   UNL     1      -8.887  10.188  68.430  1.00  0.00    -0.120 NA 
HETATM   11  N   UNL     1     -10.814  11.577  68.612  1.00  0.00    -0.200 NA 
HETATM   12  C   UNL     1      -8.430   8.902  68.015  1.00  0.00    -0.126 A  
HETATM   13  C   UNL     1     -11.794  12.094  69.388  1.00  0.00    -0.309 A  
HETATM   14  C   UNL     1      -7.809   6.406  67.011  1.00  0.00    -0.104 A  
HETATM   15  C   UNL     1      -7.130   7.557  66.648  1.00  0.00    -0.078 A  
HETATM   16  C   UNL     1     -12.070  11.643  70.660  1.00  0.00    -0.432 A  
HETATM   17  N   UNL     1      -7.449   8.790  67.092  1.00  0.00    -0.087 NA 
HETATM   18  C   UNL     1     -11.466  10.464  71.059  1.00  0.00    -0.304 A  
ENDROOT
BRANCH  10  19
HETATM   19  C   UNL     1      -7.806  11.083  68.939  1.00  0.00    -0.138 C  
HETATM   20  C   UNL     1      -6.668  11.576  68.095  1.00  0.00    -0.062 C  
HETATM   21  C   UNL     1      -7.719  12.538  68.556  1.00  0.00    -0.113 C  
ENDBRANCH  10  19
TORSDOF 1
ENDMDL
MODEL      126
REMARK 921   NORMALIZED FREE ENERGY PREDICTED BY IDOCK:   -2.94 KCAL/MOL
REMARK 922        TOTAL FREE ENERGY PREDICTED BY IDOCK:   -3.41 KCAL/MOL
REMARK 923 INTER-LIGAND FREE ENERGY PREDICTED BY IDOCK:   -3.11 KCAL/MOL
REMARK 924 INTRA-LIGAND FREE ENERGY PREDICTED BY IDOCK:   -0.30 KCAL/MOL
REMARK 927      BINDING AFFINITY PREDICTED BY RF-SCORE:    0.00 PKD
ROOT
HETATM    1  C   UNL     1      -6.660   8.639  66.440  1.00  0.00    -0.062 C  
HETATM    2  C   UNL     1      -8.055   8.580  66.981  1.00  0.00    -0.103 A  
HETATM    3  C   UNL     1      -8.309   8.252  68.313  1.00  0.00    -0.132 A  
HETATM    4  N   UNL     1      -7.419   8.792  69.290  1.00  0.00    -0.077 N  
HETATM    5  C   UNL     1      -6.763   7.907  70.113  1.00  0.00    -0.038 C  
HETATM    6  H   UNL     1      -7.275   9.798  69.374  1.00  0.00     0.000 HD 
HETATM    7  C   UNL     1      -7.553   7.070  71.036  1.00  0.00    -0.086 A  
HETATM    8  O   UNL     1      -5.541   7.825  70.121  1.00  0.00    -0.023 OA 
HETATM    9  C   UNL     1      -8.791   6.526  70.704  1.00  0.00    -0.144 A  
HETATM   10  N   UNL     1      -9.791   7.258  69.987  1.00  0.00    -0.175 NA 
HETATM   11  N   UNL     1      -9.180   5.357  71.287  1.00  0.00    -0.144 NA 
HETATM   12  C   UNL     1      -9.600   7.902  68.729  1.00  0.00    -0.152 A  
HETATM   13  C   UNL     1      -8.419   4.832  72.274  1.00  0.00    -0.119 A  
HETATM   14  C   UNL     1      -9.151   8.850  66.175  1.00  0.00    -0.251 A  
HETATM   15  C   UNL     1     -10.418   8.690  66.709  1.00  0.00    -0.228 A  
HETATM   16  C   UNL     1      -7.344   5.487  72.833  1.00  0.00    -0.092 A  
HETATM   17  N   UNL     1     -10.658   8.185  67.937  1.00  0.00    -0.187 NA 
HETATM   18  C   UNL     1      -6.897   6.629  72.193  1.00  0.00    -0.067 A  
ENDROOT
BRANCH  10  19
HETATM   19  C   UNL     1     -10.745   7.964  70.893  1.00  0.00    -0.221 C  
HETATM   20  C   UNL     1     -10.413   8.366  72.300  1.00  0.00    -0.407 C  
HETATM   21  C   UNL     1     -10.588   9.419  71.250  1.00  0.00    -0.400 C  
ENDBRANCH  10  19
TORSDOF 1
ENDMDL
MODEL      127
REMARK 921   NORMALIZED FREE ENERGY PREDICTED BY IDOCK:   -2.86 KCAL/MOL
REMARK 922        TOTAL FREE ENERGY PREDICTED BY IDOCK:   -3.32 KCAL/MOL
REMARK 923 INTER-LIGAND FREE ENERGY PREDICTED BY IDOCK:   -3.41 KCAL/MOL
REMARK 924 INTRA-LIGAND FREE ENERGY PREDICTED BY IDOCK:    0.08 KCAL/MOL
REMARK 927      BINDING AFFINITY PREDICTED BY RF-SCORE:    0.00 PKD
ROOT
HETATM    1  C   UNL     1      -7.719   4.847  71.855  1.00  0.00    -0.103 C  
HETATM    2  C   UNL     1      -8.290   6.216  72.057  1.00  0.00    -0.114 A  
HETATM    3  C   UNL     1      -8.863   6.932  71.005  1.00  0.00    -0.140 A  
HETATM    4  N   UNL     1      -9.661   6.189  70.082  1.00  0.00    -0.161 N  
HETATM    5  C   UNL     1      -9.304   6.229  68.755  1.00  0.00    -0.124 C  
HETATM    6  H   UNL     1     -10.467   5.649  70.397  1.00  0.00     0.000 HD 
HETATM    7  C   UNL     1      -9.358   7.517  68.039  1.00  0.00    -0.142 A  
HETATM    8  O   UNL     1      -8.980   5.215  68.149  1.00  0.00    -0.108 OA 
HETATM    9  C   UNL     1      -9.007   8.732  68.624  1.00  0.00    -0.138 A  
HETATM   10  N   UNL     1      -9.381   9.083  69.961  1.00  0.00    -0.172 NA 
HETATM   11  N   UNL     1      -8.515   9.729  67.838  1.00  0.00    -0.124 NA 
HETATM   12  C   UNL     1      -9.112   8.305  71.125  1.00  0.00    -0.162 A  
HETATM   13  C   UNL     1      -8.513   9.566  66.495  1.00  0.00    -0.126 A  
HETATM   14  C   UNL     1      -8.270   6.828  73.301  1.00  0.00    -0.119 A  
HETATM   15  C   UNL     1      -8.731   8.129  73.405  1.00  0.00    -0.251 A  
HETATM   16  C   UNL     1      -9.118   8.504  65.860  1.00  0.00    -0.237 A  
HETATM   17  N   UNL     1      -9.102   8.881  72.347  1.00  0.00    -0.323 NA 
HETATM   18  C   UNL     1      -9.543   7.452  66.652  1.00  0.00    -0.251 A  
ENDROOT
BRANCH  10  19
HETATM   19  C   UNL     1     -10.669   9.836  70.017  1.00  0.00    -0.283 C  
HETATM   20  C   UNL     1     -10.803  11.285  69.652  1.00  0.00    -0.155 C  
HETATM   21  C   UNL     1     -11.419  10.240  68.775  1.00  0.00    -0.176 C  
ENDBRANCH  10  19
TORSDOF 1
ENDMDL
MODEL      128
REMARK 921   NORMALIZED FREE ENERGY PREDICTED BY IDOCK:   -2.85 KCAL/MOL
REMARK 922        TOTAL FREE ENERGY PREDICTED BY IDOCK:   -3.32 KCAL/MOL
REMARK 923 INTER-LIGAND FREE ENERGY PREDICTED BY IDOCK:   -3.38 KCAL/MOL
REMARK 924 INTRA-LIGAND FREE ENERGY PREDICTED BY IDOCK:    0.06 KCAL/MOL
REMARK 927      BINDING AFFINITY PREDICTED BY RF-SCORE:    0.00 PKD
ROOT
HETATM    1  C   UNL     1      -5.660   5.812  72.279  1.00  0.00    -0.026 C  
HETATM    2  C   UNL     1      -6.168   6.175  70.918  1.00  0.00    -0.039 A  
HETATM    3  C   UNL     1      -7.365   6.870  70.745  1.00  0.00    -0.077 A  
HETATM    4  N   UNL     1      -7.640   7.918  71.675  1.00  0.00    -0.075 N  
HETATM    5  C   UNL     1      -8.808   7.841  72.397  1.00  0.00    -0.142 C  
HETATM    6  H   UNL     1      -6.993   8.697  71.799  1.00  0.00     0.000 HD 
HETATM    7  C   UNL     1     -10.096   7.898  71.680  1.00  0.00    -0.228 A  
HETATM    8  O   UNL     1      -8.801   7.763  73.619  1.00  0.00    -0.215 OA 
HETATM    9  C   UNL     1     -10.306   7.302  70.438  1.00  0.00    -0.208 A  
HETATM   10  N   UNL     1      -9.340   7.351  69.383  1.00  0.00    -0.155 NA 
HETATM   11  N   UNL     1     -11.558   6.876  70.111  1.00  0.00    -0.313 NA 
HETATM   12  C   UNL     1      -7.980   6.935  69.489  1.00  0.00    -0.125 A  
HETATM   13  C   UNL     1     -12.588   7.169  70.938  1.00  0.00    -0.220 A  
HETATM   14  C   UNL     1      -5.465   5.831  69.773  1.00  0.00    -0.005 A  
HETATM   15  C   UNL     1      -6.030   6.114  68.541  1.00  0.00    -0.016 A  
HETATM   16  C   UNL     1     -12.472   8.006  72.026  1.00  0.00    -0.357 A  
HETATM   17  N   UNL     1      -7.276   6.610  68.382  1.00  0.00    -0.083 NA 
HETATM   18  C   UNL     1     -11.194   8.372  72.409  1.00  0.00    -0.438 A  
ENDROOT
BRANCH  10  19
HETATM   19  C   UNL     1      -9.553   8.508  68.464  1.00  0.00    -0.151 C  
HETATM   20  C   UNL     1     -10.362   8.433  67.203  1.00  0.00    -0.381 C  
HETATM   21  C   UNL     1     -10.874   9.225  68.366  1.00  0.00    -0.125 C  
ENDBRANCH  10  19
TORSDOF 1
ENDMDL
MODEL      129
REMARK 921   NORMALIZED FREE ENERGY PREDICTED BY IDOCK:   -2.84 KCAL/MOL
REMARK 922        TOTAL FREE ENERGY PREDICTED BY IDOCK:   -3.30 KCAL/MOL
REMARK 923 INTER-LIGAND FREE ENERGY PREDICTED BY IDOCK:   -3.37 KCAL/MOL
REMARK 924 INTRA-LIGAND FREE ENERGY PREDICTED BY IDOCK:    0.06 KCAL/MOL
REMARK 927      BINDING AFFINITY PREDICTED BY RF-SCORE:    0.00 PKD
ROOT
HETATM    1  C   UNL     1      -8.396   4.461  72.746  1.00  0.00    -0.105 C  
HETATM    2  C   UNL     1      -8.675   5.825  72.194  1.00  0.00    -0.133 A  
HETATM    3  C   UNL     1      -9.120   6.007  70.885  1.00  0.00    -0.153 A  
HETATM    4  N   UNL     1     -10.075   5.066  70.394  1.00  0.00    -0.248 N  
HETATM    5  C   UNL     1      -9.753   4.365  69.255  1.00  0.00    -0.182 C  
HETATM    6  H   UNL     1     -10.965   4.919  70.870  1.00  0.00     0.000 HD 
HETATM    7  C   UNL     1      -9.565   5.104  67.992  1.00  0.00    -0.172 A  
HETATM    8  O   UNL     1      -9.655   3.145  69.260  1.00  0.00    -0.153 OA 
HETATM    9  C   UNL     1      -8.962   6.357  67.921  1.00  0.00    -0.114 A  
HETATM   10  N   UNL     1      -9.222   7.395  68.872  1.00  0.00    -0.143 NA 
HETATM   11  N   UNL     1      -8.300   6.712  66.784  1.00  0.00    -0.113 NA 
HETATM   12  C   UNL     1      -9.084   7.273  70.287  1.00  0.00    -0.152 A  
HETATM   13  C   UNL     1      -8.367   5.899  65.706  1.00  0.00    -0.140 A  
HETATM   14  C   UNL     1      -8.499   6.963  72.967  1.00  0.00    -0.128 A  
HETATM   15  C   UNL     1      -8.686   8.200  72.373  1.00  0.00    -0.189 A  
HETATM   16  C   UNL     1      -9.190   4.796  65.637  1.00  0.00    -0.152 A  
HETATM   17  N   UNL     1      -8.926   8.372  71.056  1.00  0.00    -0.152 NA 
HETATM   18  C   UNL     1      -9.796   4.386  66.811  1.00  0.00    -0.241 A  
ENDROOT
BRANCH  10  19
HETATM   19  C   UNL     1     -10.330   8.300  68.445  1.00  0.00    -0.199 C  
HETATM   20  C   UNL     1     -10.124   9.718  68.003  1.00  0.00    -0.204 C  
HETATM   21  C   UNL     1     -10.545   8.684  67.004  1.00  0.00    -0.293 C  
ENDBRANCH  10  19
TORSDOF 1
ENDMDL
MODEL      130
REMARK 921   NORMALIZED FREE ENERGY PREDICTED BY IDOCK:   -2.83 KCAL/MOL
REMARK 922        TOTAL FREE ENERGY PREDICTED BY IDOCK:   -3.30 KCAL/MOL
REMARK 923 INTER-LIGAND FREE ENERGY PREDICTED BY IDOCK:   -3.35 KCAL/MOL
REMARK 924 INTRA-LIGAND FREE ENERGY PREDICTED BY IDOCK:    0.05 KCAL/MOL
REMARK 927      BINDING AFFINITY PREDICTED BY RF-SCORE:    0.00 PKD
ROOT
HETATM    1  C   UNL     1      -9.803   2.931  71.188  1.00  0.00    -0.098 C  
HETATM    2  C   UNL     1      -9.018   3.866  70.321  1.00  0.00    -0.163 A  
HETATM    3  C   UNL     1      -9.073   5.249  70.500  1.00  0.00    -0.141 A  
HETATM    4  N   UNL     1      -9.099   5.722  71.847  1.00  0.00    -0.139 N  
HETATM    5  C   UNL     1     -10.158   6.514  72.225  1.00  0.00    -0.175 C  
HETATM    6  H   UNL     1      -8.358   5.481  72.506  1.00  0.00     0.000 HD 
HETATM    7  C   UNL     1     -10.338   7.825  71.573  1.00  0.00    -0.227 A  
HETATM    8  O   UNL     1     -10.930   6.171  73.111  1.00  0.00    -0.257 OA 
HETATM    9  C   UNL     1     -10.082   8.048  70.221  1.00  0.00    -0.192 A  
HETATM   10  N   UNL     1      -8.944   7.500  69.548  1.00  0.00    -0.144 NA 
HETATM   11  N   UNL     1     -10.781   9.016  69.566  1.00  0.00    -0.227 NA 
HETATM   12  C   UNL     1      -8.592   6.118  69.512  1.00  0.00    -0.127 A  
HETATM   13  C   UNL     1     -11.599   9.828  70.273  1.00  0.00    -0.220 A  
HETATM   14  C   UNL     1      -8.206   3.392  69.302  1.00  0.00    -0.076 A  
HETATM   15  C   UNL     1      -7.578   4.309  68.477  1.00  0.00    -0.063 A  
HETATM   16  C   UNL     1     -11.659   9.832  71.649  1.00  0.00    -0.345 A  
HETATM   17  N   UNL     1      -7.790   5.641  68.535  1.00  0.00    -0.095 NA 
HETATM   18  C   UNL     1     -11.018   8.800  72.313  1.00  0.00    -0.336 A  
ENDROOT
BRANCH  10  19
HETATM   19  C   UNL     1      -7.773   8.425  69.556  1.00  0.00    -0.096 C  
HETATM   20  C   UNL     1      -7.341   9.231  68.366  1.00  0.00    -0.077 C  
HETATM   21  C   UNL     1      -7.931   9.924  69.555  1.00  0.00    -0.149 C  
ENDBRANCH  10  19
TORSDOF 1
ENDMDL
MODEL      131
REMARK 921   NORMALIZED FREE ENERGY PREDICTED BY IDOCK:   -2.82 KCAL/MOL
REMARK 922        TOTAL FREE ENERGY PREDICTED BY IDOCK:   -3.28 KCAL/MOL
REMARK 923 INTER-LIGAND FREE ENERGY PREDICTED BY IDOCK:   -3.39 KCAL/MOL
REMARK 924 INTRA-LIGAND FREE ENERGY PREDICTED BY IDOCK:    0.11 KCAL/MOL
REMARK 927      BINDING AFFINITY PREDICTED BY RF-SCORE:    0.00 PKD
ROOT
HETATM    1  C   UNL     1     -12.045  13.977  66.745  1.00  0.00    -0.480 C  
HETATM    2  C   UNL     1     -10.963  14.455  67.663  1.00  0.00    -0.294 A  
HETATM    3  C   UNL     1      -9.731  13.803  67.743  1.00  0.00    -0.230 A  
HETATM    4  N   UNL     1      -9.173  13.333  66.516  1.00  0.00    -0.401 N  
HETATM    5  C   UNL     1      -8.885  11.991  66.420  1.00  0.00    -0.126 C  
HETATM    6  H   UNL     1      -8.993  13.968  65.739  1.00  0.00     0.000 HD 
HETATM    7  C   UNL     1      -7.863  11.414  67.313  1.00  0.00    -0.149 A  
HETATM    8  O   UNL     1      -9.430  11.278  65.587  1.00  0.00    -0.217 OA 
HETATM    9  C   UNL     1      -7.701  11.804  68.641  1.00  0.00    -0.126 A  
HETATM   10  N   UNL     1      -7.768  13.171  69.060  1.00  0.00     0.089 NA 
HETATM   11  N   UNL     1      -7.211  10.906  69.540  1.00  0.00    -0.130 NA 
HETATM   12  C   UNL     1      -8.854  14.061  68.804  1.00  0.00    -0.031 A  
HETATM   13  C   UNL     1      -6.765   9.709  69.096  1.00  0.00    -0.049 A  
HETATM   14  C   UNL     1     -11.145  15.566  68.473  1.00  0.00    -0.307 A  
HETATM   15  C   UNL     1     -10.142  15.904  69.365  1.00  0.00    -0.267 A  
HETATM   16  C   UNL     1      -6.637   9.396  67.761  1.00  0.00    -0.063 A  
HETATM   17  N   UNL     1      -9.038  15.156  69.573  1.00  0.00    -0.178 NA 
HETATM   18  C   UNL     1      -7.206  10.267  66.849  1.00  0.00    -0.093 A  
ENDROOT
BRANCH  10  19
HETATM   19  C   UNL     1      -6.430  13.833  69.075  1.00  0.00    -0.105 C  
HETATM   20  C   UNL     1      -5.791  14.390  70.312  1.00  0.00    -0.146 C  
HETATM   21  C   UNL     1      -5.212  13.171  69.663  1.00  0.00    -0.086 C  
ENDBRANCH  10  19
TORSDOF 1
ENDMDL
MODEL      132
REMARK 921   NORMALIZED FREE ENERGY PREDICTED BY IDOCK:   -2.80 KCAL/MOL
REMARK 922        TOTAL FREE ENERGY PREDICTED BY IDOCK:   -3.26 KCAL/MOL
REMARK 923 INTER-LIGAND FREE ENERGY PREDICTED BY IDOCK:   -3.25 KCAL/MOL
REMARK 924 INTRA-LIGAND FREE ENERGY PREDICTED BY IDOCK:   -0.01 KCAL/MOL
REMARK 927      BINDING AFFINITY PREDICTED BY RF-SCORE:    0.00 PKD
ROOT
HETATM    1  C   UNL     1     -10.987   9.642  67.095  1.00  0.00    -0.066 C  
HETATM    2  C   UNL     1      -9.769  10.130  67.816  1.00  0.00    -0.176 A  
HETATM    3  C   UNL     1      -9.209   9.412  68.873  1.00  0.00    -0.140 A  
HETATM    4  N   UNL     1      -9.172   7.991  68.738  1.00  0.00    -0.144 N  
HETATM    5  C   UNL     1      -9.791   7.242  69.711  1.00  0.00    -0.177 C  
HETATM    6  H   UNL     1      -8.704   7.548  67.948  1.00  0.00     0.000 HD 
HETATM    7  C   UNL     1      -9.278   7.302  71.092  1.00  0.00    -0.156 A  
HETATM    8  O   UNL     1     -10.731   6.502  69.449  1.00  0.00    -0.226 OA 
HETATM    9  C   UNL     1      -8.794   8.470  71.678  1.00  0.00    -0.207 A  
HETATM   10  N   UNL     1      -7.960   9.399  70.978  1.00  0.00    -0.327 NA 
HETATM   11  N   UNL     1      -8.895   8.625  73.028  1.00  0.00    -0.339 NA 
HETATM   12  C   UNL     1      -8.274  10.010  69.728  1.00  0.00    -0.178 A  
HETATM   13  C   UNL     1      -9.330   7.587  73.777  1.00  0.00    -0.279 A  
HETATM   14  C   UNL     1      -9.150  11.318  67.459  1.00  0.00    -0.151 A  
HETATM   15  C   UNL     1      -8.082  11.761  68.221  1.00  0.00    -0.154 A  
HETATM   16  C   UNL     1      -9.540   6.322  73.272  1.00  0.00    -0.153 A  
HETATM   17  N   UNL     1      -7.670  11.161  69.358  1.00  0.00    -0.035 NA 
HETATM   18  C   UNL     1      -9.520   6.180  71.896  1.00  0.00    -0.160 A  
ENDROOT
BRANCH  10  19
HETATM   19  C   UNL     1      -6.506   9.124  71.172  1.00  0.00    -0.084 C  
HETATM   20  C   UNL     1      -5.937   8.484  72.404  1.00  0.00    -0.069 C  
HETATM   21  C   UNL     1      -5.936   7.731  71.109  1.00  0.00    -0.034 C  
ENDBRANCH  10  19
TORSDOF 1
ENDMDL
MODEL      133
REMARK 921   NORMALIZED FREE ENERGY PREDICTED BY IDOCK:   -2.79 KCAL/MOL
REMARK 922        TOTAL FREE ENERGY PREDICTED BY IDOCK:   -3.25 KCAL/MOL
REMARK 923 INTER-LIGAND FREE ENERGY PREDICTED BY IDOCK:   -3.32 KCAL/MOL
REMARK 924 INTRA-LIGAND FREE ENERGY PREDICTED BY IDOCK:    0.07 KCAL/MOL
REMARK 927      BINDING AFFINITY PREDICTED BY RF-SCORE:    0.00 PKD
ROOT
HETATM    1  C   UNL     1      -9.898  13.232  68.020  1.00  0.00    -0.230 C  
HETATM    2  C   UNL     1      -8.748  12.273  68.004  1.00  0.00    -0.181 A  
HETATM    3  C   UNL     1      -8.773  11.090  68.745  1.00  0.00    -0.145 A  
HETATM    4  N   UNL     1     -10.012  10.382  68.785  1.00  0.00    -0.179 N  
HETATM    5  C   UNL     1     -10.565  10.135  70.020  1.00  0.00    -0.287 C  
HETATM    6  H   UNL     1     -10.470  10.071  67.929  1.00  0.00     0.000 HD 
HETATM    7  C   UNL     1      -9.837   9.272  70.969  1.00  0.00    -0.355 A  
HETATM    8  O   UNL     1     -11.661  10.584  70.332  1.00  0.00    -0.293 OA 
HETATM    9  C   UNL     1      -8.450   9.284  71.103  1.00  0.00    -0.014 A  
HETATM   10  N   UNL     1      -7.564   9.358  69.981  1.00  0.00    -0.096 NA 
HETATM   11  N   UNL     1      -7.898   8.961  72.306  1.00  0.00    -0.358 NA 
HETATM   12  C   UNL     1      -7.597  10.362  68.968  1.00  0.00    -0.108 A  
HETATM   13  C   UNL     1      -8.699   8.502  73.294  1.00  0.00     0.002 A  
HETATM   14  C   UNL     1      -7.612  12.525  67.251  1.00  0.00    -0.131 A  
HETATM   15  C   UNL     1      -6.546  11.646  67.350  1.00  0.00    -0.106 A  
HETATM   16  C   UNL     1     -10.030   8.199  73.111  1.00  0.00    -0.233 A  
HETATM   17  N   UNL     1      -6.503  10.611  68.216  1.00  0.00    -0.058 NA 
HETATM   18  C   UNL     1     -10.613   8.601  71.922  1.00  0.00    -0.411 A  
ENDROOT
BRANCH  10  19
HETATM   19  C   UNL     1      -7.148   8.012  69.489  1.00  0.00    -0.058 C  
HETATM   20  C   UNL     1      -5.754   7.472  69.620  1.00  0.00    -0.023 C  
HETATM   21  C   UNL     1      -6.862   6.867  70.425  1.00  0.00    -0.058 C  
ENDBRANCH  10  19
TORSDOF 1
ENDMDL
MODEL      134
REMARK 921   NORMALIZED FREE ENERGY PREDICTED BY IDOCK:   -2.64 KCAL/MOL
REMARK 922        TOTAL FREE ENERGY PREDICTED BY IDOCK:   -3.10 KCAL/MOL
REMARK 923 INTER-LIGAND FREE ENERGY PREDICTED BY IDOCK:   -2.85 KCAL/MOL
REMARK 924 INTRA-LIGAND FREE ENERGY PREDICTED BY IDOCK:   -0.25 KCAL/MOL
REMARK 927      BINDING AFFINITY PREDICTED BY RF-SCORE:    0.00 PKD
ROOT
HETATM    1  C   UNL     1      -6.759   3.582  69.609  1.00  0.00    -0.034 C  
HETATM    2  C   UNL     1      -7.048   4.390  70.835  1.00  0.00    -0.037 A  
HETATM    3  C   UNL     1      -7.681   5.632  70.760  1.00  0.00    -0.092 A  
HETATM    4  N   UNL     1      -8.749   5.753  69.820  1.00  0.00    -0.125 N  
HETATM    5  C   UNL     1      -8.644   6.731  68.859  1.00  0.00    -0.130 C  
HETATM    6  H   UNL     1      -9.560   5.136  69.860  1.00  0.00     0.000 HD 
HETATM    7  C   UNL     1      -8.616   8.145  69.280  1.00  0.00    -0.135 A  
HETATM    8  O   UNL     1      -8.611   6.456  67.666  1.00  0.00    -0.116 OA 
HETATM    9  C   UNL     1      -7.967   8.588  70.430  1.00  0.00    -0.099 A  
HETATM   10  N   UNL     1      -8.021   7.877  71.671  1.00  0.00    -0.095 NA 
HETATM   11  N   UNL     1      -7.472   9.856  70.465  1.00  0.00    -0.285 NA 
HETATM   12  C   UNL     1      -7.672   6.506  71.854  1.00  0.00    -0.098 A  
HETATM   13  C   UNL     1      -7.747  10.697  69.442  1.00  0.00    -0.129 A  
HETATM   14  C   UNL     1      -6.695   3.935  72.096  1.00  0.00    -0.022 A  
HETATM   15  C   UNL     1      -6.907   4.767  73.182  1.00  0.00    -0.068 A  
HETATM   16  C   UNL     1      -8.628  10.392  68.427  1.00  0.00    -0.128 A  
HETATM   17  N   UNL     1      -7.340   6.042  73.079  1.00  0.00    -0.093 NA 
HETATM   18  C   UNL     1      -9.066   9.083  68.341  1.00  0.00    -0.133 A  
ENDROOT
BRANCH  10  19
HETATM   19  C   UNL     1      -9.133   8.344  72.551  1.00  0.00    -0.256 C  
HETATM   20  C   UNL     1     -10.502   8.696  72.047  1.00  0.00    -0.422 C  
HETATM   21  C   UNL     1     -10.314   7.470  72.886  1.00  0.00    -0.349 C  
ENDBRANCH  10  19
TORSDOF 1
ENDMDL
MODEL      135
REMARK 921   NORMALIZED FREE ENERGY PREDICTED BY IDOCK:   -2.55 KCAL/MOL
REMARK 922        TOTAL FREE ENERGY PREDICTED BY IDOCK:   -3.00 KCAL/MOL
REMARK 923 INTER-LIGAND FREE ENERGY PREDICTED BY IDOCK:   -2.70 KCAL/MOL
REMARK 924 INTRA-LIGAND FREE ENERGY PREDICTED BY IDOCK:   -0.29 KCAL/MOL
REMARK 927      BINDING AFFINITY PREDICTED BY RF-SCORE:    0.00 PKD
ROOT
HETATM    1  C   UNL     1      -6.702   7.516  62.766  1.00  0.00    -0.070 C  
HETATM    2  C   UNL     1      -6.586   7.098  64.199  1.00  0.00    -0.043 A  
HETATM    3  C   UNL     1      -7.358   7.692  65.198  1.00  0.00    -0.076 A  
HETATM    4  N   UNL     1      -8.717   7.983  64.872  1.00  0.00    -0.387 N  
HETATM    5  C   UNL     1      -9.137   9.287  64.994  1.00  0.00    -0.188 C  
HETATM    6  H   UNL     1      -9.354   7.250  64.560  1.00  0.00     0.000 HD 
HETATM    7  C   UNL     1      -9.136   9.916  66.329  1.00  0.00    -0.187 A  
HETATM    8  O   UNL     1      -9.544   9.922  64.029  1.00  0.00    -0.253 OA 
HETATM    9  C   UNL     1      -8.149   9.680  67.284  1.00  0.00    -0.110 A  
HETATM   10  N   UNL     1      -7.608   8.379  67.533  1.00  0.00    -0.097 NA 
HETATM   11  N   UNL     1      -7.858  10.655  68.190  1.00  0.00    -0.107 NA 
HETATM   12  C   UNL     1      -7.033   7.520  66.549  1.00  0.00    -0.070 A  
HETATM   13  C   UNL     1      -8.628  11.766  68.230  1.00  0.00    -0.162 A  
HETATM   14  C   UNL     1      -5.702   6.103  64.589  1.00  0.00    -0.022 A  
HETATM   15  C   UNL     1      -5.576   5.825  65.939  1.00  0.00    -0.013 A  
HETATM   16  C   UNL     1      -9.789  11.909  67.503  1.00  0.00    -0.194 A  
HETATM   17  N   UNL     1      -6.182   6.536  66.913  1.00  0.00    -0.038 NA 
HETATM   18  C   UNL     1     -10.044  10.964  66.524  1.00  0.00    -0.269 A  
ENDROOT
BRANCH  10  19
HETATM   19  C   UNL     1      -8.331   7.657  68.622  1.00  0.00    -0.129 C  
HETATM   20  C   UNL     1      -9.681   8.061  69.136  1.00  0.00    -0.163 C  
HETATM   21  C   UNL     1      -9.536   6.793  68.353  1.00  0.00    -0.126 C  
ENDBRANCH  10  19
TORSDOF 1
ENDMDL
MODEL      136
REMARK 921   NORMALIZED FREE ENERGY PREDICTED BY IDOCK:   -2.52 KCAL/MOL
REMARK 922        TOTAL FREE ENERGY PREDICTED BY IDOCK:   -2.96 KCAL/MOL
REMARK 923 INTER-LIGAND FREE ENERGY PREDICTED BY IDOCK:   -2.76 KCAL/MOL
REMARK 924 INTRA-LIGAND FREE ENERGY PREDICTED BY IDOCK:   -0.20 KCAL/MOL
REMARK 927      BINDING AFFINITY PREDICTED BY RF-SCORE:    0.00 PKD
ROOT
HETATM    1  C   UNL     1      -6.297   6.728  70.466  1.00  0.00    -0.039 C  
HETATM    2  C   UNL     1      -7.044   6.552  69.180  1.00  0.00    -0.088 A  
HETATM    3  C   UNL     1      -7.571   7.642  68.486  1.00  0.00    -0.110 A  
HETATM    4  N   UNL     1      -6.770   8.823  68.439  1.00  0.00    -0.063 N  
HETATM    5  C   UNL     1      -7.320   9.986  68.925  1.00  0.00    -0.080 C  
HETATM    6  H   UNL     1      -5.824   8.804  68.059  1.00  0.00     0.000 HD 
HETATM    7  C   UNL     1      -8.507  10.549  68.253  1.00  0.00    -0.123 A  
HETATM    8  O   UNL     1      -6.827  10.580  69.875  1.00  0.00    -0.120 OA 
HETATM    9  C   UNL     1      -9.531   9.765  67.725  1.00  0.00    -0.133 A  
HETATM   10  N   UNL     1      -9.284   8.558  66.997  1.00  0.00    -0.146 NA 
HETATM   11  N   UNL     1     -10.793  10.274  67.668  1.00  0.00    -0.292 NA 
HETATM   12  C   UNL     1      -8.515   7.452  67.468  1.00  0.00    -0.116 A  
HETATM   13  C   UNL     1     -10.992  11.572  67.993  1.00  0.00    -0.231 A  
HETATM   14  C   UNL     1      -7.242   5.295  68.629  1.00  0.00    -0.062 A  
HETATM   15  C   UNL     1      -8.018   5.189  67.487  1.00  0.00    -0.100 A  
HETATM   16  C   UNL     1      -9.967  12.459  68.237  1.00  0.00    -0.224 A  
HETATM   17  N   UNL     1      -8.684   6.223  66.933  1.00  0.00    -0.112 NA 
HETATM   18  C   UNL     1      -8.695  11.932  68.378  1.00  0.00    -0.157 A  
ENDROOT
BRANCH  10  19
HETATM   19  C   UNL     1      -9.184   8.785  65.525  1.00  0.00    -0.137 C  
HETATM   20  C   UNL     1      -9.306  10.135  64.881  1.00  0.00    -0.310 C  
HETATM   21  C   UNL     1      -7.982   9.436  64.892  1.00  0.00    -0.120 C  
ENDBRANCH  10  19
TORSDOF 1
ENDMDL
MODEL      137
REMARK 921   NORMALIZED FREE ENERGY PREDICTED BY IDOCK:   -2.48 KCAL/MOL
REMARK 922        TOTAL FREE ENERGY PREDICTED BY IDOCK:   -2.92 KCAL/MOL
REMARK 923 INTER-LIGAND FREE ENERGY PREDICTED BY IDOCK:   -3.02 KCAL/MOL
REMARK 924 INTRA-LIGAND FREE ENERGY PREDICTED BY IDOCK:    0.10 KCAL/MOL
REMARK 927      BINDING AFFINITY PREDICTED BY RF-SCORE:    0.00 PKD
ROOT
HETATM    1  C   UNL     1      -6.918   9.434  68.218  1.00  0.00    -0.071 C  
HETATM    2  C   UNL     1      -6.735   7.993  68.584  1.00  0.00    -0.062 A  
HETATM    3  C   UNL     1      -7.797   7.217  69.051  1.00  0.00    -0.118 A  
HETATM    4  N   UNL     1      -9.063   7.414  68.420  1.00  0.00    -0.133 N  
HETATM    5  C   UNL     1     -10.124   7.773  69.219  1.00  0.00    -0.199 C  
HETATM    6  H   UNL     1      -9.177   7.293  67.414  1.00  0.00     0.000 HD 
HETATM    7  C   UNL     1     -10.586   6.831  70.257  1.00  0.00    -0.251 A  
HETATM    8  O   UNL     1     -10.712   8.835  69.064  1.00  0.00    -0.203 OA 
HETATM    9  C   UNL     1      -9.723   6.034  71.005  1.00  0.00    -0.177 A  
HETATM   10  N   UNL     1      -8.598   5.361  70.430  1.00  0.00    -0.122 NA 
HETATM   11  N   UNL     1     -10.086   5.665  72.265  1.00  0.00    -0.183 NA 
HETATM   12  C   UNL     1      -7.562   5.984  69.672  1.00  0.00    -0.089 A  
HETATM   13  C   UNL     1     -11.330   5.963  72.703  1.00  0.00    -0.292 A  
HETATM   14  C   UNL     1      -5.499   7.375  68.474  1.00  0.00    -0.022 A  
HETATM   15  C   UNL     1      -5.373   6.068  68.914  1.00  0.00    -0.004 A  
HETATM   16  C   UNL     1     -12.312   6.491  71.895  1.00  0.00    -0.339 A  
HETATM   17  N   UNL     1      -6.356   5.389  69.543  1.00  0.00    -0.029 NA 
HETATM   18  C   UNL     1     -11.928   6.942  70.645  1.00  0.00    -0.400 A  
ENDROOT
BRANCH  10  19
HETATM   19  C   UNL     1      -8.923   3.973  69.988  1.00  0.00    -0.097 C  
HETATM   20  C   UNL     1      -8.290   2.744  70.570  1.00  0.00    -0.080 C  
HETATM   21  C   UNL     1      -9.736   3.029  70.836  1.00  0.00    -0.155 C  
ENDBRANCH  10  19
TORSDOF 1
ENDMDL
MODEL      138
REMARK 921   NORMALIZED FREE ENERGY PREDICTED BY IDOCK:   -2.41 KCAL/MOL
REMARK 922        TOTAL FREE ENERGY PREDICTED BY IDOCK:   -2.85 KCAL/MOL
REMARK 923 INTER-LIGAND FREE ENERGY PREDICTED BY IDOCK:   -2.54 KCAL/MOL
REMARK 924 INTRA-LIGAND FREE ENERGY PREDICTED BY IDOCK:   -0.30 KCAL/MOL
REMARK 927      BINDING AFFINITY PREDICTED BY RF-SCORE:    0.00 PKD
ROOT
HETATM    1  C   UNL     1      -8.771   7.434  65.600  1.00  0.00    -0.099 C  
HETATM    2  C   UNL     1      -8.100   8.075  66.775  1.00  0.00    -0.107 A  
HETATM    3  C   UNL     1      -8.203   7.537  68.059  1.00  0.00    -0.124 A  
HETATM    4  N   UNL     1      -8.145   6.114  68.166  1.00  0.00    -0.110 N  
HETATM    5  C   UNL     1      -9.207   5.476  68.764  1.00  0.00    -0.122 C  
HETATM    6  H   UNL     1      -7.345   5.590  67.812  1.00  0.00     0.000 HD 
HETATM    7  C   UNL     1      -9.496   5.750  70.184  1.00  0.00    -0.195 A  
HETATM    8  O   UNL     1      -9.890   4.663  68.155  1.00  0.00    -0.152 OA 
HETATM    9  C   UNL     1      -9.358   7.009  70.764  1.00  0.00    -0.161 A  
HETATM   10  N   UNL     1      -8.251   7.873  70.482  1.00  0.00    -0.116 NA 
HETATM   11  N   UNL     1     -10.149   7.343  71.821  1.00  0.00    -0.176 NA 
HETATM   12  C   UNL     1      -7.841   8.291  69.181  1.00  0.00    -0.106 A  
HETATM   13  C   UNL     1     -10.946   6.397  72.369  1.00  0.00    -0.250 A  
HETATM   14  C   UNL     1      -7.349   9.232  66.632  1.00  0.00    -0.086 A  
HETATM   15  C   UNL     1      -6.829   9.826  67.770  1.00  0.00    -0.081 A  
HETATM   16  C   UNL     1     -10.897   5.067  72.014  1.00  0.00    -0.150 A  
HETATM   17  N   UNL     1      -7.097   9.408  69.025  1.00  0.00    -0.065 NA 
HETATM   18  C   UNL     1     -10.160   4.738  70.890  1.00  0.00    -0.275 A  
ENDROOT
BRANCH  10  19
HETATM   19  C   UNL     1      -7.127   7.698  71.448  1.00  0.00    -0.058 C  
HETATM   20  C   UNL     1      -6.945   6.478  72.302  1.00  0.00    -0.073 C  
HETATM   21  C   UNL     1      -5.983   6.753  71.188  1.00  0.00    -0.036 C  
ENDBRANCH  10  19
TORSDOF 1
ENDMDL
MODEL      139
REMARK 921   NORMALIZED FREE ENERGY PREDICTED BY IDOCK:   -2.39 KCAL/MOL
REMARK 922        TOTAL FREE ENERGY PREDICTED BY IDOCK:   -2.82 KCAL/MOL
REMARK 923 INTER-LIGAND FREE ENERGY PREDICTED BY IDOCK:   -2.52 KCAL/MOL
REMARK 924 INTRA-LIGAND FREE ENERGY PREDICTED BY IDOCK:   -0.30 KCAL/MOL
REMARK 927      BINDING AFFINITY PREDICTED BY RF-SCORE:    0.00 PKD
ROOT
HETATM    1  C   UNL     1     -10.108   9.503  70.385  1.00  0.00    -0.329 C  
HETATM    2  C   UNL     1      -8.759   9.203  69.807  1.00  0.00    -0.155 A  
HETATM    3  C   UNL     1      -8.513   8.025  69.100  1.00  0.00    -0.136 A  
HETATM    4  N   UNL     1      -9.544   7.576  68.220  1.00  0.00    -0.150 N  
HETATM    5  C   UNL     1     -10.048   6.313  68.422  1.00  0.00    -0.157 C  
HETATM    6  H   UNL     1      -9.893   8.171  67.469  1.00  0.00     0.000 HD 
HETATM    7  C   UNL     1      -9.154   5.152  68.256  1.00  0.00    -0.128 A  
HETATM    8  O   UNL     1     -11.227   6.131  68.700  1.00  0.00    -0.356 OA 
HETATM    9  C   UNL     1      -7.815   5.156  68.641  1.00  0.00    -0.079 A  
HETATM   10  N   UNL     1      -6.949   6.273  68.414  1.00  0.00    -0.077 NA 
HETATM   11  N   UNL     1      -7.229   3.985  69.015  1.00  0.00    -0.053 NA 
HETATM   12  C   UNL     1      -7.201   7.613  68.834  1.00  0.00    -0.081 A  
HETATM   13  C   UNL     1      -7.917   2.830  68.868  1.00  0.00    -0.052 A  
HETATM   14  C   UNL     1      -7.701  10.087  69.954  1.00  0.00    -0.183 A  
HETATM   15  C   UNL     1      -6.457   9.711  69.476  1.00  0.00    -0.045 A  
HETATM   16  C   UNL     1      -9.130   2.748  68.220  1.00  0.00    -0.227 A  
HETATM   17  N   UNL     1      -6.183   8.491  68.968  1.00  0.00    -0.043 NA 
HETATM   18  C   UNL     1      -9.766   3.938  67.914  1.00  0.00    -0.133 A  
ENDROOT
BRANCH  10  19
HETATM   19  C   UNL     1      -6.207   6.170  67.123  1.00  0.00    -0.029 C  
HETATM   20  C   UNL     1      -6.727   5.442  65.919  1.00  0.00    -0.056 C  
HETATM   21  C   UNL     1      -6.621   6.935  65.893  1.00  0.00    -0.051 C  
ENDBRANCH  10  19
TORSDOF 1
ENDMDL
MODEL      140
REMARK 921   NORMALIZED FREE ENERGY PREDICTED BY IDOCK:   -2.37 KCAL/MOL
REMARK 922        TOTAL FREE ENERGY PREDICTED BY IDOCK:   -2.81 KCAL/MOL
REMARK 923 INTER-LIGAND FREE ENERGY PREDICTED BY IDOCK:   -2.65 KCAL/MOL
REMARK 924 INTRA-LIGAND FREE ENERGY PREDICTED BY IDOCK:   -0.16 KCAL/MOL
REMARK 927      BINDING AFFINITY PREDICTED BY RF-SCORE:    0.00 PKD
ROOT
HETATM    1  C   UNL     1     -12.368   7.516  70.758  1.00  0.00    -0.113 C  
HETATM    2  C   UNL     1     -11.254   6.811  70.049  1.00  0.00    -0.380 A  
HETATM    3  C   UNL     1     -10.099   6.409  70.721  1.00  0.00    -0.187 A  
HETATM    4  N   UNL     1     -10.271   5.875  72.034  1.00  0.00    -0.193 N  
HETATM    5  C   UNL     1      -9.601   6.490  73.065  1.00  0.00    -0.149 C  
HETATM    6  H   UNL     1     -10.870   5.067  72.201  1.00  0.00     0.000 HD 
HETATM    7  C   UNL     1      -8.126   6.483  73.063  1.00  0.00    -0.107 A  
HETATM    8  O   UNL     1     -10.200   7.009  73.999  1.00  0.00    -0.349 OA 
HETATM    9  C   UNL     1      -7.363   6.611  71.904  1.00  0.00    -0.086 A  
HETATM   10  N   UNL     1      -7.696   5.948  70.681  1.00  0.00    -0.094 NA 
HETATM   11  N   UNL     1      -6.124   7.173  71.986  1.00  0.00    -0.037 NA 
HETATM   12  C   UNL     1      -8.952   6.035  70.009  1.00  0.00    -0.146 A  
HETATM   13  C   UNL     1      -5.613   7.461  73.204  1.00  0.00    -0.044 A  
HETATM   14  C   UNL     1     -11.328   6.530  68.693  1.00  0.00    -0.203 A  
HETATM   15  C   UNL     1     -10.228   5.957  68.076  1.00  0.00    -0.184 A  
HETATM   16  C   UNL     1      -6.210   7.082  74.386  1.00  0.00    -0.078 A  
HETATM   17  N   UNL     1      -9.044   5.751  68.692  1.00  0.00    -0.115 NA 
HETATM   18  C   UNL     1      -7.501   6.588  74.312  1.00  0.00    -0.098 A  
ENDROOT
BRANCH  10  19
HETATM   19  C   UNL     1      -7.026   4.621  70.547  1.00  0.00    -0.037 C  
HETATM   20  C   UNL     1      -6.026   4.090  71.531  1.00  0.00    -0.013 C  
HETATM   21  C   UNL     1      -7.376   3.450  71.429  1.00  0.00    -0.036 C  
ENDBRANCH  10  19
TORSDOF 1
ENDMDL
MODEL      141
REMARK 921   NORMALIZED FREE ENERGY PREDICTED BY IDOCK:   -2.33 KCAL/MOL
REMARK 922        TOTAL FREE ENERGY PREDICTED BY IDOCK:   -2.76 KCAL/MOL
REMARK 923 INTER-LIGAND FREE ENERGY PREDICTED BY IDOCK:   -2.84 KCAL/MOL
REMARK 924 INTRA-LIGAND FREE ENERGY PREDICTED BY IDOCK:    0.08 KCAL/MOL
REMARK 927      BINDING AFFINITY PREDICTED BY RF-SCORE:    0.00 PKD
ROOT
HETATM    1  C   UNL     1      -8.661   9.067  64.028  1.00  0.00    -0.115 C  
HETATM    2  C   UNL     1      -7.871   9.323  65.274  1.00  0.00    -0.105 A  
HETATM    3  C   UNL     1      -8.147   8.652  66.465  1.00  0.00    -0.103 A  
HETATM    4  N   UNL     1      -8.478   7.267  66.361  1.00  0.00    -0.123 N  
HETATM    5  C   UNL     1      -9.687   6.860  66.875  1.00  0.00    -0.171 C  
HETATM    6  H   UNL     1      -7.841   6.603  65.921  1.00  0.00     0.000 HD 
HETATM    7  C   UNL     1      -9.926   6.991  68.325  1.00  0.00    -0.165 A  
HETATM    8  O   UNL     1     -10.549   6.359  66.165  1.00  0.00     0.132 OA 
HETATM    9  C   UNL     1      -9.467   8.067  69.082  1.00  0.00    -0.155 A  
HETATM   10  N   UNL     1      -8.162   8.631  68.912  1.00  0.00    -0.121 NA 
HETATM   11  N   UNL     1     -10.164   8.444  70.189  1.00  0.00    -0.192 NA 
HETATM   12  C   UNL     1      -7.622   9.108  67.681  1.00  0.00    -0.085 A  
HETATM   13  C   UNL     1     -11.199   7.680  70.605  1.00  0.00    -0.266 A  
HETATM   14  C   UNL     1      -6.833  10.242  65.290  1.00  0.00    -0.131 A  
HETATM   15  C   UNL     1      -6.200  10.501  66.494  1.00  0.00    -0.085 A  
HETATM   16  C   UNL     1     -11.503   6.453  70.057  1.00  0.00    -0.496 A  
HETATM   17  N   UNL     1      -6.600   9.992  67.679  1.00  0.00    -0.067 NA 
HETATM   18  C   UNL     1     -10.855   6.105  68.886  1.00  0.00    -0.406 A  
ENDROOT
BRANCH  10  19
HETATM   19  C   UNL     1      -7.150   8.019  69.823  1.00  0.00    -0.060 C  
HETATM   20  C   UNL     1      -6.479   8.762  70.941  1.00  0.00    -0.052 C  
HETATM   21  C   UNL     1      -7.461   7.677  71.257  1.00  0.00    -0.079 C  
ENDBRANCH  10  19
TORSDOF 1
ENDMDL
MODEL      142
REMARK 921   NORMALIZED FREE ENERGY PREDICTED BY IDOCK:   -2.24 KCAL/MOL
REMARK 922        TOTAL FREE ENERGY PREDICTED BY IDOCK:   -2.67 KCAL/MOL
REMARK 923 INTER-LIGAND FREE ENERGY PREDICTED BY IDOCK:   -2.43 KCAL/MOL
REMARK 924 INTRA-LIGAND FREE ENERGY PREDICTED BY IDOCK:   -0.24 KCAL/MOL
REMARK 927      BINDING AFFINITY PREDICTED BY RF-SCORE:    0.00 PKD
ROOT
HETATM    1  C   UNL     1      -7.860   3.819  73.820  1.00  0.00    -0.079 C  
HETATM    2  C   UNL     1      -8.004   3.610  72.344  1.00  0.00    -0.069 A  
HETATM    3  C   UNL     1      -8.113   4.685  71.461  1.00  0.00    -0.102 A  
HETATM    4  N   UNL     1      -7.288   5.820  71.726  1.00  0.00    -0.091 N  
HETATM    5  C   UNL     1      -7.911   7.034  71.898  1.00  0.00    -0.098 C  
HETATM    6  H   UNL     1      -6.274   5.734  71.785  1.00  0.00     0.000 HD 
HETATM    7  C   UNL     1      -8.661   7.618  70.770  1.00  0.00    -0.139 A  
HETATM    8  O   UNL     1      -7.826   7.654  72.950  1.00  0.00    -0.095 OA 
HETATM    9  C   UNL     1      -9.418   6.859  69.880  1.00  0.00    -0.156 A  
HETATM   10  N   UNL     1      -8.970   5.602  69.361  1.00  0.00    -0.114 NA 
HETATM   11  N   UNL     1     -10.500   7.426  69.278  1.00  0.00    -0.217 NA 
HETATM   12  C   UNL     1      -8.549   4.487  70.145  1.00  0.00    -0.077 A  
HETATM   13  C   UNL     1     -10.728   8.748  69.449  1.00  0.00    -0.169 A  
HETATM   14  C   UNL     1      -8.036   2.336  71.798  1.00  0.00    -0.048 A  
HETATM   15  C   UNL     1      -8.262   2.206  70.438  1.00  0.00    -0.041 A  
HETATM   16  C   UNL     1      -9.844   9.594  70.081  1.00  0.00    -0.310 A  
HETATM   17  N   UNL     1      -8.560   3.241  69.624  1.00  0.00    -0.061 NA 
HETATM   18  C   UNL     1      -8.790   9.013  70.763  1.00  0.00    -0.281 A  
ENDROOT
BRANCH  10  19
HETATM   19  C   UNL     1      -8.242   5.743  68.065  1.00  0.00    -0.104 C  
HETATM   20  C   UNL     1      -7.863   7.064  67.462  1.00  0.00    -0.112 C  
HETATM   21  C   UNL     1      -6.796   6.158  67.995  1.00  0.00    -0.067 C  
ENDBRANCH  10  19
TORSDOF 1
ENDMDL
MODEL      143
REMARK 921   NORMALIZED FREE ENERGY PREDICTED BY IDOCK:   -2.16 KCAL/MOL
REMARK 922        TOTAL FREE ENERGY PREDICTED BY IDOCK:   -2.59 KCAL/MOL
REMARK 923 INTER-LIGAND FREE ENERGY PREDICTED BY IDOCK:   -3.11 KCAL/MOL
REMARK 924 INTRA-LIGAND FREE ENERGY PREDICTED BY IDOCK:    0.52 KCAL/MOL
REMARK 927      BINDING AFFINITY PREDICTED BY RF-SCORE:    0.00 PKD
ROOT
HETATM    1  C   UNL     1      -6.749   3.378  73.760  1.00  0.00    -0.035 C  
HETATM    2  C   UNL     1      -7.635   4.556  73.494  1.00  0.00    -0.083 A  
HETATM    3  C   UNL     1      -8.431   4.628  72.350  1.00  0.00    -0.115 A  
HETATM    4  N   UNL     1      -9.071   3.420  71.936  1.00  0.00    -0.104 N  
HETATM    5  C   UNL     1      -8.815   2.968  70.662  1.00  0.00    -0.084 C  
HETATM    6  H   UNL     1      -9.694   2.911  72.562  1.00  0.00     0.000 HD 
HETATM    7  C   UNL     1      -9.235   3.794  69.514  1.00  0.00    -0.226 A  
HETATM    8  O   UNL     1      -8.283   1.884  70.462  1.00  0.00    -0.041 OA 
HETATM    9  C   UNL     1      -9.167   5.186  69.509  1.00  0.00    -0.119 A  
HETATM   10  N   UNL     1      -9.537   5.983  70.639  1.00  0.00    -0.171 NA 
HETATM   11  N   UNL     1      -8.991   5.836  68.325  1.00  0.00    -0.115 NA 
HETATM   12  C   UNL     1      -9.010   5.841  71.957  1.00  0.00    -0.138 A  
HETATM   13  C   UNL     1      -9.028   5.126  67.174  1.00  0.00    -0.112 A  
HETATM   14  C   UNL     1      -7.694   5.625  74.375  1.00  0.00    -0.098 A  
HETATM   15  C   UNL     1      -8.461   6.724  74.028  1.00  0.00    -0.136 A  
HETATM   16  C   UNL     1      -9.383   3.797  67.115  1.00  0.00    -0.223 A  
HETATM   17  N   UNL     1      -9.073   6.867  72.834  1.00  0.00    -0.130 NA 
HETATM   18  C   UNL     1      -9.481   3.114  68.315  1.00  0.00    -0.215 A  
ENDROOT
BRANCH  10  19
HETATM   19  C   UNL     1     -10.967   6.409  70.598  1.00  0.00    -0.298 C  
HETATM   20  C   UNL     1     -11.878   6.382  71.789  1.00  0.00    -0.374 C  
HETATM   21  C   UNL     1     -11.441   7.696  71.220  1.00  0.00    -0.293 C  
ENDBRANCH  10  19
TORSDOF 1
ENDMDL
MODEL      144
REMARK 921   NORMALIZED FREE ENERGY PREDICTED BY IDOCK:   -2.15 KCAL/MOL
REMARK 922        TOTAL FREE ENERGY PREDICTED BY IDOCK:   -2.57 KCAL/MOL
REMARK 923 INTER-LIGAND FREE ENERGY PREDICTED BY IDOCK:   -2.47 KCAL/MOL
REMARK 924 INTRA-LIGAND FREE ENERGY PREDICTED BY IDOCK:   -0.10 KCAL/MOL
REMARK 927      BINDING AFFINITY PREDICTED BY RF-SCORE:    0.00 PKD
ROOT
HETATM    1  C   UNL     1     -11.221   6.231  68.486  1.00  0.00    -0.305 C  
HETATM    2  C   UNL     1     -10.167   5.849  69.478  1.00  0.00    -0.288 A  
HETATM    3  C   UNL     1      -9.283   6.791  70.006  1.00  0.00    -0.158 A  
HETATM    4  N   UNL     1      -9.826   8.073  70.324  1.00  0.00    -0.183 N  
HETATM    5  C   UNL     1      -9.258   9.172  69.723  1.00  0.00    -0.171 C  
HETATM    6  H   UNL     1     -10.606   8.170  70.973  1.00  0.00     0.000 HD 
HETATM    7  C   UNL     1      -7.849   9.498  70.015  1.00  0.00    -0.157 A  
HETATM    8  O   UNL     1      -9.905   9.903  68.983  1.00  0.00    -0.173 OA 
HETATM    9  C   UNL     1      -6.861   8.531  70.185  1.00  0.00    -0.039 A  
HETATM   10  N   UNL     1      -7.078   7.324  70.923  1.00  0.00    -0.067 NA 
HETATM   11  N   UNL     1      -5.572   8.838  69.867  1.00  0.00    -0.028 NA 
HETATM   12  C   UNL     1      -8.126   6.386  70.682  1.00  0.00    -0.113 A  
HETATM   13  C   UNL     1      -5.264  10.111  69.530  1.00  0.00    -0.038 A  
HETATM   14  C   UNL     1     -10.027   4.538  69.911  1.00  0.00    -0.273 A  
HETATM   15  C   UNL     1      -8.977   4.232  70.759  1.00  0.00    -0.101 A  
HETATM   16  C   UNL     1      -6.154  11.158  69.632  1.00  0.00    -0.093 A  
HETATM   17  N   UNL     1      -8.013   5.109  71.109  1.00  0.00    -0.100 NA 
HETATM   18  C   UNL     1      -7.479  10.841  69.873  1.00  0.00     0.060 A  
ENDROOT
BRANCH  10  19
HETATM   19  C   UNL     1      -6.698   7.454  72.361  1.00  0.00    -0.055 C  
HETATM   20  C   UNL     1      -5.908   8.604  72.912  1.00  0.00    -0.080 C  
HETATM   21  C   UNL     1      -7.352   8.453  73.279  1.00  0.00    -0.111 C  
ENDBRANCH  10  19
TORSDOF 1
ENDMDL
MODEL      145
REMARK 921   NORMALIZED FREE ENERGY PREDICTED BY IDOCK:   -2.12 KCAL/MOL
REMARK 922        TOTAL FREE ENERGY PREDICTED BY IDOCK:   -2.54 KCAL/MOL
REMARK 923 INTER-LIGAND FREE ENERGY PREDICTED BY IDOCK:   -2.75 KCAL/MOL
REMARK 924 INTRA-LIGAND FREE ENERGY PREDICTED BY IDOCK:    0.20 KCAL/MOL
REMARK 927      BINDING AFFINITY PREDICTED BY RF-SCORE:    0.00 PKD
ROOT
HETATM    1  C   UNL     1      -6.886   6.374  71.526  1.00  0.00    -0.067 C  
HETATM    2  C   UNL     1      -7.923   5.693  70.688  1.00  0.00    -0.104 A  
HETATM    3  C   UNL     1      -8.226   6.133  69.399  1.00  0.00    -0.113 A  
HETATM    4  N   UNL     1      -7.128   6.553  68.589  1.00  0.00    -0.080 N  
HETATM    5  C   UNL     1      -7.159   7.833  68.087  1.00  0.00    -0.085 C  
HETATM    6  H   UNL     1      -6.348   5.927  68.389  1.00  0.00     0.000 HD 
HETATM    7  C   UNL     1      -8.229   8.203  67.141  1.00  0.00    -0.120 A  
HETATM    8  O   UNL     1      -6.301   8.657  68.378  1.00  0.00    -0.053 OA 
HETATM    9  C   UNL     1      -9.540   7.743  67.251  1.00  0.00    -0.161 A  
HETATM   10  N   UNL     1      -9.858   6.389  67.593  1.00  0.00    -0.117 NA 
HETATM   11  N   UNL     1     -10.556   8.515  66.777  1.00  0.00    -0.242 NA 
HETATM   12  C   UNL     1      -9.388   5.698  68.749  1.00  0.00    -0.123 A  
HETATM   13  C   UNL     1     -10.259   9.640  66.087  1.00  0.00    -0.205 A  
HETATM   14  C   UNL     1      -8.626   4.596  71.164  1.00  0.00    -0.128 A  
HETATM   15  C   UNL     1      -9.635   4.067  70.378  1.00  0.00    -0.195 A  
HETATM   16  C   UNL     1      -8.980   9.978  65.704  1.00  0.00    -0.203 A  
HETATM   17  N   UNL     1     -10.052   4.619  69.218  1.00  0.00    -0.162 NA 
HETATM   18  C   UNL     1      -7.941   9.246  66.251  1.00  0.00    -0.107 A  
ENDROOT
BRANCH  10  19
HETATM   19  C   UNL     1     -10.031   5.520  66.393  1.00  0.00    -0.172 C  
HETATM   20  C   UNL     1      -8.895   4.839  65.687  1.00  0.00    -0.135 C  
HETATM   21  C   UNL     1      -9.886   4.022  66.457  1.00  0.00    -0.175 C  
ENDBRANCH  10  19
TORSDOF 1
ENDMDL
MODEL      146
REMARK 921   NORMALIZED FREE ENERGY PREDICTED BY IDOCK:   -1.88 KCAL/MOL
REMARK 922        TOTAL FREE ENERGY PREDICTED BY IDOCK:   -2.29 KCAL/MOL
REMARK 923 INTER-LIGAND FREE ENERGY PREDICTED BY IDOCK:   -2.62 KCAL/MOL
REMARK 924 INTRA-LIGAND FREE ENERGY PREDICTED BY IDOCK:    0.33 KCAL/MOL
REMARK 927      BINDING AFFINITY PREDICTED BY RF-SCORE:    0.00 PKD
ROOT
HETATM    1  C   UNL     1      -9.291  13.590  65.486  1.00  0.00     0.325 C  
HETATM    2  C   UNL     1     -10.392  13.414  66.485  1.00  0.00    -0.284 A  
HETATM    3  C   UNL     1     -10.291  12.495  67.530  1.00  0.00    -0.220 A  
HETATM    4  N   UNL     1      -9.018  12.382  68.166  1.00  0.00    -0.193 N  
HETATM    5  C   UNL     1      -8.423  11.142  68.186  1.00  0.00    -0.138 C  
HETATM    6  H   UNL     1      -8.566  13.191  68.591  1.00  0.00     0.000 HD 
HETATM    7  C   UNL     1      -9.085  10.044  68.916  1.00  0.00    -0.159 A  
HETATM    8  O   UNL     1      -7.344  10.941  67.644  1.00  0.00    -0.091 OA 
HETATM    9  C   UNL     1     -10.467   9.869  68.945  1.00  0.00    -0.211 A  
HETATM   10  N   UNL     1     -11.382  10.959  69.092  1.00  0.00    -0.258 NA 
HETATM   11  N   UNL     1     -10.973   8.613  69.094  1.00  0.00    -0.025 NA 
HETATM   12  C   UNL     1     -11.423  12.121  68.264  1.00  0.00    -0.305 A  
HETATM   13  C   UNL     1     -10.126   7.590  69.351  1.00  0.00    -0.190 A  
HETATM   14  C   UNL     1     -11.558  14.161  66.409  1.00  0.00    -0.380 A  
HETATM   15  C   UNL     1     -12.576  13.889  67.307  1.00  0.00     0.243 A  
HETATM   16  C   UNL     1      -8.786   7.765  69.620  1.00  0.00    -0.139 A  
HETATM   17  N   UNL     1     -12.547  12.868  68.189  1.00  0.00     0.415 NA 
HETATM   18  C   UNL     1      -8.253   9.021  69.390  1.00  0.00    -0.117 A  
ENDROOT
BRANCH  10  19
HETATM   19  C   UNL     1     -11.744  11.216  70.518  1.00  0.00    -0.293 C  
HETATM   20  C   UNL     1     -12.950  12.000  70.942  1.00  0.00    -0.087 C  
HETATM   21  C   UNL     1     -12.900  10.524  71.191  1.00  0.00    -0.513 C  
ENDBRANCH  10  19
TORSDOF 1
ENDMDL
MODEL      147
REMARK 921   NORMALIZED FREE ENERGY PREDICTED BY IDOCK:   -1.87 KCAL/MOL
REMARK 922        TOTAL FREE ENERGY PREDICTED BY IDOCK:   -2.28 KCAL/MOL
REMARK 923 INTER-LIGAND FREE ENERGY PREDICTED BY IDOCK:   -2.36 KCAL/MOL
REMARK 924 INTRA-LIGAND FREE ENERGY PREDICTED BY IDOCK:    0.07 KCAL/MOL
REMARK 927      BINDING AFFINITY PREDICTED BY RF-SCORE:    0.00 PKD
ROOT
HETATM    1  C   UNL     1     -10.506  11.993  62.960  1.00  0.00    -0.092 C  
HETATM    2  C   UNL     1      -9.483  10.942  63.264  1.00  0.00    -0.347 A  
HETATM    3  C   UNL     1      -9.455  10.283  64.493  1.00  0.00    -0.298 A  
HETATM    4  N   UNL     1     -10.716   9.929  65.062  1.00  0.00     0.360 N  
HETATM    5  C   UNL     1     -11.005  10.408  66.318  1.00  0.00     0.146 C  
HETATM    6  H   UNL     1     -11.378   9.343  64.555  1.00  0.00     0.000 HD 
HETATM    7  C   UNL     1     -10.170   9.978  67.456  1.00  0.00    -0.260 A  
HETATM    8  O   UNL     1     -11.958  11.151  66.517  1.00  0.00     0.031 OA 
HETATM    9  C   UNL     1      -8.793   9.788  67.365  1.00  0.00    -0.132 A  
HETATM   10  N   UNL     1      -8.173   9.151  66.243  1.00  0.00    -0.110 NA 
HETATM   11  N   UNL     1      -8.023   9.977  68.472  1.00  0.00    -0.099 NA 
HETATM   12  C   UNL     1      -8.333   9.539  64.880  1.00  0.00    -0.146 A  
HETATM   13  C   UNL     1      -8.627  10.204  69.661  1.00  0.00    -0.153 A  
HETATM   14  C   UNL     1      -8.521  10.585  62.331  1.00  0.00    -0.253 A  
HETATM   15  C   UNL     1      -7.547   9.673  62.703  1.00  0.00    -0.111 A  
HETATM   16  C   UNL     1      -9.989  10.109  69.849  1.00  0.00    -0.250 A  
HETATM   17  N   UNL     1      -7.412   9.187  63.955  1.00  0.00    -0.107 NA 
HETATM   18  C   UNL     1     -10.778  10.002  68.718  1.00  0.00    -0.250 A  
ENDROOT
BRANCH  10  19
HETATM   19  C   UNL     1      -8.003   7.681  66.441  1.00  0.00    -0.107 C  
HETATM   20  C   UNL     1      -6.857   7.069  67.191  1.00  0.00    -0.065 C  
HETATM   21  C   UNL     1      -8.235   7.016  67.772  1.00  0.00    -0.114 C  
ENDBRANCH  10  19
TORSDOF 1
ENDMDL
MODEL      148
REMARK 921   NORMALIZED FREE ENERGY PREDICTED BY IDOCK:   -1.84 KCAL/MOL
REMARK 922        TOTAL FREE ENERGY PREDICTED BY IDOCK:   -2.25 KCAL/MOL
REMARK 923 INTER-LIGAND FREE ENERGY PREDICTED BY IDOCK:   -1.94 KCAL/MOL
REMARK 924 INTRA-LIGAND FREE ENERGY PREDICTED BY IDOCK:   -0.30 KCAL/MOL
REMARK 927      BINDING AFFINITY PREDICTED BY RF-SCORE:    0.00 PKD
ROOT
HETATM    1  C   UNL     1      -9.874  10.919  69.413  1.00  0.00    -0.055 C  
HETATM    2  C   UNL     1      -8.631  10.850  68.581  1.00  0.00    -0.153 A  
HETATM    3  C   UNL     1      -8.329   9.726  67.811  1.00  0.00    -0.114 A  
HETATM    4  N   UNL     1      -9.419   9.101  67.131  1.00  0.00    -0.148 N  
HETATM    5  C   UNL     1      -9.655   7.772  67.393  1.00  0.00    -0.151 C  
HETATM    6  H   UNL     1     -10.001   9.622  66.476  1.00  0.00     0.000 HD 
HETATM    7  C   UNL     1      -8.626   6.779  67.030  1.00  0.00    -0.114 A  
HETATM    8  O   UNL     1     -10.710   7.393  67.885  1.00  0.00    -0.206 OA 
HETATM    9  C   UNL     1      -7.258   7.015  67.154  1.00  0.00    -0.089 A  
HETATM   10  N   UNL     1      -6.653   8.261  66.794  1.00  0.00    -0.056 NA 
HETATM   11  N   UNL     1      -6.422   5.964  67.379  1.00  0.00    -0.045 NA 
HETATM   12  C   UNL     1      -7.043   9.542  67.289  1.00  0.00    -0.086 A  
HETATM   13  C   UNL     1      -6.920   4.707  67.336  1.00  0.00    -0.061 A  
HETATM   14  C   UNL     1      -7.729  11.902  68.547  1.00  0.00    -0.135 A  
HETATM   15  C   UNL     1      -6.554  11.741  67.832  1.00  0.00    -0.068 A  
HETATM   16  C   UNL     1      -8.203   4.415  66.929  1.00  0.00    -0.102 A  
HETATM   17  N   UNL     1      -6.181  10.582  67.250  1.00  0.00    -0.057 NA 
HETATM   18  C   UNL     1      -9.078   5.477  66.780  1.00  0.00    -0.118 A  
ENDROOT
BRANCH  10  19
HETATM   19  C   UNL     1      -6.165   8.277  65.384  1.00  0.00    -0.045 C  
HETATM   20  C   UNL     1      -6.766   7.449  64.286  1.00  0.00    -0.051 C  
HETATM   21  C   UNL     1      -6.940   8.936  64.272  1.00  0.00    -0.089 C  
ENDBRANCH  10  19
TORSDOF 1
ENDMDL
MODEL      149
REMARK 921   NORMALIZED FREE ENERGY PREDICTED BY IDOCK:   -1.54 KCAL/MOL
REMARK 922        TOTAL FREE ENERGY PREDICTED BY IDOCK:   -1.93 KCAL/MOL
REMARK 923 INTER-LIGAND FREE ENERGY PREDICTED BY IDOCK:   -2.16 KCAL/MOL
REMARK 924 INTRA-LIGAND FREE ENERGY PREDICTED BY IDOCK:    0.24 KCAL/MOL
REMARK 927      BINDING AFFINITY PREDICTED BY RF-SCORE:    0.00 PKD
ROOT
HETATM    1  C   UNL     1     -11.508   6.736  69.059  1.00  0.00    -0.072 C  
HETATM    2  C   UNL     1     -10.512   5.735  68.559  1.00  0.00    -0.290 A  
HETATM    3  C   UNL     1      -9.592   5.129  69.415  1.00  0.00    -0.161 A  
HETATM    4  N   UNL     1     -10.066   4.756  70.709  1.00  0.00    -0.230 N  
HETATM    5  C   UNL     1      -9.414   5.278  71.802  1.00  0.00    -0.148 C  
HETATM    6  H   UNL     1     -10.860   4.126  70.819  1.00  0.00     0.000 HD 
HETATM    7  C   UNL     1      -7.998   4.925  72.024  1.00  0.00    -0.110 A  
HETATM    8  O   UNL     1      -9.990   5.994  72.611  1.00  0.00    -0.174 OA 
HETATM    9  C   UNL     1      -7.076   4.780  70.990  1.00  0.00    -0.047 A  
HETATM   10  N   UNL     1      -7.390   4.117  69.760  1.00  0.00    -0.049 NA 
HETATM   11  N   UNL     1      -5.761   5.041  71.232  1.00  0.00    -0.012 NA 
HETATM   12  C   UNL     1      -8.484   4.442  68.903  1.00  0.00    -0.083 A  
HETATM   13  C   UNL     1      -5.366   5.297  72.500  1.00  0.00    -0.016 A  
HETATM   14  C   UNL     1     -10.466   5.373  67.221  1.00  0.00    -0.274 A  
HETATM   15  C   UNL     1      -9.465   4.512  66.805  1.00  0.00    -0.174 A  
HETATM   16  C   UNL     1      -6.193   5.164  73.593  1.00  0.00    -0.055 A  
HETATM   17  N   UNL     1      -8.462   4.084  67.601  1.00  0.00    -0.097 NA 
HETATM   18  C   UNL     1      -7.543   4.981  73.347  1.00  0.00    -0.089 A  
ENDROOT
BRANCH  10  19
HETATM   19  C   UNL     1      -7.051   2.664  69.788  1.00  0.00    -0.036 C  
HETATM   20  C   UNL     1      -6.503   1.914  68.611  1.00  0.00    -0.029 C  
HETATM   21  C   UNL     1      -5.627   2.171  69.798  1.00  0.00    -0.017 C  
ENDBRANCH  10  19
TORSDOF 1
ENDMDL
MODEL      150
REMARK 921   NORMALIZED FREE ENERGY PREDICTED BY IDOCK:   -1.54 KCAL/MOL
REMARK 922        TOTAL FREE ENERGY PREDICTED BY IDOCK:   -1.93 KCAL/MOL
REMARK 923 INTER-LIGAND FREE ENERGY PREDICTED BY IDOCK:   -1.82 KCAL/MOL
REMARK 924 INTRA-LIGAND FREE ENERGY PREDICTED BY IDOCK:   -0.10 KCAL/MOL
REMARK 927      BINDING AFFINITY PREDICTED BY RF-SCORE:    0.00 PKD
ROOT
HETATM    1  C   UNL     1      -5.368   8.985  70.334  1.00  0.00    -0.026 C  
HETATM    2  C   UNL     1      -6.069   8.839  69.018  1.00  0.00    -0.043 A  
HETATM    3  C   UNL     1      -6.853   7.722  68.728  1.00  0.00    -0.059 A  
HETATM    4  N   UNL     1      -7.669   7.217  69.785  1.00  0.00    -0.106 N  
HETATM    5  C   UNL     1      -7.492   5.904  70.155  1.00  0.00    -0.082 C  
HETATM    6  H   UNL     1      -8.357   7.808  70.250  1.00  0.00     0.000 HD 
HETATM    7  C   UNL     1      -7.790   4.840  69.176  1.00  0.00    -0.071 A  
HETATM    8  O   UNL     1      -7.129   5.599  71.284  1.00  0.00    -0.067 OA 
HETATM    9  C   UNL     1      -7.515   4.955  67.815  1.00  0.00    -0.079 A  
HETATM   10  N   UNL     1      -7.754   6.157  67.076  1.00  0.00    -0.099 NA 
HETATM   11  N   UNL     1      -7.251   3.829  67.096  1.00  0.00    -0.063 NA 
HETATM   12  C   UNL     1      -7.246   7.447  67.412  1.00  0.00    -0.093 A  
HETATM   13  C   UNL     1      -7.401   2.622  67.687  1.00  0.00    -0.056 A  
HETATM   14  C   UNL     1      -5.962   9.811  68.035  1.00  0.00    -0.043 A  
HETATM   15  C   UNL     1      -6.558   9.576  66.808  1.00  0.00    -0.068 A  
HETATM   16  C   UNL     1      -7.951   2.454  68.938  1.00  0.00    -0.062 A  
HETATM   17  N   UNL     1      -7.149   8.411  66.470  1.00  0.00    -0.071 NA 
HETATM   18  C   UNL     1      -8.143   3.591  69.703  1.00  0.00    -0.064 A  
ENDROOT
BRANCH  10  19
HETATM   19  C   UNL     1      -9.104   6.181  66.441  1.00  0.00    -0.148 C  
HETATM   20  C   UNL     1      -9.999   4.981  66.341  1.00  0.00    -0.249 C  
HETATM   21  C   UNL     1     -10.374   6.113  67.248  1.00  0.00    -0.272 C  
ENDBRANCH  10  19
TORSDOF 1
ENDMDL
MODEL      151
REMARK 921   NORMALIZED FREE ENERGY PREDICTED BY IDOCK:   -1.49 KCAL/MOL
REMARK 922        TOTAL FREE ENERGY PREDICTED BY IDOCK:   -1.87 KCAL/MOL
REMARK 923 INTER-LIGAND FREE ENERGY PREDICTED BY IDOCK:   -2.09 KCAL/MOL
REMARK 924 INTRA-LIGAND FREE ENERGY PREDICTED BY IDOCK:    0.22 KCAL/MOL
REMARK 927      BINDING AFFINITY PREDICTED BY RF-SCORE:    0.00 PKD
ROOT
HETATM    1  C   UNL     1     -11.776   6.540  70.133  1.00  0.00    -0.419 C  
HETATM    2  C   UNL     1     -10.544   5.744  70.434  1.00  0.00    -0.365 A  
HETATM    3  C   UNL     1      -9.301   6.093  69.905  1.00  0.00    -0.149 A  
HETATM    4  N   UNL     1      -8.994   7.486  69.851  1.00  0.00    -0.141 N  
HETATM    5  C   UNL     1      -8.686   8.024  68.623  1.00  0.00    -0.131 C  
HETATM    6  H   UNL     1      -9.002   8.062  70.692  1.00  0.00     0.000 HD 
HETATM    7  C   UNL     1      -7.480   7.548  67.918  1.00  0.00    -0.105 A  
HETATM    8  O   UNL     1      -9.366   8.910  68.122  1.00  0.00    -0.142 OA 
HETATM    9  C   UNL     1      -7.059   6.220  67.935  1.00  0.00    -0.085 A  
HETATM   10  N   UNL     1      -7.086   5.415  69.118  1.00  0.00    -0.056 NA 
HETATM   11  N   UNL     1      -6.361   5.732  66.871  1.00  0.00    -0.037 NA 
HETATM   12  C   UNL     1      -8.232   5.189  69.937  1.00  0.00    -0.086 A  
HETATM   13  C   UNL     1      -5.975   6.584  65.893  1.00  0.00    -0.029 A  
HETATM   14  C   UNL     1     -10.593   4.626  71.253  1.00  0.00     0.032 A  
HETATM   15  C   UNL     1      -9.439   3.880  71.420  1.00  0.00    -0.152 A  
HETATM   16  C   UNL     1      -6.117   7.951  65.979  1.00  0.00    -0.038 A  
HETATM   17  N   UNL     1      -8.290   4.113  70.751  1.00  0.00    -0.070 NA 
HETATM   18  C   UNL     1      -6.894   8.443  67.013  1.00  0.00    -0.070 A  
ENDROOT
BRANCH  10  19
HETATM   19  C   UNL     1      -5.798   5.460  69.872  1.00  0.00    -0.017 C  
HETATM   20  C   UNL     1      -5.473   6.500  70.902  1.00  0.00    -0.023 C  
HETATM   21  C   UNL     1      -5.705   5.084  71.328  1.00  0.00    -0.012 C  
ENDBRANCH  10  19
TORSDOF 1
ENDMDL
MODEL      152
REMARK 921   NORMALIZED FREE ENERGY PREDICTED BY IDOCK:    0.66 KCAL/MOL
REMARK 922        TOTAL FREE ENERGY PREDICTED BY IDOCK:    0.40 KCAL/MOL
REMARK 923 INTER-LIGAND FREE ENERGY PREDICTED BY IDOCK:    0.20 KCAL/MOL
REMARK 924 INTRA-LIGAND FREE ENERGY PREDICTED BY IDOCK:    0.20 KCAL/MOL
REMARK 927      BINDING AFFINITY PREDICTED BY RF-SCORE:    0.00 PKD
ROOT
HETATM    1  C   UNL     1     -12.062  14.046  68.538  1.00  0.00    -0.329 C  
HETATM    2  C   UNL     1     -11.442  15.209  67.827  1.00  0.00    -0.329 A  
HETATM    3  C   UNL     1     -10.059  15.390  67.789  1.00  0.00    -0.227 A  
HETATM    4  N   UNL     1      -9.263  14.218  67.615  1.00  0.00    -0.189 N  
HETATM    5  C   UNL     1      -8.318  13.942  68.576  1.00  0.00    -0.132 C  
HETATM    6  H   UNL     1      -9.390  13.607  66.809  1.00  0.00     0.000 HD 
HETATM    7  C   UNL     1      -7.202  14.887  68.773  1.00  0.00    -0.123 A  
HETATM    8  O   UNL     1      -8.362  12.915  69.242  1.00  0.00     0.497 OA 
HETATM    9  C   UNL     1      -7.348  16.270  68.684  1.00  0.00    -0.180 A  
HETATM   10  N   UNL     1      -8.138  16.901  67.672  1.00  0.00    -0.180 NA 
HETATM   11  N   UNL     1      -6.522  17.071  69.413  1.00  0.00    -0.233 NA 
HETATM   12  C   UNL     1      -9.509  16.617  67.397  1.00  0.00    -0.232 A  
HETATM   13  C   UNL     1      -5.494  16.511  70.091  1.00  0.00    -0.200 A  
HETATM   14  C   UNL     1     -12.223  16.155  67.179  1.00  0.00     1.632 A  
HETATM   15  C   UNL     1     -11.596  17.255  66.618  1.00  0.00     1.556 A  
HETATM   16  C   UNL     1      -5.140  15.185  69.971  1.00  0.00    -0.098 A  
HETATM   17  N   UNL     1     -10.280  17.521  66.754  1.00  0.00    -0.317 NA 
HETATM   18  C   UNL     1      -6.020  14.354  69.301  1.00  0.00    -0.097 A  
ENDROOT
BRANCH  10  19
HETATM   19  C   UNL     1      -7.339  17.267  66.465  1.00  0.00    -0.277 C  
HETATM   20  C   UNL     1      -7.462  18.581  65.752  1.00  0.00    -0.130 C  
HETATM   21  C   UNL     1      -6.214  18.267  66.518  1.00  0.00    -0.212 C  
ENDBRANCH  10  19
TORSDOF 1
ENDMDL
MODEL      153
REMARK 921   NORMALIZED FREE ENERGY PREDICTED BY IDOCK:    2.53 KCAL/MOL
REMARK 922        TOTAL FREE ENERGY PREDICTED BY IDOCK:    2.38 KCAL/MOL
REMARK 923 INTER-LIGAND FREE ENERGY PREDICTED BY IDOCK:    2.05 KCAL/MOL
REMARK 924 INTRA-LIGAND FREE ENERGY PREDICTED BY IDOCK:    0.33 KCAL/MOL
REMARK 927      BINDING AFFINITY PREDICTED BY RF-SCORE:    0.00 PKD
ROOT
HETATM    1  C   UNL     1     -11.599   4.994  66.732  1.00  0.00     2.741 C  
HETATM    2  C   UNL     1     -10.317   5.766  66.761  1.00  0.00    -0.312 A  
HETATM    3  C   UNL     1      -9.513   5.806  67.901  1.00  0.00    -0.110 A  
HETATM    4  N   UNL     1      -9.379   4.590  68.637  1.00  0.00    -0.131 N  
HETATM    5  C   UNL     1      -9.743   4.603  69.963  1.00  0.00    -0.207 C  
HETATM    6  H   UNL     1      -9.026   3.741  68.195  1.00  0.00     0.000 HD 
HETATM    7  C   UNL     1      -8.994   5.461  70.900  1.00  0.00    -0.156 A  
HETATM    8  O   UNL     1     -10.647   3.894  70.386  1.00  0.00     0.724 OA 
HETATM    9  C   UNL     1      -8.515   6.725  70.563  1.00  0.00    -0.138 A  
HETATM   10  N   UNL     1      -7.906   7.010  69.299  1.00  0.00    -0.112 NA 
HETATM   11  N   UNL     1      -8.380   7.665  71.540  1.00  0.00    -0.106 NA 
HETATM   12  C   UNL     1      -8.494   6.759  68.024  1.00  0.00    -0.120 A  
HETATM   13  C   UNL     1      -8.580   7.306  72.828  1.00  0.00    -0.118 A  
HETATM   14  C   UNL     1      -9.878   6.473  65.652  1.00  0.00     0.673 A  
HETATM   15  C   UNL     1      -8.732   7.241  65.770  1.00  0.00    -0.109 A  
HETATM   16  C   UNL     1      -8.768   6.003  73.231  1.00  0.00    -0.120 A  
HETATM   17  N   UNL     1      -8.069   7.429  66.931  1.00  0.00    -0.118 NA 
HETATM   18  C   UNL     1      -8.987   5.060  72.243  1.00  0.00    -0.142 A  
ENDROOT
BRANCH  10  19
HETATM   19  C   UNL     1      -6.422   6.848  69.327  1.00  0.00    -0.043 C  
HETATM   20  C   UNL     1      -5.503   7.410  68.283  1.00  0.00    -0.026 C  
HETATM   21  C   UNL     1      -5.495   7.985  69.666  1.00  0.00    -0.023 C  
ENDBRANCH  10  19
TORSDOF 1
ENDMDL
MODEL      154
REMARK 921   NORMALIZED FREE ENERGY PREDICTED BY IDOCK:    8.72 KCAL/MOL
REMARK 922        TOTAL FREE ENERGY PREDICTED BY IDOCK:    8.93 KCAL/MOL
REMARK 923 INTER-LIGAND FREE ENERGY PREDICTED BY IDOCK:    9.00 KCAL/MOL
REMARK 924 INTRA-LIGAND FREE ENERGY PREDICTED BY IDOCK:   -0.07 KCAL/MOL
REMARK 927      BINDING AFFINITY PREDICTED BY RF-SCORE:    0.00 PKD
ROOT
HETATM    1  C   UNL     1     -10.380   4.390  64.261  1.00  0.00     0.060 C  
HETATM    2  C   UNL     1     -10.848   5.271  65.378  1.00  0.00     0.524 A  
HETATM    3  C   UNL     1      -9.998   6.197  65.983  1.00  0.00     0.193 A  
HETATM    4  N   UNL     1      -9.110   6.912  65.123  1.00  0.00    -0.202 N  
HETATM    5  C   UNL     1      -7.762   6.824  65.382  1.00  0.00    -0.100 C  
HETATM    6  H   UNL     1      -9.462   7.468  64.344  1.00  0.00     0.000 HD 
HETATM    7  C   UNL     1      -7.244   7.358  66.656  1.00  0.00    -0.080 A  
HETATM    8  O   UNL     1      -6.983   6.347  64.567  1.00  0.00    -0.045 OA 
HETATM    9  C   UNL     1      -7.931   7.256  67.863  1.00  0.00    -0.119 A  
HETATM   10  N   UNL     1      -9.343   7.467  67.970  1.00  0.00    -0.135 NA 
HETATM   11  N   UNL     1      -7.224   7.207  69.027  1.00  0.00    -0.084 NA 
HETATM   12  C   UNL     1     -10.339   6.789  67.206  1.00  0.00    -0.244 A  
HETATM   13  C   UNL     1      -5.886   7.401  68.990  1.00  0.00    -0.022 A  
HETATM   14  C   UNL     1     -12.147   5.197  65.856  1.00  0.00     3.275 A  
HETATM   15  C   UNL     1     -12.493   5.973  66.950  1.00  0.00     6.174 A  
HETATM   16  C   UNL     1      -5.208   7.793  67.857  1.00  0.00    -0.031 A  
HETATM   17  N   UNL     1     -11.613   6.720  67.649  1.00  0.00     0.320 NA 
HETATM   18  C   UNL     1      -5.903   7.763  66.661  1.00  0.00    -0.040 A  
ENDROOT
BRANCH  10  19
HETATM   19  C   UNL     1      -9.689   8.880  68.302  1.00  0.00    -0.157 C  
HETATM   20  C   UNL     1      -8.710   9.866  68.868  1.00  0.00    -0.140 C  
HETATM   21  C   UNL     1      -9.213  10.042  67.469  1.00  0.00    -0.151 C  
ENDBRANCH  10  19
TORSDOF 1
ENDMDL
MODEL      155
REMARK 921   NORMALIZED FREE ENERGY PREDICTED BY IDOCK:   16.77 KCAL/MOL
REMARK 922        TOTAL FREE ENERGY PREDICTED BY IDOCK:   17.45 KCAL/MOL
REMARK 923 INTER-LIGAND FREE ENERGY PREDICTED BY IDOCK:   17.40 KCAL/MOL
REMARK 924 INTRA-LIGAND FREE ENERGY PREDICTED BY IDOCK:    0.06 KCAL/MOL
REMARK 927      BINDING AFFINITY PREDICTED BY RF-SCORE:    0.00 PKD
ROOT
HETATM    1  C   UNL     1     -10.318  18.742  73.692  1.00  0.00     3.847 C  
HETATM    2  C   UNL     1     -10.361  18.774  72.195  1.00  0.00     3.944 A  
HETATM    3  C   UNL     1     -10.992  17.770  71.461  1.00  0.00     2.480 A  
HETATM    4  N   UNL     1     -12.223  17.268  71.984  1.00  0.00     1.520 N  
HETATM    5  C   UNL     1     -12.305  15.919  72.237  1.00  0.00    -0.483 C  
HETATM    6  H   UNL     1     -13.012  17.888  72.163  1.00  0.00     0.000 HD 
HETATM    7  C   UNL     1     -12.191  14.973  71.110  1.00  0.00    -0.381 A  
HETATM    8  O   UNL     1     -12.505  15.490  73.366  1.00  0.00    -0.402 OA 
HETATM    9  C   UNL     1     -11.329  15.166  70.034  1.00  0.00    -0.277 A  
HETATM   10  N   UNL     1     -11.142  16.442  69.411  1.00  0.00    -0.318 NA 
HETATM   11  N   UNL     1     -10.833  14.080  69.378  1.00  0.00    -0.163 NA 
HETATM   12  C   UNL     1     -10.768  17.642  70.084  1.00  0.00     1.108 A  
HETATM   13  C   UNL     1     -11.300  12.851  69.697  1.00  0.00    -0.096 A  
HETATM   14  C   UNL     1      -9.770  19.805  71.481  1.00  0.00     2.641 A  
HETATM   15  C   UNL     1      -9.764  19.731  70.098  1.00  0.00     0.685 A  
HETATM   16  C   UNL     1     -12.362  12.642  70.549  1.00  0.00    -0.350 A  
HETATM   17  N   UNL     1     -10.205  18.663  69.401  1.00  0.00     0.018 NA 
HETATM   18  C   UNL     1     -12.812  13.728  71.278  1.00  0.00    -0.434 A  
ENDROOT
BRANCH  10  19
HETATM   19  C   UNL     1     -12.061  16.654  68.253  1.00  0.00     1.007 C  
HETATM   20  C   UNL     1     -11.683  16.374  66.829  1.00  0.00     1.053 C  
HETATM   21  C   UNL     1     -12.697  15.509  67.510  1.00  0.00     1.999 C  
ENDBRANCH  10  19
TORSDOF 1
ENDMDL
MODEL      156
REMARK 921   NORMALIZED FREE ENERGY PREDICTED BY IDOCK:   19.23 KCAL/MOL
REMARK 922        TOTAL FREE ENERGY PREDICTED BY IDOCK:   20.06 KCAL/MOL
REMARK 923 INTER-LIGAND FREE ENERGY PREDICTED BY IDOCK:   20.01 KCAL/MOL
REMARK 924 INTRA-LIGAND FREE ENERGY PREDICTED BY IDOCK:    0.05 KCAL/MOL
REMARK 927      BINDING AFFINITY PREDICTED BY RF-SCORE:    0.00 PKD
ROOT
HETATM    1  C   UNL     1      -8.075  18.581  67.237  1.00  0.00    -0.245 C  
HETATM    2  C   UNL     1      -9.018  17.570  66.662  1.00  0.00    -0.283 A  
HETATM    3  C   UNL     1      -9.813  16.764  67.478  1.00  0.00    -0.255 A  
HETATM    4  N   UNL     1     -10.388  17.385  68.628  1.00  0.00    -0.353 N  
HETATM    5  C   UNL     1     -10.106  16.836  69.857  1.00  0.00     0.239 C  
HETATM    6  H   UNL     1     -10.988  18.206  68.542  1.00  0.00     0.000 HD 
HETATM    7  C   UNL     1     -10.563  15.464  70.149  1.00  0.00    -0.314 A  
HETATM    8  O   UNL     1      -9.518  17.472  70.723  1.00  0.00     3.345 OA 
HETATM    9  C   UNL     1     -10.566  14.442  69.201  1.00  0.00    -0.218 A  
HETATM   10  N   UNL     1     -10.980  14.645  67.846  1.00  0.00    -0.269 NA 
HETATM   11  N   UNL     1     -10.418  13.153  69.616  1.00  0.00     0.519 NA 
HETATM   12  C   UNL     1     -10.451  15.631  66.960  1.00  0.00    -0.303 A  
HETATM   13  C   UNL     1     -10.415  12.887  70.942  1.00  0.00     4.985 A  
HETATM   14  C   UNL     1      -9.135  17.394  65.292  1.00  0.00     1.707 A  
HETATM   15  C   UNL     1      -9.956  16.381  64.824  1.00  0.00     1.257 A  
HETATM   16  C   UNL     1     -10.702  13.829  71.905  1.00  0.00     4.906 A  
HETATM   17  N   UNL     1     -10.570  15.482  65.623  1.00  0.00    -0.350 NA 
HETATM   18  C   UNL     1     -10.769  15.150  71.498  1.00  0.00     0.294 A  
ENDROOT
BRANCH  10  19
HETATM   19  C   UNL     1     -12.429  14.356  67.640  1.00  0.00     0.228 C  
HETATM   20  C   UNL     1     -12.946  13.093  67.017  1.00  0.00     1.849 C  
HETATM   21  C   UNL     1     -13.176  13.348  68.475  1.00  0.00     3.271 C  
ENDBRANCH  10  19
TORSDOF 1
ENDMDL
MODEL      157
REMARK 921   NORMALIZED FREE ENERGY PREDICTED BY IDOCK:   24.49 KCAL/MOL
REMARK 922        TOTAL FREE ENERGY PREDICTED BY IDOCK:   25.62 KCAL/MOL
REMARK 923 INTER-LIGAND FREE ENERGY PREDICTED BY IDOCK:   25.56 KCAL/MOL
REMARK 924 INTRA-LIGAND FREE ENERGY PREDICTED BY IDOCK:    0.06 KCAL/MOL
REMARK 927      BINDING AFFINITY PREDICTED BY RF-SCORE:    0.00 PKD
ROOT
HETATM    1  C   UNL     1      -9.565  17.099  71.732  1.00  0.00     8.083 C  
HETATM    2  C   UNL     1      -9.253  16.134  70.630  1.00  0.00     2.281 A  
HETATM    3  C   UNL     1      -8.243  16.387  69.702  1.00  0.00     0.397 A  
HETATM    4  N   UNL     1      -7.043  16.977  70.203  1.00  0.00     0.875 N  
HETATM    5  C   UNL     1      -6.641  18.171  69.651  1.00  0.00    -0.069 C  
HETATM    6  H   UNL     1      -6.503  16.529  70.943  1.00  0.00     0.000 HD 
HETATM    7  C   UNL     1      -6.275  18.210  68.222  1.00  0.00    -0.184 A  
HETATM    8  O   UNL     1      -6.545  19.189  70.326  1.00  0.00    -0.014 OA 
HETATM    9  C   UNL     1      -6.939  17.475  67.243  1.00  0.00    -0.166 A  
HETATM   10  N   UNL     1      -7.350  16.118  67.439  1.00  0.00    -0.158 NA 
HETATM   11  N   UNL     1      -6.984  17.956  65.969  1.00  0.00    -0.298 NA 
HETATM   12  C   UNL     1      -8.161  15.648  68.515  1.00  0.00    -0.147 A  
HETATM   13  C   UNL     1      -6.264  19.058  65.658  1.00  0.00    -0.236 A  
HETATM   14  C   UNL     1      -9.960  14.950  70.490  1.00  0.00     0.624 A  
HETATM   15  C   UNL     1      -9.686  14.143  69.398  1.00  0.00     0.363 A  
HETATM   16  C   UNL     1      -5.365  19.645  66.522  1.00  0.00    -0.162 A  
HETATM   17  N   UNL     1      -8.845  14.489  68.401  1.00  0.00    -0.175 NA 
HETATM   18  C   UNL     1      -5.377  19.214  67.837  1.00  0.00    -0.178 A  
ENDROOT
BRANCH  10  19
HETATM   19  C   UNL     1      -6.326  15.136  66.976  1.00  0.00     0.655 C  
HETATM   20  C   UNL     1      -6.273  14.584  65.582  1.00  0.00     9.866 C  
HETATM   21  C   UNL     1      -5.203  15.522  66.048  1.00  0.00     4.198 C  
ENDBRANCH  10  19
TORSDOF 1
ENDMDL
MODEL      158
REMARK 921   NORMALIZED FREE ENERGY PREDICTED BY IDOCK:   24.85 KCAL/MOL
REMARK 922        TOTAL FREE ENERGY PREDICTED BY IDOCK:   26.00 KCAL/MOL
REMARK 923 INTER-LIGAND FREE ENERGY PREDICTED BY IDOCK:   25.95 KCAL/MOL
REMARK 924 INTRA-LIGAND FREE ENERGY PREDICTED BY IDOCK:    0.05 KCAL/MOL
REMARK 927      BINDING AFFINITY PREDICTED BY RF-SCORE:    0.00 PKD
ROOT
HETATM    1  C   UNL     1     -12.327  12.952  66.956  1.00  0.00     0.056 C  
HETATM    2  C   UNL     1     -12.102  11.472  66.991  1.00  0.00     0.628 A  
HETATM    3  C   UNL     1     -10.900  10.906  66.565  1.00  0.00    -0.171 A  
HETATM    4  N   UNL     1      -9.702  11.600  66.916  1.00  0.00    -0.192 N  
HETATM    5  C   UNL     1      -8.867  11.986  65.894  1.00  0.00     0.119 C  
HETATM    6  H   UNL     1      -9.475  11.803  67.889  1.00  0.00     0.000 HD 
HETATM    7  C   UNL     1      -8.232  10.948  65.060  1.00  0.00     0.081 A  
HETATM    8  O   UNL     1      -8.611  13.166  65.686  1.00  0.00     1.018 OA 
HETATM    9  C   UNL     1      -8.877   9.773  64.680  1.00  0.00    -0.212 A  
HETATM   10  N   UNL     1      -9.699   9.017  65.576  1.00  0.00    -0.128 NA 
HETATM   11  N   UNL     1      -8.526   9.173  63.508  1.00  0.00    -0.197 NA 
HETATM   12  C   UNL     1     -10.807   9.531  66.313  1.00  0.00     0.403 A  
HETATM   13  C   UNL     1      -7.468   9.654  62.816  1.00  0.00    -0.114 A  
HETATM   14  C   UNL     1     -13.084  10.606  67.446  1.00  0.00     8.730 A  
HETATM   15  C   UNL     1     -12.850   9.243  67.368  1.00  0.00    11.684 A  
HETATM   16  C   UNL     1      -6.625  10.629  63.301  1.00  0.00     0.088 A  
HETATM   17  N   UNL     1     -11.765   8.700  66.777  1.00  0.00     3.082 NA 
HETATM   18  C   UNL     1      -7.022  11.296  64.446  1.00  0.00     1.450 A  
ENDROOT
BRANCH  10  19
HETATM   19  C   UNL     1      -8.938   7.948  66.287  1.00  0.00    -0.171 C  
HETATM   20  C   UNL     1      -8.919   6.511  65.855  1.00  0.00    -0.103 C  
HETATM   21  C   UNL     1      -7.680   7.343  65.722  1.00  0.00    -0.102 C  
ENDBRANCH  10  19
TORSDOF 1
ENDMDL
MODEL      159
REMARK 921   NORMALIZED FREE ENERGY PREDICTED BY IDOCK:   29.51 KCAL/MOL
REMARK 922        TOTAL FREE ENERGY PREDICTED BY IDOCK:   30.94 KCAL/MOL
REMARK 923 INTER-LIGAND FREE ENERGY PREDICTED BY IDOCK:   30.84 KCAL/MOL
REMARK 924 INTRA-LIGAND FREE ENERGY PREDICTED BY IDOCK:    0.09 KCAL/MOL
REMARK 927      BINDING AFFINITY PREDICTED BY RF-SCORE:    0.00 PKD
ROOT
HETATM    1  C   UNL     1      -8.940  15.266  64.248  1.00  0.00     7.092 C  
HETATM    2  C   UNL     1      -8.233  15.684  65.501  1.00  0.00     2.299 A  
HETATM    3  C   UNL     1      -8.834  16.535  66.429  1.00  0.00    -0.310 A  
HETATM    4  N   UNL     1     -10.223  16.329  66.686  1.00  0.00    -0.276 N  
HETATM    5  C   UNL     1     -11.074  17.390  66.478  1.00  0.00     0.444 C  
HETATM    6  H   UNL     1     -10.572  15.428  67.011  1.00  0.00     0.000 HD 
HETATM    7  C   UNL     1     -10.919  18.602  67.304  1.00  0.00    -0.221 A  
HETATM    8  O   UNL     1     -11.976  17.335  65.651  1.00  0.00     1.998 OA 
HETATM    9  C   UNL     1      -9.681  19.103  67.700  1.00  0.00    -0.321 A  
HETATM   10  N   UNL     1      -8.613  18.262  68.149  1.00  0.00    -0.271 NA 
HETATM   11  N   UNL     1      -9.546  20.441  67.917  1.00  0.00    -0.304 NA 
HETATM   12  C   UNL     1      -8.072  17.158  67.425  1.00  0.00    -0.177 A  
HETATM   13  C   UNL     1     -10.647  21.226  67.880  1.00  0.00     1.811 A  
HETATM   14  C   UNL     1      -6.951  15.240  65.785  1.00  0.00     5.580 A  
HETATM   15  C   UNL     1      -6.317  15.733  66.913  1.00  0.00     0.381 A  
HETATM   16  C   UNL     1     -11.928  20.731  67.780  1.00  0.00     4.383 A  
HETATM   17  N   UNL     1      -6.829  16.703  67.700  1.00  0.00    -0.132 NA 
HETATM   18  C   UNL     1     -12.065  19.388  67.478  1.00  0.00     2.690 A  
ENDROOT
BRANCH  10  19
HETATM   19  C   UNL     1      -8.613  18.076  69.630  1.00  0.00     0.995 C  
HETATM   20  C   UNL     1      -7.514  18.559  70.530  1.00  0.00     2.431 C  
HETATM   21  C   UNL     1      -8.858  19.217  70.584  1.00  0.00     2.754 C  
ENDBRANCH  10  19
TORSDOF 1
ENDMDL
MODEL      160
REMARK 921   NORMALIZED FREE ENERGY PREDICTED BY IDOCK:   31.15 KCAL/MOL
REMARK 922        TOTAL FREE ENERGY PREDICTED BY IDOCK:   32.67 KCAL/MOL
REMARK 923 INTER-LIGAND FREE ENERGY PREDICTED BY IDOCK:   32.35 KCAL/MOL
REMARK 924 INTRA-LIGAND FREE ENERGY PREDICTED BY IDOCK:    0.31 KCAL/MOL
REMARK 927      BINDING AFFINITY PREDICTED BY RF-SCORE:    0.00 PKD
ROOT
HETATM    1  C   UNL     1     -10.130  11.479  68.424  1.00  0.00    -0.207 C  
HETATM    2  C   UNL     1      -8.945  12.157  69.040  1.00  0.00     0.390 A  
HETATM    3  C   UNL     1      -9.092  13.248  69.898  1.00  0.00     2.694 A  
HETATM    4  N   UNL     1     -10.175  13.195  70.827  1.00  0.00     3.772 N  
HETATM    5  C   UNL     1     -11.096  14.216  70.792  1.00  0.00     0.584 C  
HETATM    6  H   UNL     1     -10.264  12.427  71.492  1.00  0.00     0.000 HD 
HETATM    7  C   UNL     1     -10.654  15.587  71.114  1.00  0.00     0.193 A  
HETATM    8  O   UNL     1     -12.275  14.007  70.538  1.00  0.00    -0.320 OA 
HETATM    9  C   UNL     1      -9.415  16.099  70.735  1.00  0.00     2.305 A  
HETATM   10  N   UNL     1      -8.205  15.337  70.815  1.00  0.00     1.604 NA 
HETATM   11  N   UNL     1      -9.288  17.438  70.521  1.00  0.00     2.998 NA 
HETATM   12  C   UNL     1      -7.995  14.057  70.220  1.00  0.00     1.813 A  
HETATM   13  C   UNL     1     -10.328  18.251  70.818  1.00  0.00     2.408 A  
HETATM   14  C   UNL     1      -7.654  11.726  68.780  1.00  0.00    -0.104 A  
HETATM   15  C   UNL     1      -6.597  12.449  69.307  1.00  0.00    -0.093 A  
HETATM   16  C   UNL     1     -11.464  17.822  71.467  1.00  0.00     3.028 A  
HETATM   17  N   UNL     1      -6.743  13.614  69.973  1.00  0.00     0.086 NA 
HETATM   18  C   UNL     1     -11.633  16.456  71.611  1.00  0.00    -0.335 A  
ENDROOT
BRANCH  10  19
HETATM   19  C   UNL     1      -7.490  15.531  72.110  1.00  0.00     5.757 C  
HETATM   20  C   UNL     1      -6.028  15.251  72.304  1.00  0.00     1.010 C  
HETATM   21  C   UNL     1      -6.523  16.665  72.333  1.00  0.00     4.769 C  
ENDBRANCH  10  19
TORSDOF 1
ENDMDL
MODEL      161
REMARK 921   NORMALIZED FREE ENERGY PREDICTED BY IDOCK:   58.99 KCAL/MOL
REMARK 922        TOTAL FREE ENERGY PREDICTED BY IDOCK:   62.13 KCAL/MOL
REMARK 923 INTER-LIGAND FREE ENERGY PREDICTED BY IDOCK:   61.73 KCAL/MOL
REMARK 924 INTRA-LIGAND FREE ENERGY PREDICTED BY IDOCK:    0.41 KCAL/MOL
REMARK 927      BINDING AFFINITY PREDICTED BY RF-SCORE:    0.00 PKD
ROOT
HETATM    1  C   UNL     1      -8.017  18.036  62.691  1.00  0.00    21.810 C  
HETATM    2  C   UNL     1      -8.892  17.059  63.413  1.00  0.00    18.471 A  
HETATM    3  C   UNL     1      -8.671  16.729  64.751  1.00  0.00     4.724 A  
HETATM    4  N   UNL     1      -8.291  17.795  65.621  1.00  0.00     0.300 N  
HETATM    5  C   UNL     1      -7.105  17.667  66.306  1.00  0.00    -0.301 C  
HETATM    6  H   UNL     1      -8.877  18.622  65.731  1.00  0.00     0.000 HD 
HETATM    7  C   UNL     1      -6.962  16.576  67.289  1.00  0.00    -0.208 A  
HETATM    8  O   UNL     1      -6.183  18.457  66.145  1.00  0.00    -0.170 OA 
HETATM    9  C   UNL     1      -7.502  15.305  67.104  1.00  0.00    -0.167 A  
HETATM   10  N   UNL     1      -8.811  15.092  66.564  1.00  0.00    -0.273 NA 
HETATM   11  N   UNL     1      -6.889  14.234  67.680  1.00  0.00    -0.181 NA 
HETATM   12  C   UNL     1      -9.286  15.608  65.322  1.00  0.00     0.419 A  
HETATM   13  C   UNL     1      -5.858  14.447  68.529  1.00  0.00    -0.095 A  
HETATM   14  C   UNL     1      -9.958  16.441  62.777  1.00  0.00    14.890 A  
HETATM   15  C   UNL     1     -10.674  15.480  63.470  1.00  0.00     3.813 A  
HETATM   16  C   UNL     1      -5.482  15.698  68.966  1.00  0.00    -0.103 A  
HETATM   17  N   UNL     1     -10.333  15.028  64.696  1.00  0.00    -0.152 NA 
HETATM   18  C   UNL     1      -6.043  16.787  68.324  1.00  0.00    -0.132 A  
ENDROOT
BRANCH  10  19
HETATM   19  C   UNL     1      -9.859  14.993  67.623  1.00  0.00    -0.220 C  
HETATM   20  C   UNL     1     -10.895  16.049  67.869  1.00  0.00    -0.333 C  
HETATM   21  C   UNL     1     -11.306  14.726  67.300  1.00  0.00    -0.366 C  
ENDBRANCH  10  19
TORSDOF 1
ENDMDL
