MODEL        1
REMARK 921   NORMALIZED FREE ENERGY PREDICTED BY IDOCK:   -7.01 KCAL/MOL
REMARK 922        TOTAL FREE ENERGY PREDICTED BY IDOCK:   -9.36 KCAL/MOL
REMARK 923 INTER-LIGAND FREE ENERGY PREDICTED BY IDOCK:   -8.24 KCAL/MOL
REMARK 924 INTRA-LIGAND FREE ENERGY PREDICTED BY IDOCK:   -1.12 KCAL/MOL
REMARK 927      BINDING AFFINITY PREDICTED BY RF-SCORE:    0.00 PKD
ROOT
HETATM    1  N   UNL     1     -12.401  14.362  63.658  1.00  0.00    -1.106 N  
HETATM    2  H2  UNL     1     -12.980  15.187  63.504  1.00  0.00     0.000 HD 
HETATM    3  C   UNL     1     -12.610  13.571  64.754  1.00  0.00    -0.301 C  
HETATM    4  C   UNL     2     -11.015  17.149  65.940  1.00  0.00     0.143 C  
HETATM    5  H1  UNL     1     -11.663  14.124  62.995  1.00  0.00     0.000 HD 
HETATM    6  O   UNL     2     -10.958  17.449  64.525  1.00  0.00    -0.850 OA 
HETATM    7  H   UNL     2     -11.334  16.719  64.048  1.00  0.00     0.000 HD 
HETATM    8  O   UNL     1     -13.497  13.856  65.550  1.00  0.00    -0.657 OA 
ENDROOT
BRANCH   4   9
HETATM    9  C   UNL     2     -10.410  18.324  66.708  1.00  0.00    -0.384 C  
HETATM   10  O   UNL     2      -9.185  18.711  66.077  1.00  0.00    -0.484 OA 
HETATM   11  H   UNL     2      -8.809  19.442  66.554  1.00  0.00     0.000 HD 
ENDBRANCH   4   9
BRANCH   3  12
HETATM   12  C   UNL     1     -11.707  12.417  64.982  1.00  0.00    -0.420 A  
HETATM   13  C   UNL     1     -11.128  11.807  63.874  1.00  0.00    -0.408 A  
HETATM   14  C   UNL     1     -10.537  10.801  66.338  1.00  0.00    -0.266 A  
HETATM   15  C   UNL     1     -11.411  11.884  66.240  1.00  0.00    -0.394 A  
HETATM   16  C   UNL     1      -9.995  10.278  65.175  1.00  0.00    -0.325 A  
HETATM   17  N   UNL     1     -10.279  10.749  63.943  1.00  0.00    -0.343 NA 
ENDBRANCH   3  12
BRANCH   4  18
HETATM   18  C   UNL     2     -10.331  15.803  66.189  1.00  0.00    -0.320 C  
HETATM   19  O   UNL     2      -7.315  14.525  67.260  1.00  0.00    -0.189 OA 
HETATM   20  C   UNL     2      -8.456  14.922  67.119  1.00  0.00    -0.220 C  
HETATM   21  C   UNL     2     -10.675  15.058  67.420  1.00  0.00    -0.289 C  
HETATM   22  O   UNL     2      -9.546  13.603  68.977  1.00  0.00    -0.407 OA 
HETATM   23  O   UNL     2      -8.893  15.859  66.225  1.00  0.00    -0.305 OA 
HETATM   24  H   UNL     2     -10.284  13.316  69.501  1.00  0.00     0.000 HD 
HETATM   25  O   UNL     2     -11.960  14.929  67.860  1.00  0.00    -0.502 OA 
HETATM   26  C   UNL     2      -9.599  14.479  67.931  1.00  0.00    -0.217 C  
HETATM   27  H   UNL     2     -12.182  14.450  68.651  1.00  0.00     0.000 HD 
ENDBRANCH   4  18
TORSDOF 3
ENDMDL
MODEL        2
REMARK 921   NORMALIZED FREE ENERGY PREDICTED BY IDOCK:   -6.52 KCAL/MOL
REMARK 922        TOTAL FREE ENERGY PREDICTED BY IDOCK:   -8.78 KCAL/MOL
REMARK 923 INTER-LIGAND FREE ENERGY PREDICTED BY IDOCK:   -8.11 KCAL/MOL
REMARK 924 INTRA-LIGAND FREE ENERGY PREDICTED BY IDOCK:   -0.67 KCAL/MOL
REMARK 927      BINDING AFFINITY PREDICTED BY RF-SCORE:    0.00 PKD
ROOT
HETATM    1  N   UNL     1      -9.502  12.064  68.173  1.00  0.00    -0.195 N  
HETATM    2  H2  UNL     1      -9.407  11.095  67.873  1.00  0.00     0.000 HD 
HETATM    3  C   UNL     1     -10.726  12.554  68.537  1.00  0.00    -0.239 C  
HETATM    4  C   UNL     2     -10.662  11.910  64.496  1.00  0.00    -0.312 C  
HETATM    5  H1  UNL     1      -8.684  12.673  68.203  1.00  0.00     0.000 HD 
HETATM    6  O   UNL     2      -9.280  11.535  64.704  1.00  0.00    -0.399 OA 
HETATM    7  H   UNL     2      -9.092  11.586  65.635  1.00  0.00     0.000 HD 
HETATM    8  O   UNL     1     -11.709  11.822  68.502  1.00  0.00    -0.295 OA 
ENDROOT
BRANCH   4   9
HETATM    9  C   UNL     2     -10.964  11.828  63.000  1.00  0.00    -0.028 C  
HETATM   10  O   UNL     2     -12.253  11.234  62.816  1.00  0.00    -0.812 OA 
HETATM   11  H   UNL     2     -12.441  11.183  61.886  1.00  0.00     0.000 HD 
ENDBRANCH   4   9
BRANCH   3  12
HETATM   12  C   UNL     1     -10.840  13.986  68.906  1.00  0.00    -0.278 A  
HETATM   13  C   UNL     1      -9.688  14.765  68.877  1.00  0.00    -0.215 A  
HETATM   14  C   UNL     1     -12.021  15.966  69.615  1.00  0.00    -0.272 A  
HETATM   15  C   UNL     1     -12.028  14.607  69.300  1.00  0.00    -0.337 A  
HETATM   16  C   UNL     1     -10.824  16.659  69.534  1.00  0.00    -0.285 A  
HETATM   17  N   UNL     1      -9.654  16.087  69.184  1.00  0.00    -0.245 NA 
ENDBRANCH   3  12
BRANCH   4  18
HETATM   18  C   UNL     2     -10.901  13.286  65.122  1.00  0.00    -0.310 C  
HETATM   19  O   UNL     2      -9.228  16.230  65.761  1.00  0.00    -0.439 OA 
HETATM   20  C   UNL     2      -9.917  15.321  65.339  1.00  0.00    -0.329 C  
HETATM   21  C   UNL     2     -11.641  14.296  64.333  1.00  0.00    -0.344 C  
HETATM   22  O   UNL     2     -11.610  16.692  64.061  1.00  0.00    -1.490 OA 
HETATM   23  O   UNL     2      -9.704  13.982  65.515  1.00  0.00    -0.226 OA 
HETATM   24  H   UNL     2     -12.386  16.808  63.526  1.00  0.00     0.000 HD 
HETATM   25  O   UNL     2     -12.766  13.989  63.624  1.00  0.00    -0.789 OA 
HETATM   26  C   UNL     2     -11.119  15.500  64.511  1.00  0.00    -0.274 C  
HETATM   27  H   UNL     2     -13.242  14.638  63.118  1.00  0.00     0.000 HD 
ENDBRANCH   4  18
TORSDOF 3
ENDMDL
MODEL        3
REMARK 921   NORMALIZED FREE ENERGY PREDICTED BY IDOCK:   -6.34 KCAL/MOL
REMARK 922        TOTAL FREE ENERGY PREDICTED BY IDOCK:   -8.57 KCAL/MOL
REMARK 923 INTER-LIGAND FREE ENERGY PREDICTED BY IDOCK:   -7.76 KCAL/MOL
REMARK 924 INTRA-LIGAND FREE ENERGY PREDICTED BY IDOCK:   -0.81 KCAL/MOL
REMARK 927      BINDING AFFINITY PREDICTED BY RF-SCORE:    0.00 PKD
ROOT
HETATM    1  N   UNL     1     -11.024  16.116  64.989  1.00  0.00    -0.398 N  
HETATM    2  H2  UNL     1     -10.725  16.056  64.016  1.00  0.00     0.000 HD 
HETATM    3  C   UNL     1     -10.096  16.090  65.995  1.00  0.00    -0.341 C  
HETATM    4  C   UNL     2     -10.326  12.392  64.256  1.00  0.00    -0.362 C  
HETATM    5  H1  UNL     1     -12.015  16.195  65.217  1.00  0.00     0.000 HD 
HETATM    6  O   UNL     2     -11.380  12.973  63.453  1.00  0.00    -0.615 OA 
HETATM    7  H   UNL     2     -11.467  13.889  63.690  1.00  0.00     0.000 HD 
HETATM    8  O   UNL     1      -8.905  15.995  65.722  1.00  0.00    -0.312 OA 
ENDROOT
BRANCH   4   9
HETATM    9  C   UNL     2     -10.186  10.918  63.875  1.00  0.00    -0.354 C  
HETATM   10  O   UNL     2     -10.438  10.772  62.474  1.00  0.00    -0.733 OA 
HETATM   11  H   UNL     2     -10.350   9.856  62.237  1.00  0.00     0.000 HD 
ENDBRANCH   4   9
BRANCH   3  12
HETATM   12  C   UNL     1     -10.569  16.112  67.401  1.00  0.00    -0.311 A  
HETATM   13  C   UNL     1     -10.012  17.049  68.265  1.00  0.00    -0.285 A  
HETATM   14  C   UNL     1     -11.905  15.359  69.262  1.00  0.00    -0.365 A  
HETATM   15  C   UNL     1     -11.527  15.240  67.925  1.00  0.00    -0.325 A  
HETATM   16  C   UNL     1     -11.306  16.340  70.036  1.00  0.00    -0.269 A  
HETATM   17  N   UNL     1     -10.359  17.180  69.572  1.00  0.00    -0.199 NA 
ENDBRANCH   3  12
BRANCH   4  18
HETATM   18  C   UNL     2     -10.633  12.643  65.734  1.00  0.00    -0.272 C  
HETATM   19  O   UNL     2     -12.242  11.155  68.393  1.00  0.00    -0.610 OA 
HETATM   20  C   UNL     2     -11.463  11.592  67.567  1.00  0.00    -0.282 C  
HETATM   21  C   UNL     2      -9.556  12.418  66.723  1.00  0.00    -0.224 C  
HETATM   22  O   UNL     2      -9.383  11.644  69.000  1.00  0.00    -0.406 OA 
HETATM   23  O   UNL     2     -11.731  11.874  66.257  1.00  0.00    -0.506 OA 
HETATM   24  H   UNL     2      -8.466  11.824  69.168  1.00  0.00     0.000 HD 
HETATM   25  O   UNL     2      -8.273  12.836  66.515  1.00  0.00    -0.400 OA 
HETATM   26  C   UNL     2     -10.043  11.870  67.826  1.00  0.00    -0.191 C  
HETATM   27  H   UNL     2      -7.581  12.692  67.150  1.00  0.00     0.000 HD 
ENDBRANCH   4  18
TORSDOF 3
ENDMDL
MODEL        4
REMARK 921   NORMALIZED FREE ENERGY PREDICTED BY IDOCK:   -6.18 KCAL/MOL
REMARK 922        TOTAL FREE ENERGY PREDICTED BY IDOCK:   -8.38 KCAL/MOL
REMARK 923 INTER-LIGAND FREE ENERGY PREDICTED BY IDOCK:   -7.37 KCAL/MOL
REMARK 924 INTRA-LIGAND FREE ENERGY PREDICTED BY IDOCK:   -1.01 KCAL/MOL
REMARK 927      BINDING AFFINITY PREDICTED BY RF-SCORE:    0.00 PKD
ROOT
HETATM    1  N   UNL     1      -7.591  14.323  67.179  1.00  0.00    -0.338 N  
HETATM    2  H2  UNL     1      -7.110  13.509  67.561  1.00  0.00     0.000 HD 
HETATM    3  C   UNL     1      -8.730  14.790  67.776  1.00  0.00    -0.172 C  
HETATM    4  C   UNL     2      -9.514  11.210  65.954  1.00  0.00    -0.215 C  
HETATM    5  H1  UNL     1      -7.224  14.793  66.351  1.00  0.00     0.000 HD 
HETATM    6  O   UNL     2      -8.140  11.280  65.506  1.00  0.00    -0.367 OA 
HETATM    7  H   UNL     2      -7.745  12.065  65.868  1.00  0.00     0.000 HD 
HETATM    8  O   UNL     1      -9.171  14.227  68.771  1.00  0.00    -0.185 OA 
ENDROOT
BRANCH   4   9
HETATM    9  C   UNL     2     -10.149   9.948  65.370  1.00  0.00    -0.200 C  
HETATM   10  O   UNL     2      -9.796   9.847  63.986  1.00  0.00    -0.452 OA 
HETATM   11  H   UNL     2     -10.191   9.062  63.623  1.00  0.00     0.000 HD 
ENDBRANCH   4   9
BRANCH   3  12
HETATM   12  C   UNL     1      -9.440  15.936  67.157  1.00  0.00    -0.221 A  
HETATM   13  C   UNL     1      -9.751  15.862  65.803  1.00  0.00    -0.325 A  
HETATM   14  C   UNL     1     -10.481  18.112  67.158  1.00  0.00    -0.392 A  
HETATM   15  C   UNL     1      -9.804  17.100  67.839  1.00  0.00    -0.283 A  
HETATM   16  C   UNL     1     -10.763  17.933  65.814  1.00  0.00    -0.089 A  
HETATM   17  N   UNL     1     -10.403  16.836  65.117  1.00  0.00    -0.637 NA 
ENDBRANCH   3  12
BRANCH   4  18
HETATM   18  C   UNL     2     -10.224  12.514  65.581  1.00  0.00    -0.267 C  
HETATM   19  O   UNL     2     -12.286  13.798  63.137  1.00  0.00    -0.726 OA 
HETATM   20  C   UNL     2     -11.774  13.327  64.134  1.00  0.00    -0.420 C  
HETATM   21  C   UNL     2     -11.461  12.872  66.309  1.00  0.00    -0.348 C  
HETATM   22  O   UNL     2     -13.539  13.991  65.814  1.00  0.00    -0.576 OA 
HETATM   23  O   UNL     2     -10.612  12.610  64.198  1.00  0.00    -0.355 OA 
HETATM   24  H   UNL     2     -13.909  14.048  66.688  1.00  0.00     0.000 HD 
HETATM   25  O   UNL     2     -11.577  12.738  67.662  1.00  0.00    -0.315 OA 
HETATM   26  C   UNL     2     -12.346  13.415  65.486  1.00  0.00    -0.480 C  
HETATM   27  H   UNL     2     -12.372  12.969  68.130  1.00  0.00     0.000 HD 
ENDBRANCH   4  18
TORSDOF 3
ENDMDL
MODEL        5
REMARK 921   NORMALIZED FREE ENERGY PREDICTED BY IDOCK:   -6.16 KCAL/MOL
REMARK 922        TOTAL FREE ENERGY PREDICTED BY IDOCK:   -8.36 KCAL/MOL
REMARK 923 INTER-LIGAND FREE ENERGY PREDICTED BY IDOCK:   -7.44 KCAL/MOL
REMARK 924 INTRA-LIGAND FREE ENERGY PREDICTED BY IDOCK:   -0.92 KCAL/MOL
REMARK 927      BINDING AFFINITY PREDICTED BY RF-SCORE:    0.00 PKD
ROOT
HETATM    1  N   UNL     1      -8.478  15.185  69.542  1.00  0.00    -0.403 N  
HETATM    2  H2  UNL     1      -8.359  14.534  70.317  1.00  0.00     0.000 HD 
HETATM    3  C   UNL     1      -9.668  15.838  69.371  1.00  0.00    -0.286 C  
HETATM    4  C   UNL     2     -10.149  11.870  68.488  1.00  0.00    -0.206 C  
HETATM    5  H1  UNL     1      -7.710  15.353  68.892  1.00  0.00     0.000 HD 
HETATM    6  O   UNL     2      -8.728  11.770  68.743  1.00  0.00    -0.330 OA 
HETATM    7  H   UNL     2      -8.410  12.625  69.011  1.00  0.00     0.000 HD 
HETATM    8  O   UNL     1     -10.590  15.637  70.152  1.00  0.00    -0.309 OA 
ENDROOT
BRANCH   4   9
HETATM    9  C   UNL     2     -10.660  10.496  68.056  1.00  0.00    -0.214 C  
HETATM   10  O   UNL     2     -12.087  10.476  68.158  1.00  0.00    -0.756 OA 
HETATM   11  H   UNL     2     -12.405   9.622  67.890  1.00  0.00     0.000 HD 
ENDBRANCH   4   9
BRANCH   3  12
HETATM   12  C   UNL     1      -9.829  16.729  68.195  1.00  0.00    -0.264 A  
HETATM   13  C   UNL     1      -9.294  16.315  66.980  1.00  0.00    -0.221 A  
HETATM   14  C   UNL     1     -10.573  18.721  67.058  1.00  0.00    -0.483 A  
HETATM   15  C   UNL     1     -10.469  17.970  68.229  1.00  0.00    -0.355 A  
HETATM   16  C   UNL     1     -10.025  18.211  65.892  1.00  0.00    -0.097 A  
HETATM   17  N   UNL     1      -9.377  17.030  65.828  1.00  0.00    -0.528 NA 
ENDBRANCH   3  12
BRANCH   4  18
HETATM   18  C   UNL     2     -10.393  12.990  67.473  1.00  0.00    -0.224 C  
HETATM   19  O   UNL     2     -10.846  13.441  64.088  1.00  0.00    -0.390 OA 
HETATM   20  C   UNL     2     -10.940  13.307  65.293  1.00  0.00    -0.291 C  
HETATM   21  C   UNL     2     -11.755  13.557  67.368  1.00  0.00    -0.380 C  
HETATM   22  O   UNL     2     -13.161  14.461  65.630  1.00  0.00    -0.569 OA 
HETATM   23  O   UNL     2     -10.068  12.648  66.114  1.00  0.00    -0.247 OA 
HETATM   24  H   UNL     2     -13.883  14.789  66.153  1.00  0.00     0.000 HD 
HETATM   25  O   UNL     2     -12.510  13.854  68.465  1.00  0.00    -0.442 OA 
HETATM   26  C   UNL     2     -12.057  13.813  66.103  1.00  0.00    -0.441 C  
HETATM   27  H   UNL     2     -13.385  14.218  68.397  1.00  0.00     0.000 HD 
ENDBRANCH   4  18
TORSDOF 3
ENDMDL
MODEL        6
REMARK 921   NORMALIZED FREE ENERGY PREDICTED BY IDOCK:   -5.90 KCAL/MOL
REMARK 922        TOTAL FREE ENERGY PREDICTED BY IDOCK:   -8.05 KCAL/MOL
REMARK 923 INTER-LIGAND FREE ENERGY PREDICTED BY IDOCK:   -7.19 KCAL/MOL
REMARK 924 INTRA-LIGAND FREE ENERGY PREDICTED BY IDOCK:   -0.87 KCAL/MOL
REMARK 927      BINDING AFFINITY PREDICTED BY RF-SCORE:    0.00 PKD
ROOT
HETATM    1  N   UNL     1      -9.248  10.834  68.230  1.00  0.00    -0.151 N  
HETATM    2  H2  UNL     1      -8.988  11.040  69.194  1.00  0.00     0.000 HD 
HETATM    3  C   UNL     1      -8.523  11.361  67.197  1.00  0.00    -0.153 C  
HETATM    4  C   UNL     2     -10.633  14.344  69.041  1.00  0.00    -0.237 C  
HETATM    5  H1  UNL     1     -10.049  10.235  68.033  1.00  0.00     0.000 HD 
HETATM    6  O   UNL     2     -11.174  13.282  69.862  1.00  0.00    -0.487 OA 
HETATM    7  H   UNL     2     -10.764  12.464  69.603  1.00  0.00     0.000 HD 
HETATM    8  O   UNL     1      -7.560  12.080  67.433  1.00  0.00    -0.133 OA 
ENDROOT
BRANCH   4   9
HETATM    9  C   UNL     2     -11.292  15.659  69.456  1.00  0.00    -0.327 C  
HETATM   10  O   UNL     2     -12.698  15.446  69.615  1.00  0.00    -0.613 OA 
HETATM   11  H   UNL     2     -13.108  16.263  69.873  1.00  0.00     0.000 HD 
ENDBRANCH   4   9
BRANCH   3  12
HETATM   12  C   UNL     1      -8.968  11.094  65.807  1.00  0.00    -0.207 A  
HETATM   13  C   UNL     1      -8.068  10.493  64.933  1.00  0.00    -0.086 A  
HETATM   14  C   UNL     1     -10.545  11.117  63.981  1.00  0.00    -0.436 A  
HETATM   15  C   UNL     1     -10.230  11.425  65.305  1.00  0.00    -0.320 A  
HETATM   16  C   UNL     1      -9.585  10.498  63.198  1.00  0.00    -0.336 A  
HETATM   17  N   UNL     1      -8.349  10.189  63.639  1.00  0.00    -0.162 NA 
ENDBRANCH   3  12
BRANCH   4  18
HETATM   18  C   UNL     2     -10.819  13.974  67.567  1.00  0.00    -0.270 C  
HETATM   19  O   UNL     2     -13.252  13.962  65.128  1.00  0.00    -0.768 OA 
HETATM   20  C   UNL     2     -12.314  14.179  65.871  1.00  0.00    -0.463 C  
HETATM   21  C   UNL     2     -10.299  14.903  66.540  1.00  0.00    -0.293 C  
HETATM   22  O   UNL     2     -10.929  15.616  64.324  1.00  0.00    -0.761 OA 
HETATM   23  O   UNL     2     -12.186  13.768  67.169  1.00  0.00    -0.391 OA 
HETATM   24  H   UNL     2     -10.165  16.129  64.091  1.00  0.00     0.000 HD 
HETATM   25  O   UNL     2      -9.073  15.494  66.642  1.00  0.00    -0.234 OA 
HETATM   26  C   UNL     2     -11.132  14.974  65.511  1.00  0.00    -0.357 C  
HETATM   27  H   UNL     2      -8.739  16.091  65.982  1.00  0.00     0.000 HD 
ENDBRANCH   4  18
TORSDOF 3
ENDMDL
MODEL        7
REMARK 921   NORMALIZED FREE ENERGY PREDICTED BY IDOCK:   -5.87 KCAL/MOL
REMARK 922        TOTAL FREE ENERGY PREDICTED BY IDOCK:   -8.01 KCAL/MOL
REMARK 923 INTER-LIGAND FREE ENERGY PREDICTED BY IDOCK:   -6.83 KCAL/MOL
REMARK 924 INTRA-LIGAND FREE ENERGY PREDICTED BY IDOCK:   -1.18 KCAL/MOL
REMARK 927      BINDING AFFINITY PREDICTED BY RF-SCORE:    0.00 PKD
ROOT
HETATM    1  N   UNL     1      -6.410  17.552  69.165  1.00  0.00    -0.224 N  
HETATM    2  H2  UNL     1      -6.570  17.199  70.108  1.00  0.00     0.000 HD 
HETATM    3  C   UNL     1      -6.785  18.826  68.836  1.00  0.00    -0.280 C  
HETATM    4  C   UNL     2     -10.122  16.514  69.359  1.00  0.00    -0.230 C  
HETATM    5  H1  UNL     1      -5.970  16.957  68.463  1.00  0.00     0.000 HD 
HETATM    6  O   UNL     2      -9.185  15.431  69.571  1.00  0.00    -0.261 OA 
HETATM    7  H   UNL     2      -8.303  15.783  69.522  1.00  0.00     0.000 HD 
HETATM    8  O   UNL     1      -7.314  19.541  69.679  1.00  0.00    -0.236 OA 
ENDROOT
BRANCH   4   9
HETATM    9  C   UNL     2     -11.539  15.948  69.437  1.00  0.00    -0.349 C  
HETATM   10  O   UNL     2     -11.602  14.743  68.667  1.00  0.00    -0.289 OA 
HETATM   11  H   UNL     2     -12.484  14.391  68.715  1.00  0.00     0.000 HD 
ENDBRANCH   4   9
BRANCH   3  12
HETATM   12  C   UNL     1      -6.598  19.286  67.438  1.00  0.00    -0.204 A  
HETATM   13  C   UNL     1      -6.858  18.385  66.411  1.00  0.00    -0.217 A  
HETATM   14  C   UNL     1      -6.027  20.891  65.730  1.00  0.00    -0.285 A  
HETATM   15  C   UNL     1      -6.157  20.562  67.080  1.00  0.00    -0.249 A  
HETATM   16  C   UNL     1      -6.333  19.928  64.781  1.00  0.00    -0.269 A  
HETATM   17  N   UNL     1      -6.734  18.678  65.090  1.00  0.00    -0.522 NA 
ENDBRANCH   3  12
BRANCH   4  18
HETATM   18  C   UNL     2      -9.783  17.211  68.039  1.00  0.00    -0.274 C  
HETATM   19  O   UNL     2     -10.790  17.270  64.744  1.00  0.00    -0.863 OA 
HETATM   20  C   UNL     2     -10.572  17.463  65.925  1.00  0.00    -0.200 C  
HETATM   21  C   UNL     2     -10.259  18.597  67.836  1.00  0.00    -0.392 C  
HETATM   22  O   UNL     2     -11.025  19.947  65.990  1.00  0.00    -0.324 OA 
HETATM   23  O   UNL     2     -10.247  16.523  66.863  1.00  0.00    -0.284 OA 
HETATM   24  H   UNL     2     -11.078  20.795  66.416  1.00  0.00     0.000 HD 
HETATM   25  O   UNL     2     -10.178  19.548  68.811  1.00  0.00    -0.494 OA 
HETATM   26  C   UNL     2     -10.654  18.775  66.584  1.00  0.00    -0.383 C  
HETATM   27  H   UNL     2     -10.483  20.438  68.680  1.00  0.00     0.000 HD 
ENDBRANCH   4  18
TORSDOF 3
ENDMDL
MODEL        8
REMARK 921   NORMALIZED FREE ENERGY PREDICTED BY IDOCK:   -5.84 KCAL/MOL
REMARK 922        TOTAL FREE ENERGY PREDICTED BY IDOCK:   -7.98 KCAL/MOL
REMARK 923 INTER-LIGAND FREE ENERGY PREDICTED BY IDOCK:   -6.95 KCAL/MOL
REMARK 924 INTRA-LIGAND FREE ENERGY PREDICTED BY IDOCK:   -1.03 KCAL/MOL
REMARK 927      BINDING AFFINITY PREDICTED BY RF-SCORE:    0.00 PKD
ROOT
HETATM    1  N   UNL     1     -11.299  14.387  64.273  1.00  0.00    -0.619 N  
HETATM    2  H2  UNL     1     -11.650  15.218  63.798  1.00  0.00     0.000 HD 
HETATM    3  C   UNL     1     -12.059  13.771  65.229  1.00  0.00    -0.407 C  
HETATM    4  C   UNL     2     -10.727  17.369  66.656  1.00  0.00    -0.084 C  
HETATM    5  H1  UNL     1     -10.381  14.012  64.038  1.00  0.00     0.000 HD 
HETATM    6  O   UNL     2     -10.022  17.465  65.396  1.00  0.00    -0.479 OA 
HETATM    7  H   UNL     2     -10.237  16.701  64.872  1.00  0.00     0.000 HD 
HETATM    8  O   UNL     1     -13.164  14.221  65.512  1.00  0.00    -0.641 OA 
ENDROOT
BRANCH   4   9
HETATM    9  C   UNL     2     -10.382  18.597  67.497  1.00  0.00    -0.411 C  
HETATM   10  O   UNL     2      -8.959  18.703  67.606  1.00  0.00    -0.272 OA 
HETATM   11  H   UNL     2      -8.744  19.467  68.128  1.00  0.00     0.000 HD 
ENDBRANCH   4   9
BRANCH   3  12
HETATM   12  C   UNL     1     -11.492  12.604  65.948  1.00  0.00    -0.407 A  
HETATM   13  C   UNL     1     -11.934  12.352  67.243  1.00  0.00    -0.176 A  
HETATM   14  C   UNL     1     -10.070  10.669  66.181  1.00  0.00    -0.306 A  
HETATM   15  C   UNL     1     -10.526  11.745  65.418  1.00  0.00    -0.317 A  
HETATM   16  C   UNL     1     -10.589  10.492  67.453  1.00  0.00    -0.263 A  
HETATM   17  N   UNL     1     -11.502  11.316  68.007  1.00  0.00    -0.402 NA 
ENDBRANCH   3  12
BRANCH   4  18
HETATM   18  C   UNL     2     -10.386  16.028  67.313  1.00  0.00    -0.295 C  
HETATM   19  O   UNL     2      -8.050  14.636  69.427  1.00  0.00    -0.089 OA 
HETATM   20  C   UNL     2      -9.021  15.134  68.890  1.00  0.00    -0.206 C  
HETATM   21  C   UNL     2     -11.178  15.603  68.488  1.00  0.00    -0.342 C  
HETATM   22  O   UNL     2     -10.789  14.372  70.525  1.00  0.00    -0.460 OA 
HETATM   23  O   UNL     2      -9.026  15.913  67.767  1.00  0.00    -0.176 OA 
HETATM   24  H   UNL     2     -11.680  14.294  70.845  1.00  0.00     0.000 HD 
HETATM   25  O   UNL     2     -12.535  15.728  68.539  1.00  0.00    -0.366 OA 
HETATM   26  C   UNL     2     -10.400  15.013  69.384  1.00  0.00    -0.235 C  
HETATM   27  H   UNL     2     -13.044  15.454  69.295  1.00  0.00     0.000 HD 
ENDBRANCH   4  18
TORSDOF 3
ENDMDL
MODEL        9
REMARK 921   NORMALIZED FREE ENERGY PREDICTED BY IDOCK:   -5.84 KCAL/MOL
REMARK 922        TOTAL FREE ENERGY PREDICTED BY IDOCK:   -7.98 KCAL/MOL
REMARK 923 INTER-LIGAND FREE ENERGY PREDICTED BY IDOCK:   -7.30 KCAL/MOL
REMARK 924 INTRA-LIGAND FREE ENERGY PREDICTED BY IDOCK:   -0.68 KCAL/MOL
REMARK 927      BINDING AFFINITY PREDICTED BY RF-SCORE:    0.00 PKD
ROOT
HETATM    1  N   UNL     1     -12.274  14.623  68.146  1.00  0.00    -0.596 N  
HETATM    2  H2  UNL     1     -11.899  14.691  67.200  1.00  0.00     0.000 HD 
HETATM    3  C   UNL     1     -11.447  14.777  69.224  1.00  0.00    -0.296 C  
HETATM    4  C   UNL     2     -10.602  11.236  67.354  1.00  0.00    -0.224 C  
HETATM    5  H1  UNL     1     -13.267  14.439  68.291  1.00  0.00     0.000 HD 
HETATM    6  O   UNL     2     -11.707  11.577  66.484  1.00  0.00    -0.455 OA 
HETATM    7  H   UNL     2     -12.041  12.428  66.742  1.00  0.00     0.000 HD 
HETATM    8  O   UNL     1     -10.254  14.998  69.050  1.00  0.00    -0.227 OA 
ENDROOT
BRANCH   4   9
HETATM    9  C   UNL     2     -10.065   9.867  66.939  1.00  0.00    -0.225 C  
HETATM   10  O   UNL     2     -11.042   8.869  67.252  1.00  0.00    -0.373 OA 
HETATM   11  H   UNL     2     -10.709   8.017  66.994  1.00  0.00     0.000 HD 
ENDBRANCH   4   9
BRANCH   3  12
HETATM   12  C   UNL     1     -12.012  14.607  70.585  1.00  0.00    -0.380 A  
HETATM   13  C   UNL     1     -11.520  15.414  71.606  1.00  0.00    -0.423 A  
HETATM   14  C   UNL     1     -13.463  13.607  72.233  1.00  0.00    -0.652 A  
HETATM   15  C   UNL     1     -12.997  13.673  70.919  1.00  0.00    -0.256 A  
HETATM   16  C   UNL     1     -12.923  14.470  73.172  1.00  0.00    -0.472 A  
HETATM   17  N   UNL     1     -11.953  15.364  72.892  1.00  0.00    -0.428 NA 
ENDBRANCH   3  12
BRANCH   4  18
HETATM   18  C   UNL     2     -11.071  11.325  68.809  1.00  0.00    -0.233 C  
HETATM   19  O   UNL     2     -13.499  10.040  70.889  1.00  0.00    -0.352 OA 
HETATM   20  C   UNL     2     -12.491  10.321  70.268  1.00  0.00    -0.167 C  
HETATM   21  C   UNL     2     -10.306  10.588  69.838  1.00  0.00    -0.114 C  
HETATM   22  O   UNL     2     -10.781   9.431  71.900  1.00  0.00    -0.280 OA 
HETATM   23  O   UNL     2     -12.426  10.893  69.028  1.00  0.00    -0.425 OA 
HETATM   24  H   UNL     2      -9.897   9.262  72.203  1.00  0.00     0.000 HD 
HETATM   25  O   UNL     2      -8.941  10.580  69.869  1.00  0.00    -0.388 OA 
HETATM   26  C   UNL     2     -11.123  10.059  70.737  1.00  0.00    -0.334 C  
HETATM   27  H   UNL     2      -8.450  10.107  70.530  1.00  0.00     0.000 HD 
ENDBRANCH   4  18
TORSDOF 3
ENDMDL
MODEL       10
REMARK 921   NORMALIZED FREE ENERGY PREDICTED BY IDOCK:   -5.82 KCAL/MOL
REMARK 922        TOTAL FREE ENERGY PREDICTED BY IDOCK:   -7.96 KCAL/MOL
REMARK 923 INTER-LIGAND FREE ENERGY PREDICTED BY IDOCK:   -7.02 KCAL/MOL
REMARK 924 INTRA-LIGAND FREE ENERGY PREDICTED BY IDOCK:   -0.93 KCAL/MOL
REMARK 927      BINDING AFFINITY PREDICTED BY RF-SCORE:    0.00 PKD
ROOT
HETATM    1  N   UNL     1      -6.671  16.332  67.332  1.00  0.00    -0.161 N  
HETATM    2  H2  UNL     1      -5.934  15.707  67.656  1.00  0.00     0.000 HD 
HETATM    3  C   UNL     1      -7.505  16.934  68.233  1.00  0.00    -0.192 C  
HETATM    4  C   UNL     2      -8.333  12.929  68.074  1.00  0.00    -0.169 C  
HETATM    5  H1  UNL     1      -6.788  16.510  66.335  1.00  0.00     0.000 HD 
HETATM    6  O   UNL     2      -7.324  12.890  67.038  1.00  0.00    -0.362 OA 
HETATM    7  H   UNL     2      -6.961  13.762  66.938  1.00  0.00     0.000 HD 
HETATM    8  O   UNL     1      -7.364  16.720  69.431  1.00  0.00    -0.210 OA 
ENDROOT
BRANCH   4   9
HETATM    9  C   UNL     2      -8.916  11.526  68.234  1.00  0.00    -0.177 C  
HETATM   10  O   UNL     2     -10.064  11.592  69.086  1.00  0.00    -0.406 OA 
HETATM   11  H   UNL     2     -10.427  10.720  69.185  1.00  0.00     0.000 HD 
ENDBRANCH   4   9
BRANCH   3  12
HETATM   12  C   UNL     1      -8.608  17.786  67.724  1.00  0.00    -0.237 A  
HETATM   13  C   UNL     1      -9.120  17.511  66.460  1.00  0.00    -0.263 A  
HETATM   14  C   UNL     1     -10.203  19.591  67.849  1.00  0.00    -0.550 A  
HETATM   15  C   UNL     1      -9.158  18.864  68.421  1.00  0.00    -0.383 A  
HETATM   16  C   UNL     1     -10.656  19.224  66.593  1.00  0.00    -0.438 A  
HETATM   17  N   UNL     1     -10.131  18.207  65.879  1.00  0.00    -0.583 NA 
ENDBRANCH   3  12
BRANCH   4  18
HETATM   18  C   UNL     2      -9.358  14.011  67.727  1.00  0.00    -0.205 C  
HETATM   19  O   UNL     2     -12.478  14.340  66.302  1.00  0.00    -0.445 OA 
HETATM   20  C   UNL     2     -11.504  14.247  67.025  1.00  0.00    -0.361 C  
HETATM   21  C   UNL     2     -10.192  14.563  68.817  1.00  0.00    -0.244 C  
HETATM   22  O   UNL     2     -12.441  15.396  69.070  1.00  0.00    -0.602 OA 
HETATM   23  O   UNL     2     -10.323  13.624  66.732  1.00  0.00    -0.263 OA 
HETATM   24  H   UNL     2     -12.394  15.735  69.956  1.00  0.00     0.000 HD 
HETATM   25  O   UNL     2      -9.676  14.892  70.037  1.00  0.00    -0.456 OA 
HETATM   26  C   UNL     2     -11.431  14.773  68.396  1.00  0.00    -0.314 C  
HETATM   27  H   UNL     2     -10.212  15.247  70.737  1.00  0.00     0.000 HD 
ENDBRANCH   4  18
TORSDOF 3
ENDMDL
MODEL       11
REMARK 921   NORMALIZED FREE ENERGY PREDICTED BY IDOCK:   -5.82 KCAL/MOL
REMARK 922        TOTAL FREE ENERGY PREDICTED BY IDOCK:   -7.95 KCAL/MOL
REMARK 923 INTER-LIGAND FREE ENERGY PREDICTED BY IDOCK:   -6.83 KCAL/MOL
REMARK 924 INTRA-LIGAND FREE ENERGY PREDICTED BY IDOCK:   -1.12 KCAL/MOL
REMARK 927      BINDING AFFINITY PREDICTED BY RF-SCORE:    0.00 PKD
ROOT
HETATM    1  N   UNL     1      -8.447  11.412  69.105  1.00  0.00    -0.377 N  
HETATM    2  H2  UNL     1      -8.255  12.000  69.916  1.00  0.00     0.000 HD 
HETATM    3  C   UNL     1      -7.866  11.696  67.900  1.00  0.00    -0.129 C  
HETATM    4  C   UNL     2     -10.671  14.548  68.768  1.00  0.00    -0.253 C  
HETATM    5  H1  UNL     1      -9.071  10.610  69.190  1.00  0.00     0.000 HD 
HETATM    6  O   UNL     2     -10.938  13.748  69.943  1.00  0.00    -0.458 OA 
HETATM    7  H   UNL     2     -10.335  13.013  69.950  1.00  0.00     0.000 HD 
HETATM    8  O   UNL     1      -7.115  12.659  67.798  1.00  0.00    -0.098 OA 
ENDROOT
BRANCH   4   9
HETATM    9  C   UNL     2     -11.640  15.729  68.757  1.00  0.00    -0.395 C  
HETATM   10  O   UNL     2     -12.821  15.369  69.482  1.00  0.00    -0.548 OA 
HETATM   11  H   UNL     2     -13.424  16.104  69.476  1.00  0.00     0.000 HD 
ENDBRANCH   4   9
BRANCH   3  12
HETATM   12  C   UNL     1      -8.217  10.860  66.725  1.00  0.00    -0.140 A  
HETATM   13  C   UNL     1      -7.197  10.489  65.856  1.00  0.00    -0.135 A  
HETATM   14  C   UNL     1      -9.725   9.639  65.293  1.00  0.00    -0.330 A  
HETATM   15  C   UNL     1      -9.512  10.433  66.420  1.00  0.00    -0.209 A  
HETATM   16  C   UNL     1      -8.638   9.306  64.501  1.00  0.00    -0.195 A  
HETATM   17  N   UNL     1      -7.380   9.722  64.750  1.00  0.00    -0.124 NA 
ENDBRANCH   3  12
BRANCH   4  18
HETATM   18  C   UNL     2     -10.743  13.650  67.530  1.00  0.00    -0.259 C  
HETATM   19  O   UNL     2     -12.921  12.809  64.996  1.00  0.00    -0.811 OA 
HETATM   20  C   UNL     2     -12.045  13.254  65.713  1.00  0.00    -0.441 C  
HETATM   21  C   UNL     2     -10.049  14.092  66.301  1.00  0.00    -0.300 C  
HETATM   22  O   UNL     2     -10.397  13.928  63.921  1.00  0.00    -0.439 OA 
HETATM   23  O   UNL     2     -12.079  13.366  67.075  1.00  0.00    -0.381 OA 
HETATM   24  H   UNL     2      -9.573  14.280  63.607  1.00  0.00     0.000 HD 
HETATM   25  O   UNL     2      -8.792  14.624  66.323  1.00  0.00    -0.474 OA 
HETATM   26  C   UNL     2     -10.769  13.799  65.228  1.00  0.00    -0.339 C  
HETATM   27  H   UNL     2      -8.346  14.908  65.533  1.00  0.00     0.000 HD 
ENDBRANCH   4  18
TORSDOF 3
ENDMDL
MODEL       12
REMARK 921   NORMALIZED FREE ENERGY PREDICTED BY IDOCK:   -5.76 KCAL/MOL
REMARK 922        TOTAL FREE ENERGY PREDICTED BY IDOCK:   -7.88 KCAL/MOL
REMARK 923 INTER-LIGAND FREE ENERGY PREDICTED BY IDOCK:   -7.28 KCAL/MOL
REMARK 924 INTRA-LIGAND FREE ENERGY PREDICTED BY IDOCK:   -0.60 KCAL/MOL
REMARK 927      BINDING AFFINITY PREDICTED BY RF-SCORE:    0.00 PKD
ROOT
HETATM    1  N   UNL     1      -8.294  19.889  65.773  1.00  0.00    -0.371 N  
HETATM    2  H2  UNL     1      -8.602  19.951  64.803  1.00  0.00     0.000 HD 
HETATM    3  C   UNL     1      -7.242  19.081  66.108  1.00  0.00    -0.259 C  
HETATM    4  C   UNL     2     -10.461  16.771  65.081  1.00  0.00    -0.047 C  
HETATM    5  H1  UNL     1      -8.769  20.428  66.497  1.00  0.00     0.000 HD 
HETATM    6  O   UNL     2     -11.160  18.030  64.939  1.00  0.00    -0.738 OA 
HETATM    7  H   UNL     2     -10.546  18.736  65.110  1.00  0.00     0.000 HD 
HETATM    8  O   UNL     1      -6.671  18.433  65.238  1.00  0.00    -0.490 OA 
ENDROOT
BRANCH   4   9
HETATM    9  C   UNL     2     -11.448  15.637  64.806  1.00  0.00    -0.283 C  
HETATM   10  O   UNL     2     -12.255  15.985  63.676  1.00  0.00    -1.195 OA 
HETATM   11  H   UNL     2     -12.868  15.280  63.505  1.00  0.00     0.000 HD 
ENDBRANCH   4   9
BRANCH   3  12
HETATM   12  C   UNL     1      -6.861  18.962  67.537  1.00  0.00    -0.211 A  
HETATM   13  C   UNL     1      -6.591  17.694  68.041  1.00  0.00    -0.182 A  
HETATM   14  C   UNL     1      -6.394  19.813  69.745  1.00  0.00    -0.387 A  
HETATM   15  C   UNL     1      -6.773  20.040  68.422  1.00  0.00    -0.337 A  
HETATM   16  C   UNL     1      -6.125  18.513  70.144  1.00  0.00    -0.077 A  
HETATM   17  N   UNL     1      -6.226  17.447  69.325  1.00  0.00    -0.226 NA 
ENDBRANCH   3  12
BRANCH   4  18
HETATM   18  C   UNL     2      -9.801  16.723  66.462  1.00  0.00    -0.290 C  
HETATM   19  O   UNL     2     -10.634  16.909  69.799  1.00  0.00    -0.265 OA 
HETATM   20  C   UNL     2     -10.330  16.592  68.665  1.00  0.00    -0.304 C  
HETATM   21  C   UNL     2      -9.403  15.406  67.003  1.00  0.00    -0.224 C  
HETATM   22  O   UNL     2      -9.281  14.350  69.168  1.00  0.00    -0.382 OA 
HETATM   23  O   UNL     2     -10.589  17.295  67.521  1.00  0.00    -0.354 OA 
HETATM   24  H   UNL     2      -8.835  13.545  68.935  1.00  0.00     0.000 HD 
HETATM   25  O   UNL     2      -8.780  14.460  66.240  1.00  0.00    -0.457 OA 
HETATM   26  C   UNL     2      -9.640  15.345  68.305  1.00  0.00    -0.205 C  
HETATM   27  H   UNL     2      -8.524  13.614  66.588  1.00  0.00     0.000 HD 
ENDBRANCH   4  18
TORSDOF 3
ENDMDL
MODEL       13
REMARK 921   NORMALIZED FREE ENERGY PREDICTED BY IDOCK:   -5.74 KCAL/MOL
REMARK 922        TOTAL FREE ENERGY PREDICTED BY IDOCK:   -7.86 KCAL/MOL
REMARK 923 INTER-LIGAND FREE ENERGY PREDICTED BY IDOCK:   -7.02 KCAL/MOL
REMARK 924 INTRA-LIGAND FREE ENERGY PREDICTED BY IDOCK:   -0.84 KCAL/MOL
REMARK 927      BINDING AFFINITY PREDICTED BY RF-SCORE:    0.00 PKD
ROOT
HETATM    1  N   UNL     1     -12.721  13.814  65.787  1.00  0.00    -0.480 N  
HETATM    2  H2  UNL     1     -12.640  14.314  64.903  1.00  0.00     0.000 HD 
HETATM    3  C   UNL     1     -11.802  14.019  66.779  1.00  0.00    -0.424 C  
HETATM    4  C   UNL     2     -10.050  11.971  63.698  1.00  0.00    -0.415 C  
HETATM    5  H1  UNL     1     -13.488  13.158  65.936  1.00  0.00     0.000 HD 
HETATM    6  O   UNL     2     -11.368  11.993  63.101  1.00  0.00    -0.676 OA 
HETATM    7  H   UNL     2     -11.950  12.479  63.674  1.00  0.00     0.000 HD 
HETATM    8  O   UNL     1     -10.880  14.807  66.600  1.00  0.00    -0.307 OA 
ENDROOT
BRANCH   4   9
HETATM    9  C   UNL     2      -9.115  11.189  62.777  1.00  0.00    -0.323 C  
HETATM   10  O   UNL     2      -9.688   9.904  62.513  1.00  0.00    -0.517 OA 
HETATM   11  H   UNL     2      -9.107   9.418  61.940  1.00  0.00     0.000 HD 
ENDBRANCH   4   9
BRANCH   3  12
HETATM   12  C   UNL     1     -11.911  13.227  68.028  1.00  0.00    -0.351 A  
HETATM   13  C   UNL     1     -12.039  13.914  69.232  1.00  0.00    -0.339 A  
HETATM   14  C   UNL     1     -11.999  11.189  69.315  1.00  0.00    -0.421 A  
HETATM   15  C   UNL     1     -11.876  11.831  68.083  1.00  0.00    -0.324 A  
HETATM   16  C   UNL     1     -12.144  11.963  70.455  1.00  0.00    -0.333 A  
HETATM   17  N   UNL     1     -12.155  13.311  70.444  1.00  0.00    -0.352 NA 
ENDBRANCH   3  12
BRANCH   4  18
HETATM   18  C   UNL     2     -10.159  11.415  65.120  1.00  0.00    -0.271 C  
HETATM   19  O   UNL     2      -9.589   8.503  66.872  1.00  0.00    -0.165 OA 
HETATM   20  C   UNL     2      -9.568   9.604  66.355  1.00  0.00    -0.210 C  
HETATM   21  C   UNL     2      -9.116  11.787  66.101  1.00  0.00    -0.185 C  
HETATM   22  O   UNL     2      -8.005  10.752  67.974  1.00  0.00    -0.104 OA 
HETATM   23  O   UNL     2     -10.194   9.978  65.199  1.00  0.00    -0.288 OA 
HETATM   24  H   UNL     2      -7.519  11.495  68.311  1.00  0.00     0.000 HD 
HETATM   25  O   UNL     2      -8.643  13.062  66.217  1.00  0.00    -0.400 OA 
HETATM   26  C   UNL     2      -8.815  10.755  66.876  1.00  0.00    -0.140 C  
HETATM   27  H   UNL     2      -7.973  13.301  66.847  1.00  0.00     0.000 HD 
ENDBRANCH   4  18
TORSDOF 3
ENDMDL
MODEL       14
REMARK 921   NORMALIZED FREE ENERGY PREDICTED BY IDOCK:   -5.74 KCAL/MOL
REMARK 922        TOTAL FREE ENERGY PREDICTED BY IDOCK:   -7.86 KCAL/MOL
REMARK 923 INTER-LIGAND FREE ENERGY PREDICTED BY IDOCK:   -6.93 KCAL/MOL
REMARK 924 INTRA-LIGAND FREE ENERGY PREDICTED BY IDOCK:   -0.93 KCAL/MOL
REMARK 927      BINDING AFFINITY PREDICTED BY RF-SCORE:    0.00 PKD
ROOT
HETATM    1  N   UNL     1     -10.282  19.524  69.443  1.00  0.00    -0.572 N  
HETATM    2  H2  UNL     1     -11.219  19.609  69.836  1.00  0.00     0.000 HD 
HETATM    3  C   UNL     1     -10.115  19.363  68.095  1.00  0.00    -0.425 C  
HETATM    4  C   UNL     2     -11.725  15.953  69.686  1.00  0.00    -0.317 C  
HETATM    5  H1  UNL     1      -9.466  19.559  70.054  1.00  0.00     0.000 HD 
HETATM    6  O   UNL     2     -11.592  16.633  70.956  1.00  0.00    -0.578 OA 
HETATM    7  H   UNL     2     -11.248  17.505  70.796  1.00  0.00     0.000 HD 
HETATM    8  O   UNL     1     -11.096  19.322  67.361  1.00  0.00    -0.444 OA 
ENDROOT
BRANCH   4   9
HETATM    9  C   UNL     2     -12.278  14.552  69.945  1.00  0.00    -0.328 C  
HETATM   10  O   UNL     2     -11.416  13.873  70.863  1.00  0.00    -0.485 OA 
HETATM   11  H   UNL     2     -11.759  13.002  71.024  1.00  0.00     0.000 HD 
ENDBRANCH   4   9
BRANCH   3  12
HETATM   12  C   UNL     1      -8.743  19.177  67.564  1.00  0.00    -0.322 A  
HETATM   13  C   UNL     1      -8.539  19.345  66.198  1.00  0.00    -0.284 A  
HETATM   14  C   UNL     1      -6.388  18.685  67.738  1.00  0.00    -0.202 A  
HETATM   15  C   UNL     1      -7.637  18.823  68.342  1.00  0.00    -0.329 A  
HETATM   16  C   UNL     1      -6.285  18.895  66.372  1.00  0.00    -0.180 A  
HETATM   17  N   UNL     1      -7.334  19.211  65.586  1.00  0.00    -0.462 NA 
ENDBRANCH   3  12
BRANCH   4  18
HETATM   18  C   UNL     2     -10.376  15.985  68.963  1.00  0.00    -0.242 C  
HETATM   19  O   UNL     2      -7.253  14.540  69.126  1.00  0.00    -0.127 OA 
HETATM   20  C   UNL     2      -8.394  14.882  68.879  1.00  0.00    -0.178 C  
HETATM   21  C   UNL     2     -10.252  15.260  67.680  1.00  0.00    -0.242 C  
HETATM   22  O   UNL     2      -8.540  14.033  66.505  1.00  0.00    -0.440 OA 
HETATM   23  O   UNL     2      -9.271  15.486  69.737  1.00  0.00    -0.267 OA 
HETATM   24  H   UNL     2      -8.975  13.897  65.672  1.00  0.00     0.000 HD 
HETATM   25  O   UNL     2     -11.213  15.314  66.713  1.00  0.00    -0.317 OA 
HETATM   26  C   UNL     2      -9.067  14.672  67.590  1.00  0.00    -0.193 C  
HETATM   27  H   UNL     2     -11.133  14.848  65.889  1.00  0.00     0.000 HD 
ENDBRANCH   4  18
TORSDOF 3
ENDMDL
MODEL       15
REMARK 921   NORMALIZED FREE ENERGY PREDICTED BY IDOCK:   -5.74 KCAL/MOL
REMARK 922        TOTAL FREE ENERGY PREDICTED BY IDOCK:   -7.86 KCAL/MOL
REMARK 923 INTER-LIGAND FREE ENERGY PREDICTED BY IDOCK:   -7.13 KCAL/MOL
REMARK 924 INTRA-LIGAND FREE ENERGY PREDICTED BY IDOCK:   -0.73 KCAL/MOL
REMARK 927      BINDING AFFINITY PREDICTED BY RF-SCORE:    0.00 PKD
ROOT
HETATM    1  N   UNL     1      -7.792  12.575  66.496  1.00  0.00    -0.320 N  
HETATM    2  H2  UNL     1      -8.309  11.812  66.059  1.00  0.00     0.000 HD 
HETATM    3  C   UNL     1      -8.152  13.026  67.736  1.00  0.00    -0.168 C  
HETATM    4  C   UNL     2     -11.007  14.107  65.008  1.00  0.00    -0.384 C  
HETATM    5  H1  UNL     1      -7.005  13.003  66.010  1.00  0.00     0.000 HD 
HETATM    6  O   UNL     2     -10.125  13.501  64.034  1.00  0.00    -0.749 OA 
HETATM    7  H   UNL     2      -9.375  13.138  64.492  1.00  0.00     0.000 HD 
HETATM    8  O   UNL     1      -9.098  12.512  68.320  1.00  0.00    -0.199 OA 
ENDROOT
BRANCH   4   9
HETATM    9  C   UNL     2     -12.212  14.691  64.272  1.00  0.00    -0.408 C  
HETATM   10  O   UNL     2     -11.858  15.972  63.742  1.00  0.00    -1.334 OA 
HETATM   11  H   UNL     2     -12.607  16.335  63.283  1.00  0.00     0.000 HD 
ENDBRANCH   4   9
BRANCH   3  12
HETATM   12  C   UNL     1      -7.421  14.180  68.314  1.00  0.00    -0.125 A  
HETATM   13  C   UNL     1      -7.014  14.101  69.642  1.00  0.00    -0.011 A  
HETATM   14  C   UNL     1      -6.422  16.375  68.261  1.00  0.00    -0.133 A  
HETATM   15  C   UNL     1      -7.127  15.356  67.619  1.00  0.00    -0.204 A  
HETATM   16  C   UNL     1      -6.042  16.190  69.580  1.00  0.00    -0.181 A  
HETATM   17  N   UNL     1      -6.332  15.080  70.290  1.00  0.00    -0.147 NA 
ENDBRANCH   3  12
BRANCH   4  18
HETATM   18  C   UNL     2     -10.210  15.120  65.834  1.00  0.00    -0.324 C  
HETATM   19  O   UNL     2      -9.591  18.506  65.986  1.00  0.00    -0.487 OA 
HETATM   20  C   UNL     2      -9.970  17.359  66.125  1.00  0.00    -0.270 C  
HETATM   21  C   UNL     2     -10.742  15.522  67.155  1.00  0.00    -0.315 C  
HETATM   22  O   UNL     2     -10.770  17.512  68.516  1.00  0.00    -0.330 OA 
HETATM   23  O   UNL     2      -9.974  16.377  65.174  1.00  0.00    -0.479 OA 
HETATM   24  H   UNL     2     -11.138  17.161  69.317  1.00  0.00     0.000 HD 
HETATM   25  O   UNL     2     -11.260  14.620  68.039  1.00  0.00    -0.270 OA 
HETATM   26  C   UNL     2     -10.541  16.814  67.365  1.00  0.00    -0.291 C  
HETATM   27  H   UNL     2     -11.602  14.878  68.887  1.00  0.00     0.000 HD 
ENDBRANCH   4  18
TORSDOF 3
ENDMDL
MODEL       16
REMARK 921   NORMALIZED FREE ENERGY PREDICTED BY IDOCK:   -5.73 KCAL/MOL
REMARK 922        TOTAL FREE ENERGY PREDICTED BY IDOCK:   -7.85 KCAL/MOL
REMARK 923 INTER-LIGAND FREE ENERGY PREDICTED BY IDOCK:   -7.12 KCAL/MOL
REMARK 924 INTRA-LIGAND FREE ENERGY PREDICTED BY IDOCK:   -0.74 KCAL/MOL
REMARK 927      BINDING AFFINITY PREDICTED BY RF-SCORE:    0.00 PKD
ROOT
HETATM    1  N   UNL     1      -7.637  11.061  65.216  1.00  0.00    -0.345 N  
HETATM    2  H2  UNL     1      -7.934  10.286  64.623  1.00  0.00     0.000 HD 
HETATM    3  C   UNL     1      -8.067  11.137  66.512  1.00  0.00    -0.163 C  
HETATM    4  C   UNL     2     -11.201  11.889  63.989  1.00  0.00    -0.396 C  
HETATM    5  H1  UNL     1      -7.018  11.782  64.845  1.00  0.00     0.000 HD 
HETATM    6  O   UNL     2     -10.219  11.763  62.934  1.00  0.00    -0.623 OA 
HETATM    7  H   UNL     2      -9.382  11.542  63.328  1.00  0.00     0.000 HD 
HETATM    8  O   UNL     1      -8.810  10.270  66.959  1.00  0.00    -0.135 OA 
ENDROOT
BRANCH   4   9
HETATM    9  C   UNL     2     -12.546  12.244  63.357  1.00  0.00    -0.427 C  
HETATM   10  O   UNL     2     -12.514  13.610  62.929  1.00  0.00    -0.960 OA 
HETATM   11  H   UNL     2     -13.350  13.830  62.535  1.00  0.00     0.000 HD 
ENDBRANCH   4   9
BRANCH   3  12
HETATM   12  C   UNL     1      -7.669  12.311  67.327  1.00  0.00    -0.161 A  
HETATM   13  C   UNL     1      -8.671  13.041  67.957  1.00  0.00    -0.187 A  
HETATM   14  C   UNL     1      -6.092  13.860  68.292  1.00  0.00    -0.112 A  
HETATM   15  C   UNL     1      -6.352  12.747  67.491  1.00  0.00    -0.162 A  
HETATM   16  C   UNL     1      -7.159  14.507  68.894  1.00  0.00    -0.118 A  
HETATM   17  N   UNL     1      -8.444  14.131  68.736  1.00  0.00    -0.117 NA 
ENDBRANCH   3  12
BRANCH   4  18
HETATM   18  C   UNL     2     -10.693  12.901  65.020  1.00  0.00    -0.305 C  
HETATM   19  O   UNL     2     -10.391  16.304  65.461  1.00  0.00    -0.428 OA 
HETATM   20  C   UNL     2     -10.701  15.128  65.458  1.00  0.00    -0.365 C  
HETATM   21  C   UNL     2     -11.539  13.184  66.200  1.00  0.00    -0.355 C  
HETATM   22  O   UNL     2     -12.029  15.082  67.606  1.00  0.00    -0.449 OA 
HETATM   23  O   UNL     2     -10.413  14.208  64.489  1.00  0.00    -0.408 OA 
HETATM   24  H   UNL     2     -12.541  14.658  68.285  1.00  0.00     0.000 HD 
HETATM   25  O   UNL     2     -12.172  12.198  66.900  1.00  0.00    -0.537 OA 
HETATM   26  C   UNL     2     -11.493  14.472  66.508  1.00  0.00    -0.362 C  
HETATM   27  H   UNL     2     -12.715  12.381  67.658  1.00  0.00     0.000 HD 
ENDBRANCH   4  18
TORSDOF 3
ENDMDL
MODEL       17
REMARK 921   NORMALIZED FREE ENERGY PREDICTED BY IDOCK:   -5.69 KCAL/MOL
REMARK 922        TOTAL FREE ENERGY PREDICTED BY IDOCK:   -7.81 KCAL/MOL
REMARK 923 INTER-LIGAND FREE ENERGY PREDICTED BY IDOCK:   -6.61 KCAL/MOL
REMARK 924 INTRA-LIGAND FREE ENERGY PREDICTED BY IDOCK:   -1.20 KCAL/MOL
REMARK 927      BINDING AFFINITY PREDICTED BY RF-SCORE:    0.00 PKD
ROOT
HETATM    1  N   UNL     1      -6.564  15.421  67.522  1.00  0.00    -0.170 N  
HETATM    2  H2  UNL     1      -6.775  14.423  67.516  1.00  0.00     0.000 HD 
HETATM    3  C   UNL     1      -6.976  16.204  68.565  1.00  0.00    -0.137 C  
HETATM    4  C   UNL     2     -10.223  15.058  66.352  1.00  0.00    -0.277 C  
HETATM    5  H1  UNL     1      -6.043  15.838  66.751  1.00  0.00     0.000 HD 
HETATM    6  O   UNL     2      -9.252  14.423  65.487  1.00  0.00    -0.449 OA 
HETATM    7  H   UNL     2      -8.387  14.550  65.862  1.00  0.00     0.000 HD 
HETATM    8  O   UNL     1      -7.601  15.702  69.492  1.00  0.00    -0.217 OA 
ENDROOT
BRANCH   4   9
HETATM    9  C   UNL     2     -11.612  14.855  65.748  1.00  0.00    -0.234 C  
HETATM   10  O   UNL     2     -11.602  15.313  64.392  1.00  0.00    -0.613 OA 
HETATM   11  H   UNL     2     -12.466  15.187  64.016  1.00  0.00     0.000 HD 
ENDBRANCH   4   9
BRANCH   3  12
HETATM   12  C   UNL     1      -6.709  17.662  68.511  1.00  0.00    -0.208 A  
HETATM   13  C   UNL     1      -6.316  18.301  69.682  1.00  0.00    -0.183 A  
HETATM   14  C   UNL     1      -6.554  19.809  67.423  1.00  0.00    -0.231 A  
HETATM   15  C   UNL     1      -6.843  18.446  67.362  1.00  0.00    -0.205 A  
HETATM   16  C   UNL     1      -6.149  20.347  68.635  1.00  0.00    -0.315 A  
HETATM   17  N   UNL     1      -6.035  19.627  69.769  1.00  0.00    -0.270 NA 
ENDBRANCH   3  12
BRANCH   4  18
HETATM   18  C   UNL     2      -9.823  16.521  66.557  1.00  0.00    -0.278 C  
HETATM   19  O   UNL     2     -10.593  19.665  65.378  1.00  0.00    -0.443 OA 
HETATM   20  C   UNL     2     -10.469  18.622  65.991  1.00  0.00    -0.414 C  
HETATM   21  C   UNL     2     -10.344  17.230  67.746  1.00  0.00    -0.356 C  
HETATM   22  O   UNL     2     -11.035  19.473  68.301  1.00  0.00    -0.301 OA 
HETATM   23  O   UNL     2     -10.170  17.395  65.468  1.00  0.00    -0.604 OA 
HETATM   24  H   UNL     2     -11.156  19.382  69.239  1.00  0.00     0.000 HD 
HETATM   25  O   UNL     2     -10.375  16.657  68.984  1.00  0.00    -0.276 OA 
HETATM   26  C   UNL     2     -10.656  18.482  67.442  1.00  0.00    -0.424 C  
HETATM   27  H   UNL     2     -10.710  17.113  69.748  1.00  0.00     0.000 HD 
ENDBRANCH   4  18
TORSDOF 3
ENDMDL
MODEL       18
REMARK 921   NORMALIZED FREE ENERGY PREDICTED BY IDOCK:   -5.65 KCAL/MOL
REMARK 922        TOTAL FREE ENERGY PREDICTED BY IDOCK:   -7.75 KCAL/MOL
REMARK 923 INTER-LIGAND FREE ENERGY PREDICTED BY IDOCK:   -6.54 KCAL/MOL
REMARK 924 INTRA-LIGAND FREE ENERGY PREDICTED BY IDOCK:   -1.22 KCAL/MOL
REMARK 927      BINDING AFFINITY PREDICTED BY RF-SCORE:    0.00 PKD
ROOT
HETATM    1  N   UNL     1     -11.283  19.034  67.811  1.00  0.00    -0.136 N  
HETATM    2  H2  UNL     1     -12.219  18.730  67.544  1.00  0.00     0.000 HD 
HETATM    3  C   UNL     1     -10.253  18.951  66.915  1.00  0.00    -0.386 C  
HETATM    4  C   UNL     2     -11.337  15.185  68.097  1.00  0.00    -0.335 C  
HETATM    5  H1  UNL     1     -11.112  19.400  68.747  1.00  0.00     0.000 HD 
HETATM    6  O   UNL     2     -12.269  15.864  68.971  1.00  0.00    -0.531 OA 
HETATM    7  H   UNL     2     -12.197  16.800  68.819  1.00  0.00     0.000 HD 
HETATM    8  O   UNL     1     -10.458  18.511  65.790  1.00  0.00    -0.598 OA 
ENDROOT
BRANCH   4   9
HETATM    9  C   UNL     2     -11.453  13.682  68.343  1.00  0.00    -0.311 C  
HETATM   10  O   UNL     2     -11.274  13.422  69.739  1.00  0.00    -0.460 OA 
HETATM   11  H   UNL     2     -11.346  12.487  69.892  1.00  0.00     0.000 HD 
ENDBRANCH   4   9
BRANCH   3  12
HETATM   12  C   UNL     1      -8.891  19.340  67.358  1.00  0.00    -0.335 A  
HETATM   13  C   UNL     1      -8.024  19.881  66.414  1.00  0.00    -0.323 A  
HETATM   14  C   UNL     1      -7.113  19.594  68.967  1.00  0.00    -0.387 A  
HETATM   15  C   UNL     1      -8.410  19.183  68.660  1.00  0.00    -0.403 A  
HETATM   16  C   UNL     1      -6.335  20.142  67.960  1.00  0.00    -0.258 A  
HETATM   17  N   UNL     1      -6.756  20.284  66.687  1.00  0.00    -0.221 NA 
ENDBRANCH   3  12
BRANCH   4  18
HETATM   18  C   UNL     2      -9.938  15.764  68.320  1.00  0.00    -0.221 C  
HETATM   19  O   UNL     2      -7.046  15.092  70.069  1.00  0.00    -0.178 OA 
HETATM   20  C   UNL     2      -7.938  15.231  69.254  1.00  0.00    -0.223 C  
HETATM   21  C   UNL     2      -8.921  15.564  67.265  1.00  0.00    -0.201 C  
HETATM   22  O   UNL     2      -6.535  15.227  67.154  1.00  0.00    -0.299 OA 
HETATM   23  O   UNL     2      -9.279  15.294  69.511  1.00  0.00    -0.243 OA 
HETATM   24  H   UNL     2      -6.402  15.288  66.215  1.00  0.00     0.000 HD 
HETATM   25  O   UNL     2      -9.201  15.725  65.939  1.00  0.00    -0.340 OA 
HETATM   26  C   UNL     2      -7.733  15.325  67.802  1.00  0.00    -0.149 C  
HETATM   27  H   UNL     2      -8.548  15.598  65.261  1.00  0.00     0.000 HD 
ENDBRANCH   4  18
TORSDOF 3
ENDMDL
MODEL       19
REMARK 921   NORMALIZED FREE ENERGY PREDICTED BY IDOCK:   -5.62 KCAL/MOL
REMARK 922        TOTAL FREE ENERGY PREDICTED BY IDOCK:   -7.72 KCAL/MOL
REMARK 923 INTER-LIGAND FREE ENERGY PREDICTED BY IDOCK:   -6.57 KCAL/MOL
REMARK 924 INTRA-LIGAND FREE ENERGY PREDICTED BY IDOCK:   -1.15 KCAL/MOL
REMARK 927      BINDING AFFINITY PREDICTED BY RF-SCORE:    0.00 PKD
ROOT
HETATM    1  N   UNL     1     -11.019  18.689  67.307  1.00  0.00    -0.299 N  
HETATM    2  H2  UNL     1     -11.994  18.445  67.137  1.00  0.00     0.000 HD 
HETATM    3  C   UNL     1     -10.062  18.379  66.380  1.00  0.00    -0.403 C  
HETATM    4  C   UNL     2     -11.403  14.944  68.157  1.00  0.00    -0.312 C  
HETATM    5  H1  UNL     1     -10.753  19.165  68.169  1.00  0.00     0.000 HD 
HETATM    6  O   UNL     2     -12.209  15.829  68.970  1.00  0.00    -0.575 OA 
HETATM    7  H   UNL     2     -12.062  16.721  68.679  1.00  0.00     0.000 HD 
HETATM    8  O   UNL     1     -10.381  17.807  65.344  1.00  0.00    -0.602 OA 
ENDROOT
BRANCH   4   9
HETATM    9  C   UNL     2     -11.637  13.509  68.626  1.00  0.00    -0.330 C  
HETATM   10  O   UNL     2     -11.404  13.435  70.036  1.00  0.00    -0.490 OA 
HETATM   11  H   UNL     2     -11.550  12.543  70.328  1.00  0.00     0.000 HD 
ENDBRANCH   4   9
BRANCH   3  12
HETATM   12  C   UNL     1      -8.645  18.689  66.687  1.00  0.00    -0.304 A  
HETATM   13  C   UNL     1      -8.375  19.780  67.507  1.00  0.00    -0.314 A  
HETATM   14  C   UNL     1      -6.261  18.344  66.557  1.00  0.00    -0.205 A  
HETATM   15  C   UNL     1      -7.555  17.969  66.192  1.00  0.00    -0.285 A  
HETATM   16  C   UNL     1      -6.098  19.433  67.397  1.00  0.00    -0.190 A  
HETATM   17  N   UNL     1      -7.125  20.168  67.872  1.00  0.00    -0.281 NA 
ENDBRANCH   3  12
BRANCH   4  18
HETATM   18  C   UNL     2      -9.944  15.406  68.218  1.00  0.00    -0.214 C  
HETATM   19  O   UNL     2      -7.051  14.803  69.989  1.00  0.00    -0.165 OA 
HETATM   20  C   UNL     2      -7.963  14.867  69.188  1.00  0.00    -0.165 C  
HETATM   21  C   UNL     2      -9.003  14.892  67.200  1.00  0.00    -0.214 C  
HETATM   22  O   UNL     2      -6.669  14.292  67.096  1.00  0.00    -0.391 OA 
HETATM   23  O   UNL     2      -9.278  15.121  69.462  1.00  0.00    -0.212 OA 
HETATM   24  H   UNL     2      -6.576  14.147  66.162  1.00  0.00     0.000 HD 
HETATM   25  O   UNL     2      -9.330  14.809  65.877  1.00  0.00    -0.464 OA 
HETATM   26  C   UNL     2      -7.820  14.643  67.742  1.00  0.00    -0.154 C  
HETATM   27  H   UNL     2      -8.725  14.479  65.223  1.00  0.00     0.000 HD 
ENDBRANCH   4  18
TORSDOF 3
ENDMDL
MODEL       20
REMARK 921   NORMALIZED FREE ENERGY PREDICTED BY IDOCK:   -5.61 KCAL/MOL
REMARK 922        TOTAL FREE ENERGY PREDICTED BY IDOCK:   -7.72 KCAL/MOL
REMARK 923 INTER-LIGAND FREE ENERGY PREDICTED BY IDOCK:   -7.13 KCAL/MOL
REMARK 924 INTRA-LIGAND FREE ENERGY PREDICTED BY IDOCK:   -0.59 KCAL/MOL
REMARK 927      BINDING AFFINITY PREDICTED BY RF-SCORE:    0.00 PKD
ROOT
HETATM    1  N   UNL     1      -9.252  15.393  65.609  1.00  0.00    -0.366 N  
HETATM    2  H2  UNL     1      -8.898  16.251  66.031  1.00  0.00     0.000 HD 
HETATM    3  C   UNL     1     -10.543  15.330  65.161  1.00  0.00    -0.430 C  
HETATM    4  C   UNL     2     -10.525  15.461  69.252  1.00  0.00    -0.251 C  
HETATM    5  H1  UNL     1      -8.645  14.578  65.520  1.00  0.00     0.000 HD 
HETATM    6  O   UNL     2      -9.084  15.435  69.121  1.00  0.00    -0.210 OA 
HETATM    7  H   UNL     2      -8.866  15.437  68.196  1.00  0.00     0.000 HD 
HETATM    8  O   UNL     1     -11.272  16.309  65.267  1.00  0.00    -0.173 OA 
ENDROOT
BRANCH   4   9
HETATM    9  C   UNL     2     -10.875  15.457  70.740  1.00  0.00    -0.252 C  
HETATM   10  O   UNL     2     -11.788  16.526  71.007  1.00  0.00    -0.561 OA 
HETATM   11  H   UNL     2     -12.006  16.523  71.932  1.00  0.00     0.000 HD 
ENDBRANCH   4   9
BRANCH   3  12
HETATM   12  C   UNL     1     -11.045  14.046  64.613  1.00  0.00    -0.387 A  
HETATM   13  C   UNL     1     -12.420  13.840  64.580  1.00  0.00    -0.315 A  
HETATM   14  C   UNL     1     -10.809  11.852  63.638  1.00  0.00    -0.510 A  
HETATM   15  C   UNL     1     -10.227  13.016  64.143  1.00  0.00    -0.263 A  
HETATM   16  C   UNL     1     -12.191  11.753  63.629  1.00  0.00    -0.383 A  
HETATM   17  N   UNL     1     -13.011  12.715  64.099  1.00  0.00    -0.734 NA 
ENDBRANCH   3  12
BRANCH   4  18
HETATM   18  C   UNL     2     -11.116  14.297  68.453  1.00  0.00    -0.256 C  
HETATM   19  O   UNL     2     -10.199  11.235  67.167  1.00  0.00    -0.192 OA 
HETATM   20  C   UNL     2     -10.631  12.176  67.805  1.00  0.00    -0.204 C  
HETATM   21  C   UNL     2     -11.993  13.336  69.158  1.00  0.00    -0.296 C  
HETATM   22  O   UNL     2     -12.472  10.975  69.049  1.00  0.00    -0.647 OA 
HETATM   23  O   UNL     2     -10.141  13.452  67.815  1.00  0.00    -0.223 OA 
HETATM   24  H   UNL     2     -13.207  10.927  69.649  1.00  0.00     0.000 HD 
HETATM   25  O   UNL     2     -12.958  13.736  70.037  1.00  0.00    -0.152 OA 
HETATM   26  C   UNL     2     -11.768  12.101  68.734  1.00  0.00    -0.321 C  
HETATM   27  H   UNL     2     -13.521  13.119  70.490  1.00  0.00     0.000 HD 
ENDBRANCH   4  18
TORSDOF 3
ENDMDL
MODEL       21
REMARK 921   NORMALIZED FREE ENERGY PREDICTED BY IDOCK:   -5.59 KCAL/MOL
REMARK 922        TOTAL FREE ENERGY PREDICTED BY IDOCK:   -7.69 KCAL/MOL
REMARK 923 INTER-LIGAND FREE ENERGY PREDICTED BY IDOCK:   -6.47 KCAL/MOL
REMARK 924 INTRA-LIGAND FREE ENERGY PREDICTED BY IDOCK:   -1.22 KCAL/MOL
REMARK 927      BINDING AFFINITY PREDICTED BY RF-SCORE:    0.00 PKD
ROOT
HETATM    1  N   UNL     1     -10.256  10.724  69.584  1.00  0.00    -0.436 N  
HETATM    2  H2  UNL     1     -11.105  11.178  69.249  1.00  0.00     0.000 HD 
HETATM    3  C   UNL     1      -9.873   9.517  69.066  1.00  0.00    -0.176 C  
HETATM    4  C   UNL     2     -13.221   9.013  71.367  1.00  0.00    -0.278 C  
HETATM    5  H1  UNL     1      -9.689  11.167  70.306  1.00  0.00     0.000 HD 
HETATM    6  O   UNL     2     -13.086  10.426  71.649  1.00  0.00    -0.403 OA 
HETATM    7  H   UNL     2     -12.346  10.762  71.157  1.00  0.00     0.000 HD 
HETATM    8  O   UNL     1     -10.554   8.983  68.198  1.00  0.00    -0.219 OA 
ENDROOT
BRANCH   4   9
HETATM    9  C   UNL     2     -14.411   8.474  72.160  1.00  0.00    -0.436 C  
HETATM   10  O   UNL     2     -14.285   8.882  73.525  1.00  0.00    -1.194 OA 
HETATM   11  H   UNL     2     -15.025   8.547  74.019  1.00  0.00     0.000 HD 
ENDBRANCH   4   9
BRANCH   3  12
HETATM   12  C   UNL     1      -8.669   8.853  69.622  1.00  0.00    -0.140 A  
HETATM   13  C   UNL     1      -7.752   9.634  70.318  1.00  0.00    -0.172 A  
HETATM   14  C   UNL     1      -7.221   6.972  70.054  1.00  0.00    -0.079 A  
HETATM   15  C   UNL     1      -8.381   7.494  69.478  1.00  0.00    -0.131 A  
HETATM   16  C   UNL     1      -6.382   7.830  70.746  1.00  0.00    -0.037 A  
HETATM   17  N   UNL     1      -6.614   9.152  70.882  1.00  0.00    -0.074 NA 
ENDBRANCH   3  12
BRANCH   4  18
HETATM   18  C   UNL     2     -11.889   8.319  71.662  1.00  0.00    -0.299 C  
HETATM   19  O   UNL     2     -10.351   6.493  74.146  1.00  0.00    -0.341 OA 
HETATM   20  C   UNL     2     -10.928   6.910  73.160  1.00  0.00    -0.263 C  
HETATM   21  C   UNL     2     -11.627   7.008  71.030  1.00  0.00    -0.320 C  
HETATM   22  O   UNL     2     -10.475   4.969  71.608  1.00  0.00    -0.207 OA 
HETATM   23  O   UNL     2     -11.639   8.074  73.057  1.00  0.00    -0.346 OA 
HETATM   24  H   UNL     2     -10.521   4.511  70.778  1.00  0.00     0.000 HD 
HETATM   25  O   UNL     2     -11.915   6.756  69.720  1.00  0.00    -0.654 OA 
HETATM   26  C   UNL     2     -11.000   6.201  71.874  1.00  0.00    -0.263 C  
HETATM   27  H   UNL     2     -11.746   5.914  69.315  1.00  0.00     0.000 HD 
ENDBRANCH   4  18
TORSDOF 3
ENDMDL
MODEL       22
REMARK 921   NORMALIZED FREE ENERGY PREDICTED BY IDOCK:   -5.58 KCAL/MOL
REMARK 922        TOTAL FREE ENERGY PREDICTED BY IDOCK:   -7.67 KCAL/MOL
REMARK 923 INTER-LIGAND FREE ENERGY PREDICTED BY IDOCK:   -7.14 KCAL/MOL
REMARK 924 INTRA-LIGAND FREE ENERGY PREDICTED BY IDOCK:   -0.53 KCAL/MOL
REMARK 927      BINDING AFFINITY PREDICTED BY RF-SCORE:    0.00 PKD
ROOT
HETATM    1  N   UNL     1     -11.437  12.644  69.753  1.00  0.00    -0.489 N  
HETATM    2  H2  UNL     1     -12.377  12.977  69.963  1.00  0.00     0.000 HD 
HETATM    3  C   UNL     1     -11.206  11.908  68.623  1.00  0.00    -0.257 C  
HETATM    4  C   UNL     2     -13.362   9.673  71.289  1.00  0.00    -0.330 C  
HETATM    5  H1  UNL     1     -10.665  12.858  70.384  1.00  0.00     0.000 HD 
HETATM    6  O   UNL     2     -13.221  10.814  72.167  1.00  0.00    -0.578 OA 
HETATM    7  H   UNL     2     -12.753  11.497  71.700  1.00  0.00     0.000 HD 
HETATM    8  O   UNL     1     -12.133  11.651  67.864  1.00  0.00    -0.613 OA 
ENDROOT
BRANCH   4   9
HETATM    9  C   UNL     2     -14.114   8.575  72.040  1.00  0.00    -0.444 C  
HETATM   10  O   UNL     2     -14.071   8.856  73.443  1.00  0.00    -1.256 OA 
HETATM   11  H   UNL     2     -14.539   8.174  73.910  1.00  0.00     0.000 HD 
ENDBRANCH   4   9
BRANCH   3  12
HETATM   12  C   UNL     1      -9.839  11.383  68.381  1.00  0.00    -0.205 A  
HETATM   13  C   UNL     1      -8.782  12.287  68.372  1.00  0.00    -0.139 A  
HETATM   14  C   UNL     1      -8.216   9.655  67.937  1.00  0.00    -0.106 A  
HETATM   15  C   UNL     1      -9.541  10.039  68.142  1.00  0.00    -0.152 A  
HETATM   16  C   UNL     1      -7.231  10.630  67.969  1.00  0.00    -0.087 A  
HETATM   17  N   UNL     1      -7.484  11.939  68.170  1.00  0.00    -0.092 NA 
ENDBRANCH   3  12
BRANCH   4  18
HETATM   18  C   UNL     2     -11.977   9.265  70.780  1.00  0.00    -0.210 C  
HETATM   19  O   UNL     2      -8.709   9.087  71.858  1.00  0.00    -0.363 OA 
HETATM   20  C   UNL     2      -9.863   8.898  71.522  1.00  0.00    -0.314 C  
HETATM   21  C   UNL     2     -11.655   7.823  70.705  1.00  0.00    -0.255 C  
HETATM   22  O   UNL     2      -9.705   6.433  70.995  1.00  0.00    -0.175 OA 
HETATM   23  O   UNL     2     -10.878   9.814  71.530  1.00  0.00    -0.262 OA 
HETATM   24  H   UNL     2     -10.051   5.599  70.701  1.00  0.00     0.000 HD 
HETATM   25  O   UNL     2     -12.535   6.901  70.219  1.00  0.00    -0.613 OA 
HETATM   26  C   UNL     2     -10.398   7.607  71.067  1.00  0.00    -0.202 C  
HETATM   27  H   UNL     2     -12.328   5.975  70.170  1.00  0.00     0.000 HD 
ENDBRANCH   4  18
TORSDOF 3
ENDMDL
MODEL       23
REMARK 921   NORMALIZED FREE ENERGY PREDICTED BY IDOCK:   -5.55 KCAL/MOL
REMARK 922        TOTAL FREE ENERGY PREDICTED BY IDOCK:   -7.64 KCAL/MOL
REMARK 923 INTER-LIGAND FREE ENERGY PREDICTED BY IDOCK:   -6.92 KCAL/MOL
REMARK 924 INTRA-LIGAND FREE ENERGY PREDICTED BY IDOCK:   -0.72 KCAL/MOL
REMARK 927      BINDING AFFINITY PREDICTED BY RF-SCORE:    0.00 PKD
ROOT
HETATM    1  N   UNL     1     -10.180   8.889  66.919  1.00  0.00    -0.266 N  
HETATM    2  H2  UNL     1     -10.264   8.626  67.900  1.00  0.00     0.000 HD 
HETATM    3  C   UNL     1      -9.106   9.622  66.494  1.00  0.00    -0.154 C  
HETATM    4  C   UNL     2     -11.543  11.974  68.794  1.00  0.00    -0.311 C  
HETATM    5  H1  UNL     1     -10.896   8.606  66.249  1.00  0.00     0.000 HD 
HETATM    6  O   UNL     2     -12.402  10.812  68.849  1.00  0.00    -0.788 OA 
HETATM    7  H   UNL     2     -11.980  10.103  68.378  1.00  0.00     0.000 HD 
HETATM    8  O   UNL     1      -8.246   9.962  67.298  1.00  0.00    -0.119 OA 
ENDROOT
BRANCH   4   9
HETATM    9  C   UNL     2     -12.223  13.115  69.550  1.00  0.00    -0.158 C  
HETATM   10  O   UNL     2     -11.291  13.682  70.475  1.00  0.00    -0.489 OA 
HETATM   11  H   UNL     2     -11.713  14.392  70.946  1.00  0.00     0.000 HD 
ENDBRANCH   4   9
BRANCH   3  12
HETATM   12  C   UNL     1      -9.048  10.044  65.073  1.00  0.00    -0.255 A  
HETATM   13  C   UNL     1      -7.818   9.999  64.425  1.00  0.00    -0.144 A  
HETATM   14  C   UNL     1      -9.977  10.865  63.004  1.00  0.00    -0.317 A  
HETATM   15  C   UNL     1     -10.145  10.504  64.341  1.00  0.00    -0.395 A  
HETATM   16  C   UNL     1      -8.714  10.763  62.444  1.00  0.00    -0.289 A  
HETATM   17  N   UNL     1      -7.627  10.350  63.127  1.00  0.00    -0.128 NA 
ENDBRANCH   3  12
BRANCH   4  18
HETATM   18  C   UNL     2     -11.219  12.282  67.330  1.00  0.00    -0.300 C  
HETATM   19  O   UNL     2     -12.809  13.082  64.380  1.00  0.00    -0.679 OA 
HETATM   20  C   UNL     2     -12.197  13.050  65.430  1.00  0.00    -0.471 C  
HETATM   21  C   UNL     2     -10.696  13.625  66.995  1.00  0.00    -0.278 C  
HETATM   22  O   UNL     2     -10.860  15.175  65.154  1.00  0.00    -0.365 OA 
HETATM   23  O   UNL     2     -12.326  12.120  66.425  1.00  0.00    -0.489 OA 
HETATM   24  H   UNL     2     -10.220  15.822  65.424  1.00  0.00     0.000 HD 
HETATM   25  O   UNL     2      -9.739  14.245  67.744  1.00  0.00    -0.215 OA 
HETATM   26  C   UNL     2     -11.207  14.052  65.849  1.00  0.00    -0.308 C  
HETATM   27  H   UNL     2      -9.403  15.108  67.529  1.00  0.00     0.000 HD 
ENDBRANCH   4  18
TORSDOF 3
ENDMDL
MODEL       24
REMARK 921   NORMALIZED FREE ENERGY PREDICTED BY IDOCK:   -5.50 KCAL/MOL
REMARK 922        TOTAL FREE ENERGY PREDICTED BY IDOCK:   -7.59 KCAL/MOL
REMARK 923 INTER-LIGAND FREE ENERGY PREDICTED BY IDOCK:   -6.87 KCAL/MOL
REMARK 924 INTRA-LIGAND FREE ENERGY PREDICTED BY IDOCK:   -0.71 KCAL/MOL
REMARK 927      BINDING AFFINITY PREDICTED BY RF-SCORE:    0.00 PKD
ROOT
HETATM    1  N   UNL     1     -11.461  13.890  64.008  1.00  0.00    -0.615 N  
HETATM    2  H2  UNL     1     -12.128  14.657  64.093  1.00  0.00     0.000 HD 
HETATM    3  C   UNL     1     -11.849  12.609  64.291  1.00  0.00    -0.393 C  
HETATM    4  C   UNL     2     -11.677  14.779  67.757  1.00  0.00    -0.343 C  
HETATM    5  H1  UNL     1     -10.503  14.075  63.712  1.00  0.00     0.000 HD 
HETATM    6  O   UNL     2     -11.198  15.852  66.914  1.00  0.00    -0.168 OA 
HETATM    7  H   UNL     2     -11.195  15.549  66.013  1.00  0.00     0.000 HD 
HETATM    8  O   UNL     1     -13.001  12.387  64.646  1.00  0.00    -0.793 OA 
ENDROOT
BRANCH   4   9
HETATM    9  C   UNL     2     -11.681  15.268  69.205  1.00  0.00    -0.338 C  
HETATM   10  O   UNL     2     -12.937  14.938  69.806  1.00  0.00    -0.583 OA 
HETATM   11  H   UNL     2     -12.939  15.241  70.706  1.00  0.00     0.000 HD 
ENDBRANCH   4   9
BRANCH   3  12
HETATM   12  C   UNL     1     -10.838  11.526  64.221  1.00  0.00    -0.421 A  
HETATM   13  C   UNL     1     -10.160  11.338  63.021  1.00  0.00    -0.285 A  
HETATM   14  C   UNL     1      -9.552   9.686  65.103  1.00  0.00    -0.324 A  
HETATM   15  C   UNL     1     -10.531  10.665  65.277  1.00  0.00    -0.264 A  
HETATM   16  C   UNL     1      -8.918   9.594  63.874  1.00  0.00    -0.218 A  
HETATM   17  N   UNL     1      -9.207  10.390  62.825  1.00  0.00    -0.275 NA 
ENDBRANCH   3  12
BRANCH   4  18
HETATM   18  C   UNL     2     -10.825  13.532  67.506  1.00  0.00    -0.264 C  
HETATM   19  O   UNL     2      -7.564  12.649  66.831  1.00  0.00    -0.040 OA 
HETATM   20  C   UNL     2      -8.658  12.888  67.307  1.00  0.00    -0.205 C  
HETATM   21  C   UNL     2     -10.432  12.706  68.668  1.00  0.00    -0.205 C  
HETATM   22  O   UNL     2      -8.535  11.368  69.321  1.00  0.00    -0.374 OA 
HETATM   23  O   UNL     2      -9.576  13.786  66.839  1.00  0.00    -0.244 OA 
HETATM   24  H   UNL     2      -8.879  10.965  70.109  1.00  0.00     0.000 HD 
HETATM   25  O   UNL     2     -11.306  12.386  69.666  1.00  0.00    -0.431 OA 
HETATM   26  C   UNL     2      -9.191  12.264  68.527  1.00  0.00    -0.087 C  
HETATM   27  H   UNL     2     -11.053  11.854  70.413  1.00  0.00     0.000 HD 
ENDBRANCH   4  18
TORSDOF 3
ENDMDL
MODEL       25
REMARK 921   NORMALIZED FREE ENERGY PREDICTED BY IDOCK:   -5.50 KCAL/MOL
REMARK 922        TOTAL FREE ENERGY PREDICTED BY IDOCK:   -7.58 KCAL/MOL
REMARK 923 INTER-LIGAND FREE ENERGY PREDICTED BY IDOCK:   -6.71 KCAL/MOL
REMARK 924 INTRA-LIGAND FREE ENERGY PREDICTED BY IDOCK:   -0.87 KCAL/MOL
REMARK 927      BINDING AFFINITY PREDICTED BY RF-SCORE:    0.00 PKD
ROOT
HETATM    1  N   UNL     1     -12.815  16.103  69.841  1.00  0.00    -0.446 N  
HETATM    2  H2  UNL     1     -12.779  17.057  70.198  1.00  0.00     0.000 HD 
HETATM    3  C   UNL     1     -11.961  15.154  70.332  1.00  0.00    -0.320 C  
HETATM    4  C   UNL     2      -9.858  17.847  68.080  1.00  0.00    -0.320 C  
HETATM    5  H1  UNL     1     -13.488  15.852  69.117  1.00  0.00     0.000 HD 
HETATM    6  O   UNL     2     -11.148  18.447  67.819  1.00  0.00    -0.218 OA 
HETATM    7  H   UNL     2     -11.808  17.964  68.305  1.00  0.00     0.000 HD 
HETATM    8  O   UNL     1     -11.152  15.454  71.202  1.00  0.00    -0.353 OA 
ENDROOT
BRANCH   4   9
HETATM    9  C   UNL     2      -8.798  18.623  67.298  1.00  0.00    -0.274 C  
HETATM   10  O   UNL     2      -9.009  18.418  65.897  1.00  0.00    -0.484 OA 
HETATM   11  H   UNL     2      -8.350  18.900  65.411  1.00  0.00     0.000 HD 
ENDBRANCH   4   9
BRANCH   3  12
HETATM   12  C   UNL     1     -11.996  13.792  69.745  1.00  0.00    -0.406 A  
HETATM   13  C   UNL     1     -11.952  13.673  68.359  1.00  0.00    -0.356 A  
HETATM   14  C   UNL     1     -12.103  11.384  69.831  1.00  0.00    -0.404 A  
HETATM   15  C   UNL     1     -12.089  12.614  70.490  1.00  0.00    -0.360 A  
HETATM   16  C   UNL     1     -12.034  11.372  68.448  1.00  0.00    -0.200 A  
HETATM   17  N   UNL     1     -11.970  12.489  67.695  1.00  0.00    -0.452 NA 
ENDBRANCH   3  12
BRANCH   4  18
HETATM   18  C   UNL     2      -9.929  16.354  67.750  1.00  0.00    -0.248 C  
HETATM   19  O   UNL     2      -9.921  14.242  65.028  1.00  0.00    -0.338 OA 
HETATM   20  C   UNL     2      -9.679  14.918  66.010  1.00  0.00    -0.328 C  
HETATM   21  C   UNL     2      -8.711  15.536  67.937  1.00  0.00    -0.163 C  
HETATM   22  O   UNL     2      -7.682  13.632  66.872  1.00  0.00    -0.355 OA 
HETATM   23  O   UNL     2     -10.326  16.057  66.399  1.00  0.00    -0.286 OA 
HETATM   24  H   UNL     2      -6.982  13.455  67.488  1.00  0.00     0.000 HD 
HETATM   25  O   UNL     2      -7.913  15.654  69.038  1.00  0.00    -0.173 OA 
HETATM   26  C   UNL     2      -8.595  14.644  66.964  1.00  0.00    -0.224 C  
HETATM   27  H   UNL     2      -7.130  15.128  69.158  1.00  0.00     0.000 HD 
ENDBRANCH   4  18
TORSDOF 3
ENDMDL
MODEL       26
REMARK 921   NORMALIZED FREE ENERGY PREDICTED BY IDOCK:   -5.48 KCAL/MOL
REMARK 922        TOTAL FREE ENERGY PREDICTED BY IDOCK:   -7.56 KCAL/MOL
REMARK 923 INTER-LIGAND FREE ENERGY PREDICTED BY IDOCK:   -6.61 KCAL/MOL
REMARK 924 INTRA-LIGAND FREE ENERGY PREDICTED BY IDOCK:   -0.95 KCAL/MOL
REMARK 927      BINDING AFFINITY PREDICTED BY RF-SCORE:    0.00 PKD
ROOT
HETATM    1  N   UNL     1     -11.964  14.439  65.151  1.00  0.00    -0.381 N  
HETATM    2  H2  UNL     1     -11.733  14.432  64.158  1.00  0.00     0.000 HD 
HETATM    3  C   UNL     1     -11.044  14.871  66.067  1.00  0.00    -0.334 C  
HETATM    4  C   UNL     2      -9.843  11.278  64.517  1.00  0.00    -0.270 C  
HETATM    5  H1  UNL     1     -12.882  14.125  65.465  1.00  0.00     0.000 HD 
HETATM    6  O   UNL     2     -11.093  11.316  63.790  1.00  0.00    -0.503 OA 
HETATM    7  H   UNL     2     -11.535  12.133  63.995  1.00  0.00     0.000 HD 
HETATM    8  O   UNL     1      -9.941  15.250  65.689  1.00  0.00    -0.325 OA 
ENDROOT
BRANCH   4   9
HETATM    9  C   UNL     2      -9.133   9.965  64.189  1.00  0.00    -0.252 C  
HETATM   10  O   UNL     2      -9.471   9.574  62.854  1.00  0.00    -0.544 OA 
HETATM   11  H   UNL     2      -9.030   8.757  62.650  1.00  0.00     0.000 HD 
ENDBRANCH   4   9
BRANCH   3  12
HETATM   12  C   UNL     1     -11.389  14.807  67.508  1.00  0.00    -0.355 A  
HETATM   13  C   UNL     1     -11.110  15.917  68.299  1.00  0.00    -0.345 A  
HETATM   14  C   UNL     1     -12.254  13.751  69.497  1.00  0.00    -0.344 A  
HETATM   15  C   UNL     1     -11.961  13.697  68.134  1.00  0.00    -0.390 A  
HETATM   16  C   UNL     1     -11.957  14.912  70.193  1.00  0.00    -0.317 A  
HETATM   17  N   UNL     1     -11.381  15.992  69.628  1.00  0.00    -0.327 NA 
ENDBRANCH   3  12
BRANCH   4  18
HETATM   18  C   UNL     2     -10.127  11.496  66.005  1.00  0.00    -0.232 C  
HETATM   19  O   UNL     2     -10.638   9.688  68.893  1.00  0.00    -0.209 OA 
HETATM   20  C   UNL     2     -10.223  10.359  67.968  1.00  0.00    -0.169 C  
HETATM   21  C   UNL     2      -9.006  11.899  66.882  1.00  0.00    -0.196 C  
HETATM   22  O   UNL     2      -8.325  11.519  69.164  1.00  0.00    -0.370 OA 
HETATM   23  O   UNL     2     -10.685  10.355  66.681  1.00  0.00    -0.207 OA 
HETATM   24  H   UNL     2      -7.595  12.124  69.222  1.00  0.00     0.000 HD 
HETATM   25  O   UNL     2      -8.097  12.849  66.516  1.00  0.00    -0.381 OA 
HETATM   26  C   UNL     2      -9.093  11.295  68.058  1.00  0.00    -0.156 C  
HETATM   27  H   UNL     2      -7.377  13.108  67.079  1.00  0.00     0.000 HD 
ENDBRANCH   4  18
TORSDOF 3
ENDMDL
MODEL       27
REMARK 921   NORMALIZED FREE ENERGY PREDICTED BY IDOCK:   -5.48 KCAL/MOL
REMARK 922        TOTAL FREE ENERGY PREDICTED BY IDOCK:   -7.56 KCAL/MOL
REMARK 923 INTER-LIGAND FREE ENERGY PREDICTED BY IDOCK:   -6.63 KCAL/MOL
REMARK 924 INTRA-LIGAND FREE ENERGY PREDICTED BY IDOCK:   -0.92 KCAL/MOL
REMARK 927      BINDING AFFINITY PREDICTED BY RF-SCORE:    0.00 PKD
ROOT
HETATM    1  N   UNL     1      -8.328  10.620  64.971  1.00  0.00    -0.293 N  
HETATM    2  H2  UNL     1      -8.796  10.593  64.066  1.00  0.00     0.000 HD 
HETATM    3  C   UNL     1      -8.905  10.025  66.059  1.00  0.00    -0.145 C  
HETATM    4  C   UNL     2     -11.045  13.360  65.032  1.00  0.00    -0.319 C  
HETATM    5  H1  UNL     1      -7.428  11.089  65.069  1.00  0.00     0.000 HD 
HETATM    6  O   UNL     2     -10.026  13.549  64.023  1.00  0.00    -0.734 OA 
HETATM    7  H   UNL     2      -9.415  12.822  64.072  1.00  0.00     0.000 HD 
HETATM    8  O   UNL     1      -9.986   9.460  65.943  1.00  0.00    -0.303 OA 
ENDROOT
BRANCH   4   9
HETATM    9  C   UNL     2     -12.026  14.529  64.953  1.00  0.00    -0.422 C  
HETATM   10  O   UNL     2     -12.445  14.695  63.595  1.00  0.00    -1.070 OA 
HETATM   11  H   UNL     2     -13.055  15.422  63.546  1.00  0.00     0.000 HD 
ENDBRANCH   4   9
BRANCH   3  12
HETATM   12  C   UNL     1      -8.229  10.139  67.375  1.00  0.00    -0.114 A  
HETATM   13  C   UNL     1      -8.955   9.810  68.516  1.00  0.00    -0.124 A  
HETATM   14  C   UNL     1      -6.375  10.632  68.837  1.00  0.00    -0.045 A  
HETATM   15  C   UNL     1      -6.914  10.574  67.551  1.00  0.00    -0.080 A  
HETATM   16  C   UNL     1      -7.174  10.262  69.907  1.00  0.00    -0.159 A  
HETATM   17  N   UNL     1      -8.456   9.863  69.778  1.00  0.00    -0.184 NA 
ENDBRANCH   3  12
BRANCH   4  18
HETATM   18  C   UNL     2     -10.367  13.185  66.394  1.00  0.00    -0.287 C  
HETATM   19  O   UNL     2      -9.406  15.047  69.129  1.00  0.00    -0.205 OA 
HETATM   20  C   UNL     2      -9.942  14.324  68.311  1.00  0.00    -0.239 C  
HETATM   21  C   UNL     2     -11.164  12.623  67.506  1.00  0.00    -0.288 C  
HETATM   22  O   UNL     2     -11.296  12.899  69.898  1.00  0.00    -0.491 OA 
HETATM   23  O   UNL     2      -9.823  14.395  66.951  1.00  0.00    -0.248 OA 
HETATM   24  H   UNL     2     -11.895  12.195  70.114  1.00  0.00     0.000 HD 
HETATM   25  O   UNL     2     -11.993  11.551  67.343  1.00  0.00    -0.623 OA 
HETATM   26  C   UNL     2     -10.869  13.233  68.645  1.00  0.00    -0.259 C  
HETATM   27  H   UNL     2     -12.505  11.190  68.058  1.00  0.00     0.000 HD 
ENDBRANCH   4  18
TORSDOF 3
ENDMDL
MODEL       28
REMARK 921   NORMALIZED FREE ENERGY PREDICTED BY IDOCK:   -5.47 KCAL/MOL
REMARK 922        TOTAL FREE ENERGY PREDICTED BY IDOCK:   -7.55 KCAL/MOL
REMARK 923 INTER-LIGAND FREE ENERGY PREDICTED BY IDOCK:   -6.37 KCAL/MOL
REMARK 924 INTRA-LIGAND FREE ENERGY PREDICTED BY IDOCK:   -1.18 KCAL/MOL
REMARK 927      BINDING AFFINITY PREDICTED BY RF-SCORE:    0.00 PKD
ROOT
HETATM    1  N   UNL     1     -12.399  14.086  67.230  1.00  0.00    -0.540 N  
HETATM    2  H2  UNL     1     -13.160  13.468  66.948  1.00  0.00     0.000 HD 
HETATM    3  C   UNL     1     -11.417  14.416  66.337  1.00  0.00    -0.360 C  
HETATM    4  C   UNL     2     -11.033  10.480  67.392  1.00  0.00    -0.288 C  
HETATM    5  H1  UNL     1     -12.368  14.460  68.178  1.00  0.00     0.000 HD 
HETATM    6  O   UNL     2     -12.143  10.741  68.282  1.00  0.00    -0.805 OA 
HETATM    7  H   UNL     2     -12.421  11.641  68.161  1.00  0.00     0.000 HD 
HETATM    8  O   UNL     1     -11.454  13.967  65.197  1.00  0.00    -0.309 OA 
ENDROOT
BRANCH   4   9
HETATM    9  C   UNL     2     -10.587   9.032  67.588  1.00  0.00    -0.231 C  
HETATM   10  O   UNL     2     -10.814   8.654  68.949  1.00  0.00    -0.410 OA 
HETATM   11  H   UNL     2     -10.536   7.753  69.071  1.00  0.00     0.000 HD 
ENDBRANCH   4   9
BRANCH   3  12
HETATM   12  C   UNL     1     -10.290  15.264  66.799  1.00  0.00    -0.279 A  
HETATM   13  C   UNL     1     -10.452  15.984  67.978  1.00  0.00    -0.275 A  
HETATM   14  C   UNL     1      -8.082  16.222  66.651  1.00  0.00    -0.323 A  
HETATM   15  C   UNL     1      -9.079  15.405  66.118  1.00  0.00    -0.339 A  
HETATM   16  C   UNL     1      -8.333  16.881  67.844  1.00  0.00    -0.198 A  
HETATM   17  N   UNL     1      -9.499  16.791  68.514  1.00  0.00    -0.237 NA 
ENDBRANCH   3  12
BRANCH   4  18
HETATM   18  C   UNL     2      -9.942  11.524  67.640  1.00  0.00    -0.184 C  
HETATM   19  O   UNL     2      -6.991  11.905  69.377  1.00  0.00    -0.088 OA 
HETATM   20  C   UNL     2      -7.879  11.734  68.564  1.00  0.00    -0.144 C  
HETATM   21  C   UNL     2      -8.932  11.749  66.583  1.00  0.00    -0.195 C  
HETATM   22  O   UNL     2      -6.591  12.317  66.471  1.00  0.00    -0.421 OA 
HETATM   23  O   UNL     2      -9.147  11.291  68.817  1.00  0.00    -0.174 OA 
HETATM   24  H   UNL     2      -6.498  12.453  65.535  1.00  0.00     0.000 HD 
HETATM   25  O   UNL     2      -9.264  11.839  65.263  1.00  0.00    -0.403 OA 
HETATM   26  C   UNL     2      -7.735  11.945  67.116  1.00  0.00    -0.163 C  
HETATM   27  H   UNL     2      -8.615  11.984  64.583  1.00  0.00     0.000 HD 
ENDBRANCH   4  18
TORSDOF 3
ENDMDL
MODEL       29
REMARK 921   NORMALIZED FREE ENERGY PREDICTED BY IDOCK:   -5.42 KCAL/MOL
REMARK 922        TOTAL FREE ENERGY PREDICTED BY IDOCK:   -7.48 KCAL/MOL
REMARK 923 INTER-LIGAND FREE ENERGY PREDICTED BY IDOCK:   -6.90 KCAL/MOL
REMARK 924 INTRA-LIGAND FREE ENERGY PREDICTED BY IDOCK:   -0.59 KCAL/MOL
REMARK 927      BINDING AFFINITY PREDICTED BY RF-SCORE:    0.00 PKD
ROOT
HETATM    1  N   UNL     1      -9.604  12.963  68.878  1.00  0.00    -0.402 N  
HETATM    2  H2  UNL     1      -9.364  13.713  69.525  1.00  0.00     0.000 HD 
HETATM    3  C   UNL     1      -8.761  12.650  67.847  1.00  0.00    -0.181 C  
HETATM    4  C   UNL     2     -10.504  16.284  67.129  1.00  0.00    -0.297 C  
HETATM    5  H1  UNL     1     -10.473  12.443  68.996  1.00  0.00     0.000 HD 
HETATM    6  O   UNL     2     -11.233  16.035  68.354  1.00  0.00    -0.339 OA 
HETATM    7  H   UNL     2     -10.934  15.210  68.720  1.00  0.00     0.000 HD 
HETATM    8  O   UNL     1      -7.716  13.275  67.704  1.00  0.00    -0.142 OA 
ENDROOT
BRANCH   4   9
HETATM    9  C   UNL     2     -10.985  17.610  66.542  1.00  0.00     0.251 C  
HETATM   10  O   UNL     2      -9.863  18.315  66.002  1.00  0.00    -0.496 OA 
HETATM   11  H   UNL     2     -10.162  19.140  65.637  1.00  0.00     0.000 HD 
ENDBRANCH   4   9
BRANCH   3  12
HETATM   12  C   UNL     1      -9.171  11.598  66.885  1.00  0.00    -0.187 A  
HETATM   13  C   UNL     1      -9.807  10.465  67.384  1.00  0.00    -0.178 A  
HETATM   14  C   UNL     1      -9.384  10.612  64.694  1.00  0.00    -0.280 A  
HETATM   15  C   UNL     1      -8.945  11.657  65.508  1.00  0.00     0.033 A  
HETATM   16  C   UNL     1     -10.028   9.537  65.286  1.00  0.00     0.022 A  
HETATM   17  N   UNL     1     -10.239   9.433  66.614  1.00  0.00    -0.258 NA 
ENDBRANCH   3  12
BRANCH   4  18
HETATM   18  C   UNL     2     -10.669  15.077  66.201  1.00  0.00    -0.327 C  
HETATM   19  O   UNL     2     -12.720  12.345  65.752  1.00  0.00    -0.392 OA 
HETATM   20  C   UNL     2     -12.132  13.409  65.719  1.00  0.00    -0.436 C  
HETATM   21  C   UNL     2     -11.267  15.295  64.866  1.00  0.00    -0.415 C  
HETATM   22  O   UNL     2     -12.684  14.072  63.345  1.00  0.00    -0.933 OA 
HETATM   23  O   UNL     2     -11.457  14.005  66.749  1.00  0.00    -0.332 OA 
HETATM   24  H   UNL     2     -12.642  14.641  62.586  1.00  0.00     0.000 HD 
HETATM   25  O   UNL     2     -10.921  16.351  64.074  1.00  0.00    -1.126 OA 
HETATM   26  C   UNL     2     -12.067  14.290  64.544  1.00  0.00    -0.480 C  
HETATM   27  H   UNL     2     -11.305  16.491  63.216  1.00  0.00     0.000 HD 
ENDBRANCH   4  18
TORSDOF 3
ENDMDL
MODEL       30
REMARK 921   NORMALIZED FREE ENERGY PREDICTED BY IDOCK:   -5.41 KCAL/MOL
REMARK 922        TOTAL FREE ENERGY PREDICTED BY IDOCK:   -7.48 KCAL/MOL
REMARK 923 INTER-LIGAND FREE ENERGY PREDICTED BY IDOCK:   -6.26 KCAL/MOL
REMARK 924 INTRA-LIGAND FREE ENERGY PREDICTED BY IDOCK:   -1.22 KCAL/MOL
REMARK 927      BINDING AFFINITY PREDICTED BY RF-SCORE:    0.00 PKD
ROOT
HETATM    1  N   UNL     1      -9.145   9.012  64.678  1.00  0.00    -0.434 N  
HETATM    2  H2  UNL     1      -9.871   8.600  64.094  1.00  0.00     0.000 HD 
HETATM    3  C   UNL     1      -9.317   9.090  66.033  1.00  0.00    -0.242 C  
HETATM    4  C   UNL     2     -11.855  11.715  64.183  1.00  0.00    -0.172 C  
HETATM    5  H1  UNL     1      -8.288   9.367  64.255  1.00  0.00     0.000 HD 
HETATM    6  O   UNL     2     -11.217  11.275  62.961  1.00  0.00    -0.838 OA 
HETATM    7  H   UNL     2     -10.582  10.602  63.179  1.00  0.00     0.000 HD 
HETATM    8  O   UNL     1     -10.346   8.663  66.542  1.00  0.00    -0.282 OA 
ENDROOT
BRANCH   4   9
HETATM    9  C   UNL     2     -12.875  12.797  63.832  1.00  0.00    -0.066 C  
HETATM   10  O   UNL     2     -12.222  13.828  63.084  1.00  0.00    -1.048 OA 
HETATM   11  H   UNL     2     -12.857  14.501  62.866  1.00  0.00     0.000 HD 
ENDBRANCH   4   9
BRANCH   3  12
HETATM   12  C   UNL     1      -8.269   9.755  66.846  1.00  0.00    -0.117 A  
HETATM   13  C   UNL     1      -8.031   9.274  68.130  1.00  0.00    -0.099 A  
HETATM   14  C   UNL     1      -6.546  11.390  67.265  1.00  0.00    -0.104 A  
HETATM   15  C   UNL     1      -7.514  10.850  66.418  1.00  0.00    -0.145 A  
HETATM   16  C   UNL     1      -6.370  10.824  68.517  1.00  0.00    -0.050 A  
HETATM   17  N   UNL     1      -7.099   9.786  68.975  1.00  0.00    -0.065 NA 
ENDBRANCH   3  12
BRANCH   4  18
HETATM   18  C   UNL     2     -10.775  12.152  65.176  1.00  0.00    -0.292 C  
HETATM   19  O   UNL     2      -9.216  15.011  66.300  1.00  0.00    -0.289 OA 
HETATM   20  C   UNL     2      -9.900  14.022  66.120  1.00  0.00    -0.303 C  
HETATM   21  C   UNL     2     -11.125  12.208  66.612  1.00  0.00    -0.306 C  
HETATM   22  O   UNL     2     -10.539  13.563  68.520  1.00  0.00    -0.238 OA 
HETATM   23  O   UNL     2     -10.216  13.452  64.918  1.00  0.00    -0.348 OA 
HETATM   24  H   UNL     2     -10.965  13.069  69.211  1.00  0.00     0.000 HD 
HETATM   25  O   UNL     2     -11.847  11.227  67.228  1.00  0.00    -0.562 OA 
HETATM   26  C   UNL     2     -10.559  13.258  67.189  1.00  0.00    -0.258 C  
HETATM   27  H   UNL     2     -12.071  11.263  68.151  1.00  0.00     0.000 HD 
ENDBRANCH   4  18
TORSDOF 3
ENDMDL
MODEL       31
REMARK 921   NORMALIZED FREE ENERGY PREDICTED BY IDOCK:   -5.38 KCAL/MOL
REMARK 922        TOTAL FREE ENERGY PREDICTED BY IDOCK:   -7.43 KCAL/MOL
REMARK 923 INTER-LIGAND FREE ENERGY PREDICTED BY IDOCK:   -6.33 KCAL/MOL
REMARK 924 INTRA-LIGAND FREE ENERGY PREDICTED BY IDOCK:   -1.10 KCAL/MOL
REMARK 927      BINDING AFFINITY PREDICTED BY RF-SCORE:    0.00 PKD
ROOT
HETATM    1  N   UNL     1     -11.744  14.584  65.473  1.00  0.00    -0.350 N  
HETATM    2  H2  UNL     1     -12.533  15.209  65.313  1.00  0.00     0.000 HD 
HETATM    3  C   UNL     1     -11.416  14.205  66.745  1.00  0.00    -0.369 C  
HETATM    4  C   UNL     2     -10.512  18.163  66.226  1.00  0.00    -0.361 C  
HETATM    5  H1  UNL     1     -11.196  14.239  64.685  1.00  0.00     0.000 HD 
HETATM    6  O   UNL     2     -10.948  17.954  64.862  1.00  0.00    -0.827 OA 
HETATM    7  H   UNL     2     -11.248  17.056  64.777  1.00  0.00     0.000 HD 
HETATM    8  O   UNL     1     -12.074  14.619  67.693  1.00  0.00    -0.333 OA 
ENDROOT
BRANCH   4   9
HETATM    9  C   UNL     2     -10.029  19.607  66.363  1.00  0.00    -0.455 C  
HETATM   10  O   UNL     2      -8.975  19.837  65.423  1.00  0.00    -0.148 OA 
HETATM   11  H   UNL     2      -8.675  20.735  65.508  1.00  0.00     0.000 HD 
ENDBRANCH   4   9
BRANCH   3  12
HETATM   12  C   UNL     1     -10.222  13.348  66.948  1.00  0.00    -0.252 A  
HETATM   13  C   UNL     1      -9.914  12.409  65.969  1.00  0.00    -0.255 A  
HETATM   14  C   UNL     1      -8.286  12.557  68.151  1.00  0.00    -0.175 A  
HETATM   15  C   UNL     1      -9.391  13.405  68.070  1.00  0.00    -0.217 A  
HETATM   16  C   UNL     1      -8.053  11.671  67.111  1.00  0.00    -0.166 A  
HETATM   17  N   UNL     1      -8.849  11.569  66.027  1.00  0.00    -0.181 NA 
ENDBRANCH   3  12
BRANCH   4  18
HETATM   18  C   UNL     2      -9.465  17.103  66.579  1.00  0.00    -0.273 C  
HETATM   19  O   UNL     2      -6.050  16.649  66.560  1.00  0.00    -0.303 OA 
HETATM   20  C   UNL     2      -7.221  16.851  66.816  1.00  0.00    -0.243 C  
HETATM   21  C   UNL     2      -9.124  16.903  68.004  1.00  0.00    -0.234 C  
HETATM   22  O   UNL     2      -7.165  16.321  69.285  1.00  0.00    -0.212 OA 
HETATM   23  O   UNL     2      -8.183  17.296  65.953  1.00  0.00    -0.534 OA 
HETATM   24  H   UNL     2      -7.555  16.211  70.144  1.00  0.00     0.000 HD 
HETATM   25  O   UNL     2     -10.073  16.854  68.983  1.00  0.00    -0.271 OA 
HETATM   26  C   UNL     2      -7.825  16.682  68.146  1.00  0.00    -0.175 C  
HETATM   27  H   UNL     2      -9.854  16.724  69.899  1.00  0.00     0.000 HD 
ENDBRANCH   4  18
TORSDOF 3
ENDMDL
MODEL       32
REMARK 921   NORMALIZED FREE ENERGY PREDICTED BY IDOCK:   -5.36 KCAL/MOL
REMARK 922        TOTAL FREE ENERGY PREDICTED BY IDOCK:   -7.42 KCAL/MOL
REMARK 923 INTER-LIGAND FREE ENERGY PREDICTED BY IDOCK:   -6.47 KCAL/MOL
REMARK 924 INTRA-LIGAND FREE ENERGY PREDICTED BY IDOCK:   -0.95 KCAL/MOL
REMARK 927      BINDING AFFINITY PREDICTED BY RF-SCORE:    0.00 PKD
ROOT
HETATM    1  N   UNL     1      -7.124  12.027  66.531  1.00  0.00    -0.360 N  
HETATM    2  H2  UNL     1      -7.386  11.089  66.228  1.00  0.00     0.000 HD 
HETATM    3  C   UNL     1      -7.610  12.528  67.707  1.00  0.00    -0.138 C  
HETATM    4  C   UNL     2     -10.643  12.296  64.969  1.00  0.00    -0.287 C  
HETATM    5  H1  UNL     1      -6.499  12.594  65.959  1.00  0.00     0.000 HD 
HETATM    6  O   UNL     2      -9.615  11.843  64.057  1.00  0.00    -0.465 OA 
HETATM    7  H   UNL     2      -8.794  11.792  64.531  1.00  0.00     0.000 HD 
HETATM    8  O   UNL     1      -8.360  11.846  68.396  1.00  0.00    -0.159 OA 
ENDROOT
BRANCH   4   9
HETATM    9  C   UNL     2     -11.964  12.379  64.206  1.00  0.00    -0.410 C  
HETATM   10  O   UNL     2     -11.867  11.587  63.018  1.00  0.00    -0.898 OA 
HETATM   11  H   UNL     2     -12.689  11.639  62.544  1.00  0.00     0.000 HD 
ENDBRANCH   4   9
BRANCH   3  12
HETATM   12  C   UNL     1      -7.261  13.919  68.087  1.00  0.00    -0.120 A  
HETATM   13  C   UNL     1      -6.820  14.154  69.385  1.00  0.00    -0.104 A  
HETATM   14  C   UNL     1      -6.998  16.284  67.693  1.00  0.00    -0.168 A  
HETATM   15  C   UNL     1      -7.364  15.019  67.232  1.00  0.00    -0.195 A  
HETATM   16  C   UNL     1      -6.550  16.410  68.998  1.00  0.00    -0.181 A  
HETATM   17  N   UNL     1      -6.463  15.376  69.859  1.00  0.00    -0.166 NA 
ENDBRANCH   3  12
BRANCH   4  18
HETATM   18  C   UNL     2     -10.192  13.610  65.611  1.00  0.00    -0.304 C  
HETATM   19  O   UNL     2     -10.581  17.012  65.228  1.00  0.00    -0.647 OA 
HETATM   20  C   UNL     2     -10.616  15.840  65.550  1.00  0.00    -0.406 C  
HETATM   21  C   UNL     2     -10.846  14.038  66.867  1.00  0.00    -0.290 C  
HETATM   22  O   UNL     2     -11.478  16.121  67.907  1.00  0.00    -0.248 OA 
HETATM   23  O   UNL     2     -10.315  14.765  64.761  1.00  0.00    -0.382 OA 
HETATM   24  H   UNL     2     -11.747  15.805  68.761  1.00  0.00     0.000 HD 
HETATM   25  O   UNL     2     -11.101  13.173  67.890  1.00  0.00    -0.245 OA 
HETATM   26  C   UNL     2     -11.032  15.350  66.872  1.00  0.00    -0.294 C  
HETATM   27  H   UNL     2     -11.521  13.448  68.697  1.00  0.00     0.000 HD 
ENDBRANCH   4  18
TORSDOF 3
ENDMDL
MODEL       33
REMARK 921   NORMALIZED FREE ENERGY PREDICTED BY IDOCK:   -5.30 KCAL/MOL
REMARK 922        TOTAL FREE ENERGY PREDICTED BY IDOCK:   -7.35 KCAL/MOL
REMARK 923 INTER-LIGAND FREE ENERGY PREDICTED BY IDOCK:   -6.15 KCAL/MOL
REMARK 924 INTRA-LIGAND FREE ENERGY PREDICTED BY IDOCK:   -1.20 KCAL/MOL
REMARK 927      BINDING AFFINITY PREDICTED BY RF-SCORE:    0.00 PKD
ROOT
HETATM    1  N   UNL     1     -10.663  10.298  64.023  1.00  0.00    -0.035 N  
HETATM    2  H2  UNL     1     -10.226   9.378  63.977  1.00  0.00     0.000 HD 
HETATM    3  C   UNL     1      -9.900  11.409  64.255  1.00  0.00    -0.261 C  
HETATM    4  C   UNL     2     -10.088   9.148  67.662  1.00  0.00    -0.220 C  
HETATM    5  H1  UNL     1     -11.670  10.394  63.896  1.00  0.00     0.000 HD 
HETATM    6  O   UNL     2     -10.973   8.296  66.897  1.00  0.00    -0.330 OA 
HETATM    7  H   UNL     2     -11.040   8.646  66.016  1.00  0.00     0.000 HD 
HETATM    8  O   UNL     1      -8.689  11.295  64.408  1.00  0.00     0.081 OA 
ENDROOT
BRANCH   4   9
HETATM    9  C   UNL     2      -9.981   8.585  69.078  1.00  0.00    -0.193 C  
HETATM   10  O   UNL     2     -11.283   8.191  69.523  1.00  0.00    -0.446 OA 
HETATM   11  H   UNL     2     -11.217   7.841  70.404  1.00  0.00     0.000 HD 
ENDBRANCH   4   9
BRANCH   3  12
HETATM   12  C   UNL     1     -10.575  12.724  64.381  1.00  0.00    -0.402 A  
HETATM   13  C   UNL     1     -11.804  12.893  63.752  1.00  0.00    -0.504 A  
HETATM   14  C   UNL     1     -10.779  15.005  65.138  1.00  0.00    -0.434 A  
HETATM   15  C   UNL     1     -10.050  13.817  65.076  1.00  0.00    -0.310 A  
HETATM   16  C   UNL     1     -12.004  15.066  64.495  1.00  0.00    -0.371 A  
HETATM   17  N   UNL     1     -12.529  14.041  63.793  1.00  0.00    -0.796 NA 
ENDBRANCH   3  12
BRANCH   4  18
HETATM   18  C   UNL     2     -10.597  10.589  67.583  1.00  0.00    -0.250 C  
HETATM   19  O   UNL     2     -12.499  12.825  69.387  1.00  0.00    -0.009 OA 
HETATM   20  C   UNL     2     -11.631  12.166  68.848  1.00  0.00    -0.324 C  
HETATM   21  C   UNL     2      -9.654  11.684  67.902  1.00  0.00    -0.180 C  
HETATM   22  O   UNL     2      -9.764  13.865  68.926  1.00  0.00    -0.389 OA 
HETATM   23  O   UNL     2     -11.731  10.870  68.424  1.00  0.00    -0.436 OA 
HETATM   24  H   UNL     2      -8.883  14.174  68.751  1.00  0.00     0.000 HD 
HETATM   25  O   UNL     2      -8.369  11.699  67.443  1.00  0.00    -0.139 OA 
HETATM   26  C   UNL     2     -10.267  12.644  68.579  1.00  0.00    -0.201 C  
HETATM   27  H   UNL     2      -7.764  12.403  67.648  1.00  0.00     0.000 HD 
ENDBRANCH   4  18
TORSDOF 3
ENDMDL
MODEL       34
REMARK 921   NORMALIZED FREE ENERGY PREDICTED BY IDOCK:   -5.29 KCAL/MOL
REMARK 922        TOTAL FREE ENERGY PREDICTED BY IDOCK:   -7.33 KCAL/MOL
REMARK 923 INTER-LIGAND FREE ENERGY PREDICTED BY IDOCK:   -6.59 KCAL/MOL
REMARK 924 INTRA-LIGAND FREE ENERGY PREDICTED BY IDOCK:   -0.73 KCAL/MOL
REMARK 927      BINDING AFFINITY PREDICTED BY RF-SCORE:    0.00 PKD
ROOT
HETATM    1  N   UNL     1     -10.393  15.270  65.147  1.00  0.00    -0.390 N  
HETATM    2  H2  UNL     1     -10.220  14.378  64.685  1.00  0.00     0.000 HD 
HETATM    3  C   UNL     1      -9.496  15.757  66.059  1.00  0.00    -0.357 C  
HETATM    4  C   UNL     2     -11.415  12.503  67.635  1.00  0.00    -0.334 C  
HETATM    5  H1  UNL     1     -11.235  15.804  64.932  1.00  0.00     0.000 HD 
HETATM    6  O   UNL     2     -12.172  12.510  66.402  1.00  0.00    -0.584 OA 
HETATM    7  H   UNL     2     -11.841  13.209  65.850  1.00  0.00     0.000 HD 
HETATM    8  O   UNL     1      -8.484  15.116  66.318  1.00  0.00    -0.125 OA 
ENDROOT
BRANCH   4   9
HETATM    9  C   UNL     2     -11.949  11.380  68.523  1.00  0.00    -0.225 C  
HETATM   10  O   UNL     2     -11.704  10.123  67.883  1.00  0.00    -0.646 OA 
HETATM   11  H   UNL     2     -12.036   9.425  68.436  1.00  0.00     0.000 HD 
ENDBRANCH   4   9
BRANCH   3  12
HETATM   12  C   UNL     1      -9.810  17.025  66.761  1.00  0.00    -0.283 A  
HETATM   13  C   UNL     1      -9.413  17.157  68.087  1.00  0.00    -0.269 A  
HETATM   14  C   UNL     1     -10.730  19.248  66.936  1.00  0.00    -0.543 A  
HETATM   15  C   UNL     1     -10.498  18.096  66.184  1.00  0.00    -0.377 A  
HETATM   16  C   UNL     1     -10.274  19.289  68.244  1.00  0.00    -0.418 A  
HETATM   17  N   UNL     1      -9.631  18.265  68.841  1.00  0.00    -0.291 NA 
ENDBRANCH   3  12
BRANCH   4  18
HETATM   18  C   UNL     2     -11.477  13.898  68.263  1.00  0.00    -0.311 C  
HETATM   19  O   UNL     2     -13.296  15.675  70.587  1.00  0.00    -0.494 OA 
HETATM   20  C   UNL     2     -12.483  15.027  69.955  1.00  0.00    -0.275 C  
HETATM   21  C   UNL     2     -10.485  14.242  69.305  1.00  0.00    -0.097 C  
HETATM   22  O   UNL     2     -10.425  15.578  71.312  1.00  0.00    -0.145 OA 
HETATM   23  O   UNL     2     -12.735  14.221  68.881  1.00  0.00     0.145 OA 
HETATM   24  H   UNL     2      -9.497  15.538  71.510  1.00  0.00     0.000 HD 
HETATM   25  O   UNL     2      -9.162  13.926  69.189  1.00  0.00    -0.386 OA 
HETATM   26  C   UNL     2     -11.047  14.965  70.263  1.00  0.00    -0.192 C  
HETATM   27  H   UNL     2      -8.525  14.147  69.858  1.00  0.00     0.000 HD 
ENDBRANCH   4  18
TORSDOF 3
ENDMDL
MODEL       35
REMARK 921   NORMALIZED FREE ENERGY PREDICTED BY IDOCK:   -5.19 KCAL/MOL
REMARK 922        TOTAL FREE ENERGY PREDICTED BY IDOCK:   -7.21 KCAL/MOL
REMARK 923 INTER-LIGAND FREE ENERGY PREDICTED BY IDOCK:   -6.10 KCAL/MOL
REMARK 924 INTRA-LIGAND FREE ENERGY PREDICTED BY IDOCK:   -1.11 KCAL/MOL
REMARK 927      BINDING AFFINITY PREDICTED BY RF-SCORE:    0.00 PKD
ROOT
HETATM    1  N   UNL     1     -12.606  13.935  67.080  1.00  0.00    -0.391 N  
HETATM    2  H2  UNL     1     -13.329  13.270  66.807  1.00  0.00     0.000 HD 
HETATM    3  C   UNL     1     -11.628  14.290  66.192  1.00  0.00    -0.369 C  
HETATM    4  C   UNL     2     -11.057  10.412  67.372  1.00  0.00    -0.226 C  
HETATM    5  H1  UNL     1     -12.609  14.338  68.017  1.00  0.00     0.000 HD 
HETATM    6  O   UNL     2     -12.193  10.641  68.238  1.00  0.00    -0.799 OA 
HETATM    7  H   UNL     2     -12.515  11.522  68.085  1.00  0.00     0.000 HD 
HETATM    8  O   UNL     1     -11.624  13.806  65.066  1.00  0.00    -0.321 OA 
ENDROOT
BRANCH   4   9
HETATM    9  C   UNL     2     -10.539   8.996  67.618  1.00  0.00    -0.231 C  
HETATM   10  O   UNL     2     -10.819   8.626  68.972  1.00  0.00    -0.404 OA 
HETATM   11  H   UNL     2     -10.497   7.745  69.126  1.00  0.00     0.000 HD 
ENDBRANCH   4   9
BRANCH   3  12
HETATM   12  C   UNL     1     -10.554  15.209  66.643  1.00  0.00    -0.304 A  
HETATM   13  C   UNL     1      -9.690  15.729  65.685  1.00  0.00    -0.297 A  
HETATM   14  C   UNL     1      -9.302  16.458  68.283  1.00  0.00    -0.210 A  
HETATM   15  C   UNL     1     -10.338  15.576  67.974  1.00  0.00    -0.247 A  
HETATM   16  C   UNL     1      -8.509  16.937  67.253  1.00  0.00    -0.196 A  
HETATM   17  N   UNL     1      -8.672  16.584  65.961  1.00  0.00    -0.457 NA 
ENDBRANCH   3  12
BRANCH   4  18
HETATM   18  C   UNL     2     -10.026  11.519  67.604  1.00  0.00    -0.184 C  
HETATM   19  O   UNL     2      -7.129  12.108  69.374  1.00  0.00    -0.024 OA 
HETATM   20  C   UNL     2      -7.993  11.865  68.553  1.00  0.00    -0.137 C  
HETATM   21  C   UNL     2      -9.010  11.762  66.556  1.00  0.00    -0.196 C  
HETATM   22  O   UNL     2      -6.700  12.447  66.462  1.00  0.00    -0.386 OA 
HETATM   23  O   UNL     2      -9.241  11.365  68.800  1.00  0.00    -0.175 OA 
HETATM   24  H   UNL     2      -6.597  12.558  65.525  1.00  0.00     0.000 HD 
HETATM   25  O   UNL     2      -9.323  11.793  65.228  1.00  0.00    -0.380 OA 
HETATM   26  C   UNL     2      -7.834  12.037  67.101  1.00  0.00    -0.168 C  
HETATM   27  H   UNL     2      -8.670  11.950  64.555  1.00  0.00     0.000 HD 
ENDBRANCH   4  18
TORSDOF 3
ENDMDL
MODEL       36
REMARK 921   NORMALIZED FREE ENERGY PREDICTED BY IDOCK:   -5.18 KCAL/MOL
REMARK 922        TOTAL FREE ENERGY PREDICTED BY IDOCK:   -7.21 KCAL/MOL
REMARK 923 INTER-LIGAND FREE ENERGY PREDICTED BY IDOCK:   -6.02 KCAL/MOL
REMARK 924 INTRA-LIGAND FREE ENERGY PREDICTED BY IDOCK:   -1.19 KCAL/MOL
REMARK 927      BINDING AFFINITY PREDICTED BY RF-SCORE:    0.00 PKD
ROOT
HETATM    1  N   UNL     1      -6.983  15.254  69.651  1.00  0.00    -0.185 N  
HETATM    2  H2  UNL     1      -5.966  15.328  69.648  1.00  0.00     0.000 HD 
HETATM    3  C   UNL     1      -7.652  14.953  68.496  1.00  0.00    -0.121 C  
HETATM    4  C   UNL     2      -6.115  18.738  68.234  1.00  0.00    -0.211 C  
HETATM    5  H1  UNL     1      -7.505  15.405  70.514  1.00  0.00     0.000 HD 
HETATM    6  O   UNL     2      -5.671  18.516  69.593  1.00  0.00    -0.221 OA 
HETATM    7  H   UNL     2      -5.912  17.633  69.848  1.00  0.00     0.000 HD 
HETATM    8  O   UNL     1      -7.025  14.772  67.459  1.00  0.00    -0.175 OA 
ENDROOT
BRANCH   4   9
HETATM    9  C   UNL     2      -5.728  20.158  67.825  1.00  0.00    -0.194 C  
HETATM   10  O   UNL     2      -5.878  21.025  68.953  1.00  0.00    -0.351 OA 
HETATM   11  H   UNL     2      -5.637  21.909  68.699  1.00  0.00     0.000 HD 
ENDBRANCH   4   9
BRANCH   3  12
HETATM   12  C   UNL     1      -9.135  14.918  68.520  1.00  0.00    -0.191 A  
HETATM   13  C   UNL     1      -9.797  15.765  69.403  1.00  0.00    -0.286 A  
HETATM   14  C   UNL     1     -11.307  14.133  67.825  1.00  0.00    -0.330 A  
HETATM   15  C   UNL     1      -9.916  14.074  67.727  1.00  0.00    -0.236 A  
HETATM   16  C   UNL     1     -11.871  15.028  68.720  1.00  0.00    -0.301 A  
HETATM   17  N   UNL     1     -11.148  15.837  69.521  1.00  0.00    -0.280 NA 
ENDBRANCH   3  12
BRANCH   4  18
HETATM   18  C   UNL     2      -7.613  18.433  68.146  1.00  0.00    -0.274 C  
HETATM   19  O   UNL     2     -10.650  20.059  68.194  1.00  0.00    -0.353 OA 
HETATM   20  C   UNL     2      -9.615  19.479  67.925  1.00  0.00    -0.350 C  
HETATM   21  C   UNL     2      -8.193  18.144  66.816  1.00  0.00    -0.252 C  
HETATM   22  O   UNL     2     -10.287  18.527  65.684  1.00  0.00    -0.594 OA 
HETATM   23  O   UNL     2      -8.466  19.470  68.664  1.00  0.00    -0.357 OA 
HETATM   24  H   UNL     2     -10.145  18.018  64.895  1.00  0.00     0.000 HD 
HETATM   25  O   UNL     2      -7.576  17.331  65.911  1.00  0.00    -0.442 OA 
HETATM   26  C   UNL     2      -9.395  18.691  66.704  1.00  0.00    -0.315 C  
HETATM   27  H   UNL     2      -7.949  17.145  65.056  1.00  0.00     0.000 HD 
ENDBRANCH   4  18
TORSDOF 3
ENDMDL
MODEL       37
REMARK 921   NORMALIZED FREE ENERGY PREDICTED BY IDOCK:   -5.15 KCAL/MOL
REMARK 922        TOTAL FREE ENERGY PREDICTED BY IDOCK:   -7.17 KCAL/MOL
REMARK 923 INTER-LIGAND FREE ENERGY PREDICTED BY IDOCK:   -6.21 KCAL/MOL
REMARK 924 INTRA-LIGAND FREE ENERGY PREDICTED BY IDOCK:   -0.97 KCAL/MOL
REMARK 927      BINDING AFFINITY PREDICTED BY RF-SCORE:    0.00 PKD
ROOT
HETATM    1  N   UNL     1      -9.205  16.505  69.210  1.00  0.00    -0.185 N  
HETATM    2  H2  UNL     1      -9.734  17.367  69.339  1.00  0.00     0.000 HD 
HETATM    3  C   UNL     1      -9.395  15.745  68.089  1.00  0.00    -0.194 C  
HETATM    4  C   UNL     2     -12.706  15.494  70.481  1.00  0.00    -0.388 C  
HETATM    5  H1  UNL     1      -8.533  16.206  69.916  1.00  0.00     0.000 HD 
HETATM    6  O   UNL     2     -11.951  16.320  71.398  1.00  0.00    -0.609 OA 
HETATM    7  H   UNL     2     -11.117  16.532  70.995  1.00  0.00     0.000 HD 
HETATM    8  O   UNL     1     -10.202  16.104  67.239  1.00  0.00    -0.265 OA 
ENDROOT
BRANCH   4   9
HETATM    9  C   UNL     2     -14.047  15.153  71.130  1.00  0.00    -0.374 C  
HETATM   10  O   UNL     2     -13.810  14.616  72.435  1.00  0.00    -0.425 OA 
HETATM   11  H   UNL     2     -14.645  14.405  72.839  1.00  0.00     0.000 HD 
ENDBRANCH   4   9
BRANCH   3  12
HETATM   12  C   UNL     1      -8.658  14.464  67.963  1.00  0.00    -0.166 A  
HETATM   13  C   UNL     1      -9.065  13.566  66.981  1.00  0.00    -0.244 A  
HETATM   14  C   UNL     1      -6.961  12.858  68.564  1.00  0.00    -0.098 A  
HETATM   15  C   UNL     1      -7.589  14.085  68.779  1.00  0.00    -0.113 A  
HETATM   16  C   UNL     1      -7.428  12.044  67.545  1.00  0.00    -0.140 A  
HETATM   17  N   UNL     1      -8.474  12.364  66.755  1.00  0.00    -0.143 NA 
ENDBRANCH   3  12
BRANCH   4  18
HETATM   18  C   UNL     2     -11.857  14.280  70.095  1.00  0.00    -0.312 C  
HETATM   19  O   UNL     2     -11.595  10.911  70.770  1.00  0.00    -0.312 OA 
HETATM   20  C   UNL     2     -11.803  12.021  70.319  1.00  0.00    -0.270 C  
HETATM   21  C   UNL     2     -12.112  13.633  68.789  1.00  0.00    -0.297 C  
HETATM   22  O   UNL     2     -12.044  11.399  67.883  1.00  0.00    -0.646 OA 
HETATM   23  O   UNL     2     -11.918  13.185  71.027  1.00  0.00    -0.161 OA 
HETATM   24  H   UNL     2     -12.178  11.590  66.962  1.00  0.00     0.000 HD 
HETATM   25  O   UNL     2     -12.311  14.350  67.645  1.00  0.00    -0.619 OA 
HETATM   26  C   UNL     2     -12.011  12.316  68.894  1.00  0.00    -0.248 C  
HETATM   27  H   UNL     2     -12.475  13.934  66.806  1.00  0.00     0.000 HD 
ENDBRANCH   4  18
TORSDOF 3
ENDMDL
MODEL       38
REMARK 921   NORMALIZED FREE ENERGY PREDICTED BY IDOCK:   -5.12 KCAL/MOL
REMARK 922        TOTAL FREE ENERGY PREDICTED BY IDOCK:   -7.13 KCAL/MOL
REMARK 923 INTER-LIGAND FREE ENERGY PREDICTED BY IDOCK:   -6.15 KCAL/MOL
REMARK 924 INTRA-LIGAND FREE ENERGY PREDICTED BY IDOCK:   -0.98 KCAL/MOL
REMARK 927      BINDING AFFINITY PREDICTED BY RF-SCORE:    0.00 PKD
ROOT
HETATM    1  N   UNL     1     -10.555  19.282  65.941  1.00  0.00    -0.480 N  
HETATM    2  H2  UNL     1     -10.523  20.280  65.735  1.00  0.00     0.000 HD 
HETATM    3  C   UNL     1     -10.618  18.850  67.238  1.00  0.00    -0.456 C  
HETATM    4  C   UNL     2      -6.912  20.425  66.502  1.00  0.00    -0.253 C  
HETATM    5  H1  UNL     1     -10.541  18.601  65.181  1.00  0.00     0.000 HD 
HETATM    6  O   UNL     2      -7.391  20.594  65.147  1.00  0.00    -0.513 OA 
HETATM    7  H   UNL     2      -8.295  20.304  65.110  1.00  0.00     0.000 HD 
HETATM    8  O   UNL     1     -10.635  19.667  68.151  1.00  0.00    -0.416 OA 
ENDROOT
BRANCH   4   9
HETATM    9  C   UNL     2      -5.458  20.891  66.562  1.00  0.00    -0.198 C  
HETATM   10  O   UNL     2      -5.161  21.324  67.893  1.00  0.00    -0.306 OA 
HETATM   11  H   UNL     2      -4.257  21.613  67.931  1.00  0.00     0.000 HD 
ENDBRANCH   4   9
BRANCH   3  12
HETATM   12  C   UNL     1     -10.597  17.391  67.505  1.00  0.00    -0.330 A  
HETATM   13  C   UNL     1     -10.690  16.964  68.826  1.00  0.00    -0.333 A  
HETATM   14  C   UNL     1     -10.475  15.064  66.883  1.00  0.00    -0.279 A  
HETATM   15  C   UNL     1     -10.472  16.410  66.518  1.00  0.00    -0.282 A  
HETATM   16  C   UNL     1     -10.594  14.741  68.225  1.00  0.00    -0.241 A  
HETATM   17  N   UNL     1     -10.690  15.661  69.207  1.00  0.00    -0.222 NA 
ENDBRANCH   3  12
BRANCH   4  18
HETATM   18  C   UNL     2      -7.136  18.972  66.929  1.00  0.00    -0.205 C  
HETATM   19  O   UNL     2      -5.423  15.993  67.173  1.00  0.00    -0.322 OA 
HETATM   20  C   UNL     2      -5.987  17.057  67.339  1.00  0.00    -0.145 C  
HETATM   21  C   UNL     2      -7.162  18.663  68.376  1.00  0.00    -0.280 C  
HETATM   22  O   UNL     2      -6.501  16.833  69.802  1.00  0.00    -0.224 OA 
HETATM   23  O   UNL     2      -6.173  18.039  66.406  1.00  0.00    -0.167 OA 
HETATM   24  H   UNL     2      -6.869  17.125  70.627  1.00  0.00     0.000 HD 
HETATM   25  O   UNL     2      -7.827  19.441  69.278  1.00  0.00    -0.293 OA 
HETATM   26  C   UNL     2      -6.556  17.509  68.617  1.00  0.00    -0.206 C  
HETATM   27  H   UNL     2      -7.844  19.242  70.207  1.00  0.00     0.000 HD 
ENDBRANCH   4  18
TORSDOF 3
ENDMDL
MODEL       39
REMARK 921   NORMALIZED FREE ENERGY PREDICTED BY IDOCK:   -5.10 KCAL/MOL
REMARK 922        TOTAL FREE ENERGY PREDICTED BY IDOCK:   -7.11 KCAL/MOL
REMARK 923 INTER-LIGAND FREE ENERGY PREDICTED BY IDOCK:   -6.41 KCAL/MOL
REMARK 924 INTRA-LIGAND FREE ENERGY PREDICTED BY IDOCK:   -0.70 KCAL/MOL
REMARK 927      BINDING AFFINITY PREDICTED BY RF-SCORE:    0.00 PKD
ROOT
HETATM    1  N   UNL     1      -9.155  11.614  67.436  1.00  0.00    -0.166 N  
HETATM    2  H2  UNL     1      -8.790  11.989  66.560  1.00  0.00     0.000 HD 
HETATM    3  C   UNL     1     -10.503  11.455  67.605  1.00  0.00    -0.194 C  
HETATM    4  C   UNL     2      -9.594  15.446  67.585  1.00  0.00    -0.210 C  
HETATM    5  H1  UNL     1      -8.517  11.357  68.188  1.00  0.00     0.000 HD 
HETATM    6  O   UNL     2      -8.221  15.004  67.475  1.00  0.00    -0.155 OA 
HETATM    7  H   UNL     2      -8.213  14.054  67.428  1.00  0.00     0.000 HD 
HETATM    8  O   UNL     1     -11.271  11.763  66.701  1.00  0.00    -0.301 OA 
ENDROOT
BRANCH   4   9
HETATM    9  C   UNL     2      -9.606  16.972  67.663  1.00  0.00    -0.249 C  
HETATM   10  O   UNL     2     -10.930  17.412  67.978  1.00  0.00    -0.341 OA 
HETATM   11  H   UNL     2     -10.938  18.362  68.027  1.00  0.00     0.000 HD 
ENDBRANCH   4   9
BRANCH   3  12
HETATM   12  C   UNL     1     -11.005  10.969  68.914  1.00  0.00    -0.277 A  
HETATM   13  C   UNL     1     -10.166  10.167  69.681  1.00  0.00    -0.242 A  
HETATM   14  C   UNL     1     -12.638  10.747  70.675  1.00  0.00    -0.446 A  
HETATM   15  C   UNL     1     -12.275  11.248  69.424  1.00  0.00    -0.315 A  
HETATM   16  C   UNL     1     -11.722   9.975  71.371  1.00  0.00    -0.334 A  
HETATM   17  N   UNL     1     -10.498   9.663  70.898  1.00  0.00    -0.306 NA 
ENDBRANCH   3  12
BRANCH   4  18
HETATM   18  C   UNL     2     -10.248  14.740  68.777  1.00  0.00    -0.239 C  
HETATM   19  O   UNL     2     -11.214  15.376  72.022  1.00  0.00    -0.413 OA 
HETATM   20  C   UNL     2     -11.121  15.182  70.825  1.00  0.00    -0.255 C  
HETATM   21  C   UNL     2     -11.714  14.544  68.757  1.00  0.00    -0.327 C  
HETATM   22  O   UNL     2     -13.510  14.503  70.366  1.00  0.00    -0.469 OA 
HETATM   23  O   UNL     2     -10.012  15.372  70.048  1.00  0.00    -0.271 OA 
HETATM   24  H   UNL     2     -14.223  14.210  69.811  1.00  0.00     0.000 HD 
HETATM   25  O   UNL     2     -12.381  14.125  67.643  1.00  0.00    -0.567 OA 
HETATM   26  C   UNL     2     -12.225  14.729  69.966  1.00  0.00    -0.333 C  
HETATM   27  H   UNL     2     -13.323  13.999  67.631  1.00  0.00     0.000 HD 
ENDBRANCH   4  18
TORSDOF 3
ENDMDL
MODEL       40
REMARK 921   NORMALIZED FREE ENERGY PREDICTED BY IDOCK:   -5.07 KCAL/MOL
REMARK 922        TOTAL FREE ENERGY PREDICTED BY IDOCK:   -7.08 KCAL/MOL
REMARK 923 INTER-LIGAND FREE ENERGY PREDICTED BY IDOCK:   -5.92 KCAL/MOL
REMARK 924 INTRA-LIGAND FREE ENERGY PREDICTED BY IDOCK:   -1.16 KCAL/MOL
REMARK 927      BINDING AFFINITY PREDICTED BY RF-SCORE:    0.00 PKD
ROOT
HETATM    1  N   UNL     1      -5.689  15.743  67.434  1.00  0.00    -0.075 N  
HETATM    2  H2  UNL     1      -5.570  14.905  68.002  1.00  0.00     0.000 HD 
HETATM    3  C   UNL     1      -6.249  16.867  67.977  1.00  0.00    -0.136 C  
HETATM    4  C   UNL     2      -9.119  13.978  67.562  1.00  0.00    -0.196 C  
HETATM    5  H1  UNL     1      -5.391  15.746  66.458  1.00  0.00     0.000 HD 
HETATM    6  O   UNL     2      -8.065  13.197  66.950  1.00  0.00    -0.387 OA 
HETATM    7  H   UNL     2      -7.261  13.702  66.979  1.00  0.00     0.000 HD 
HETATM    8  O   UNL     1      -6.607  16.863  69.149  1.00  0.00    -0.199 OA 
ENDROOT
BRANCH   4   9
HETATM    9  C   UNL     2     -10.412  13.165  67.514  1.00  0.00    -0.228 C  
HETATM   10  O   UNL     2     -10.490  12.486  66.257  1.00  0.00    -0.241 OA 
HETATM   11  H   UNL     2     -11.294  11.981  66.227  1.00  0.00     0.000 HD 
ENDBRANCH   4   9
BRANCH   3  12
HETATM   12  C   UNL     1      -6.468  18.046  67.104  1.00  0.00    -0.193 A  
HETATM   13  C   UNL     1      -7.174  19.126  67.625  1.00  0.00    -0.223 A  
HETATM   14  C   UNL     1      -6.280  19.307  65.056  1.00  0.00    -0.317 A  
HETATM   15  C   UNL     1      -6.027  18.142  65.782  1.00  0.00    -0.263 A  
HETATM   16  C   UNL     1      -6.974  20.335  65.673  1.00  0.00    -0.266 A  
HETATM   17  N   UNL     1      -7.438  20.267  66.938  1.00  0.00    -0.281 NA 
ENDBRANCH   3  12
BRANCH   4  18
HETATM   18  C   UNL     2      -9.194  15.340  66.867  1.00  0.00    -0.234 C  
HETATM   19  O   UNL     2     -11.060  16.999  64.493  1.00  0.00    -1.098 OA 
HETATM   20  C   UNL     2     -10.541  16.549  65.497  1.00  0.00    -0.295 C  
HETATM   21  C   UNL     2      -9.787  16.474  67.608  1.00  0.00    -0.247 C  
HETATM   22  O   UNL     2     -11.103  18.427  67.089  1.00  0.00    -0.203 OA 
HETATM   23  O   UNL     2      -9.919  15.338  65.624  1.00  0.00    -0.325 OA 
HETATM   24  H   UNL     2     -11.088  18.866  67.931  1.00  0.00     0.000 HD 
HETATM   25  O   UNL     2      -9.499  16.721  68.919  1.00  0.00    -0.250 OA 
HETATM   26  C   UNL     2     -10.517  17.228  66.800  1.00  0.00    -0.261 C  
HETATM   27  H   UNL     2      -9.880  17.450  69.395  1.00  0.00     0.000 HD 
ENDBRANCH   4  18
TORSDOF 3
ENDMDL
MODEL       41
REMARK 921   NORMALIZED FREE ENERGY PREDICTED BY IDOCK:   -5.06 KCAL/MOL
REMARK 922        TOTAL FREE ENERGY PREDICTED BY IDOCK:   -7.07 KCAL/MOL
REMARK 923 INTER-LIGAND FREE ENERGY PREDICTED BY IDOCK:   -6.13 KCAL/MOL
REMARK 924 INTRA-LIGAND FREE ENERGY PREDICTED BY IDOCK:   -0.94 KCAL/MOL
REMARK 927      BINDING AFFINITY PREDICTED BY RF-SCORE:    0.00 PKD
ROOT
HETATM    1  N   UNL     1      -6.768  12.207  66.859  1.00  0.00    -0.350 N  
HETATM    2  H2  UNL     1      -6.588  12.707  65.989  1.00  0.00     0.000 HD 
HETATM    3  C   UNL     1      -7.509  11.057  66.849  1.00  0.00    -0.133 C  
HETATM    4  C   UNL     2      -9.942  14.253  66.062  1.00  0.00    -0.319 C  
HETATM    5  H1  UNL     1      -6.397  12.563  67.740  1.00  0.00     0.000 HD 
HETATM    6  O   UNL     2      -8.752  15.050  66.269  1.00  0.00    -0.453 OA 
HETATM    7  H   UNL     2      -8.024  14.463  66.441  1.00  0.00     0.000 HD 
HETATM    8  O   UNL     1      -7.955  10.629  65.791  1.00  0.00    -0.159 OA 
ENDROOT
BRANCH   4   9
HETATM    9  C   UNL     2     -11.112  15.196  65.787  1.00  0.00    -0.330 C  
HETATM   10  O   UNL     2     -10.893  15.859  64.538  1.00  0.00    -0.808 OA 
HETATM   11  H   UNL     2     -11.622  16.445  64.366  1.00  0.00     0.000 HD 
ENDBRANCH   4   9
BRANCH   3  12
HETATM   12  C   UNL     1      -7.807  10.391  68.141  1.00  0.00    -0.108 A  
HETATM   13  C   UNL     1      -7.053  10.749  69.254  1.00  0.00    -0.116 A  
HETATM   14  C   UNL     1      -8.989   8.858  69.579  1.00  0.00    -0.145 A  
HETATM   15  C   UNL     1      -8.787   9.410  68.314  1.00  0.00    -0.128 A  
HETATM   16  C   UNL     1      -8.199   9.298  70.629  1.00  0.00    -0.190 A  
HETATM   17  N   UNL     1      -7.227  10.223  70.493  1.00  0.00    -0.276 NA 
ENDBRANCH   3  12
BRANCH   4  18
HETATM   18  C   UNL     2     -10.135  13.329  67.267  1.00  0.00    -0.234 C  
HETATM   19  O   UNL     2     -12.003  13.101  70.153  1.00  0.00    -0.334 OA 
HETATM   20  C   UNL     2     -11.513  13.013  69.044  1.00  0.00    -0.303 C  
HETATM   21  C   UNL     2     -10.928  12.094  67.083  1.00  0.00    -0.268 C  
HETATM   22  O   UNL     2     -12.439  10.753  68.400  1.00  0.00    -0.647 OA 
HETATM   23  O   UNL     2     -10.752  13.954  68.407  1.00  0.00    -0.242 OA 
HETATM   24  H   UNL     2     -12.549  10.008  67.821  1.00  0.00     0.000 HD 
HETATM   25  O   UNL     2     -10.781  11.286  65.992  1.00  0.00    -0.267 OA 
HETATM   26  C   UNL     2     -11.682  11.861  68.147  1.00  0.00    -0.320 C  
HETATM   27  H   UNL     2     -11.290  10.493  65.874  1.00  0.00     0.000 HD 
ENDBRANCH   4  18
TORSDOF 3
ENDMDL
MODEL       42
REMARK 921   NORMALIZED FREE ENERGY PREDICTED BY IDOCK:   -5.06 KCAL/MOL
REMARK 922        TOTAL FREE ENERGY PREDICTED BY IDOCK:   -7.06 KCAL/MOL
REMARK 923 INTER-LIGAND FREE ENERGY PREDICTED BY IDOCK:   -6.37 KCAL/MOL
REMARK 924 INTRA-LIGAND FREE ENERGY PREDICTED BY IDOCK:   -0.70 KCAL/MOL
REMARK 927      BINDING AFFINITY PREDICTED BY RF-SCORE:    0.00 PKD
ROOT
HETATM    1  N   UNL     1      -9.464  13.590  67.505  1.00  0.00    -0.215 N  
HETATM    2  H2  UNL     1      -9.136  13.911  68.415  1.00  0.00     0.000 HD 
HETATM    3  C   UNL     1     -10.772  13.227  67.335  1.00  0.00    -0.258 C  
HETATM    4  C   UNL     2      -8.874  10.442  69.658  1.00  0.00    -0.026 C  
HETATM    5  H1  UNL     1      -8.818  13.538  66.717  1.00  0.00     0.000 HD 
HETATM    6  O   UNL     2      -7.689  11.239  69.425  1.00  0.00    -0.340 OA 
HETATM    7  H   UNL     2      -7.934  11.996  68.904  1.00  0.00     0.000 HD 
HETATM    8  O   UNL     1     -11.548  13.289  68.281  1.00  0.00    -0.290 OA 
ENDROOT
BRANCH   4   9
HETATM    9  C   UNL     2      -8.480   9.225  70.494  1.00  0.00    -0.216 C  
HETATM   10  O   UNL     2      -9.222   9.240  71.717  1.00  0.00    -0.306 OA 
HETATM   11  H   UNL     2      -8.978   8.483  72.237  1.00  0.00     0.000 HD 
ENDBRANCH   4   9
BRANCH   3  12
HETATM   12  C   UNL     1     -11.201  12.703  66.015  1.00  0.00    -0.345 A  
HETATM   13  C   UNL     1     -12.489  12.997  65.580  1.00  0.00    -0.438 A  
HETATM   14  C   UNL     1     -10.906  11.484  63.955  1.00  0.00    -0.453 A  
HETATM   15  C   UNL     1     -10.403  11.914  65.183  1.00  0.00    -0.318 A  
HETATM   16  C   UNL     1     -12.195  11.848  63.603  1.00  0.00    -0.479 A  
HETATM   17  N   UNL     1     -13.003  12.585  64.392  1.00  0.00    -0.785 NA 
ENDBRANCH   3  12
BRANCH   4  18
HETATM   18  C   UNL     2      -9.521  10.110  68.311  1.00  0.00    -0.140 C  
HETATM   19  O   UNL     2      -8.837   8.402  65.397  1.00  0.00    -0.170 OA 
HETATM   20  C   UNL     2      -9.216   8.797  66.484  1.00  0.00    -0.179 C  
HETATM   21  C   UNL     2     -10.549   9.048  68.270  1.00  0.00    -0.163 C  
HETATM   22  O   UNL     2     -11.270   7.347  66.720  1.00  0.00    -0.448 OA 
HETATM   23  O   UNL     2      -8.594   9.716  67.283  1.00  0.00    -0.130 OA 
HETATM   24  H   UNL     2     -12.051   7.038  67.162  1.00  0.00     0.000 HD 
HETATM   25  O   UNL     2     -11.534   8.947  69.210  1.00  0.00    -0.349 OA 
HETATM   26  C   UNL     2     -10.425   8.320  67.169  1.00  0.00    -0.316 C  
HETATM   27  H   UNL     2     -12.195   8.264  69.183  1.00  0.00     0.000 HD 
ENDBRANCH   4  18
TORSDOF 3
ENDMDL
MODEL       43
REMARK 921   NORMALIZED FREE ENERGY PREDICTED BY IDOCK:   -5.06 KCAL/MOL
REMARK 922        TOTAL FREE ENERGY PREDICTED BY IDOCK:   -7.06 KCAL/MOL
REMARK 923 INTER-LIGAND FREE ENERGY PREDICTED BY IDOCK:   -5.89 KCAL/MOL
REMARK 924 INTRA-LIGAND FREE ENERGY PREDICTED BY IDOCK:   -1.17 KCAL/MOL
REMARK 927      BINDING AFFINITY PREDICTED BY RF-SCORE:    0.00 PKD
ROOT
HETATM    1  N   UNL     1     -13.163   7.563  71.166  1.00  0.00    -0.578 N  
HETATM    2  H2  UNL     1     -13.702   8.323  71.580  1.00  0.00     0.000 HD 
HETATM    3  C   UNL     1     -11.932   7.242  71.668  1.00  0.00    -0.308 C  
HETATM    4  C   UNL     2     -11.724  10.855  69.756  1.00  0.00    -0.338 C  
HETATM    5  H1  UNL     1     -13.539   7.040  70.376  1.00  0.00     0.000 HD 
HETATM    6  O   UNL     2     -13.113  10.618  69.426  1.00  0.00    -0.475 OA 
HETATM    7  H   UNL     2     -13.382   9.800  69.827  1.00  0.00     0.000 HD 
HETATM    8  O   UNL     1     -11.479   7.871  72.618  1.00  0.00    -0.367 OA 
ENDROOT
BRANCH   4   9
HETATM    9  C   UNL     2     -11.291  12.171  69.110  1.00  0.00    -0.276 C  
HETATM   10  O   UNL     2     -11.888  12.271  67.813  1.00  0.00    -0.406 OA 
HETATM   11  H   UNL     2     -11.619  13.090  67.411  1.00  0.00     0.000 HD 
ENDBRANCH   4   9
BRANCH   3  12
HETATM   12  C   UNL     1     -11.146   6.175  71.002  1.00  0.00    -0.359 A  
HETATM   13  C   UNL     1     -11.127   6.146  69.611  1.00  0.00    -0.419 A  
HETATM   14  C   UNL     1      -9.720   4.230  70.948  1.00  0.00    -0.266 A  
HETATM   15  C   UNL     1     -10.435   5.180  71.678  1.00  0.00    -0.255 A  
HETATM   16  C   UNL     1      -9.747   4.300  69.564  1.00  0.00    -0.201 A  
HETATM   17  N   UNL     1     -10.444   5.229  68.878  1.00  0.00    -0.166 NA 
ENDBRANCH   3  12
BRANCH   4  18
HETATM   18  C   UNL     2     -10.900   9.636  69.336  1.00  0.00    -0.217 C  
HETATM   19  O   UNL     2      -8.968   8.527  66.707  1.00  0.00    -0.136 OA 
HETATM   20  C   UNL     2      -9.424   8.967  67.745  1.00  0.00    -0.141 C  
HETATM   21  C   UNL     2      -9.557   9.459  69.930  1.00  0.00    -0.212 C  
HETATM   22  O   UNL     2      -7.419   8.586  69.233  1.00  0.00    -0.079 OA 
HETATM   23  O   UNL     2     -10.654   9.538  67.921  1.00  0.00    -0.231 OA 
HETATM   24  H   UNL     2      -6.954   8.606  70.060  1.00  0.00     0.000 HD 
HETATM   25  O   UNL     2      -9.313   9.654  71.258  1.00  0.00    -0.321 OA 
HETATM   26  C   UNL     2      -8.704   8.999  69.026  1.00  0.00    -0.138 C  
HETATM   27  H   UNL     2      -8.450   9.540  71.640  1.00  0.00     0.000 HD 
ENDBRANCH   4  18
TORSDOF 3
ENDMDL
MODEL       44
REMARK 921   NORMALIZED FREE ENERGY PREDICTED BY IDOCK:   -5.04 KCAL/MOL
REMARK 922        TOTAL FREE ENERGY PREDICTED BY IDOCK:   -7.04 KCAL/MOL
REMARK 923 INTER-LIGAND FREE ENERGY PREDICTED BY IDOCK:   -6.06 KCAL/MOL
REMARK 924 INTRA-LIGAND FREE ENERGY PREDICTED BY IDOCK:   -0.97 KCAL/MOL
REMARK 927      BINDING AFFINITY PREDICTED BY RF-SCORE:    0.00 PKD
ROOT
HETATM    1  N   UNL     1     -12.189   6.750  70.402  1.00  0.00    -0.585 N  
HETATM    2  H2  UNL     1     -12.632   6.961  71.295  1.00  0.00     0.000 HD 
HETATM    3  C   UNL     1     -10.828   6.806  70.279  1.00  0.00    -0.270 C  
HETATM    4  C   UNL     2     -12.319  10.595  70.706  1.00  0.00    -0.376 C  
HETATM    5  H1  UNL     1     -12.760   6.494  69.596  1.00  0.00     0.000 HD 
HETATM    6  O   UNL     2     -13.614   9.950  70.700  1.00  0.00    -0.574 OA 
HETATM    7  H   UNL     2     -13.482   9.011  70.640  1.00  0.00     0.000 HD 
HETATM    8  O   UNL     1     -10.142   7.113  71.247  1.00  0.00    -0.190 OA 
ENDROOT
BRANCH   4   9
HETATM    9  C   UNL     2     -12.531  12.105  70.801  1.00  0.00    -0.271 C  
HETATM   10  O   UNL     2     -13.222  12.402  72.019  1.00  0.00    -0.481 OA 
HETATM   11  H   UNL     2     -13.354  13.342  72.079  1.00  0.00     0.000 HD 
ENDBRANCH   4   9
BRANCH   3  12
HETATM   12  C   UNL     1     -10.222   6.557  68.949  1.00  0.00    -0.206 A  
HETATM   13  C   UNL     1      -8.890   6.912  68.758  1.00  0.00    -0.132 A  
HETATM   14  C   UNL     1     -10.229   5.802  66.657  1.00  0.00    -0.261 A  
HETATM   15  C   UNL     1     -10.904   6.003  67.862  1.00  0.00    -0.378 A  
HETATM   16  C   UNL     1      -8.896   6.170  66.575  1.00  0.00    -0.133 A  
HETATM   17  N   UNL     1      -8.213   6.732  67.594  1.00  0.00    -0.119 NA 
ENDBRANCH   3  12
BRANCH   4  18
HETATM   18  C   UNL     2     -11.533  10.137  69.474  1.00  0.00    -0.168 C  
HETATM   19  O   UNL     2     -10.776  11.182  66.280  1.00  0.00    -0.266 OA 
HETATM   20  C   UNL     2     -10.808  10.897  67.462  1.00  0.00    -0.272 C  
HETATM   21  C   UNL     2     -10.061  10.286  69.487  1.00  0.00    -0.235 C  
HETATM   22  O   UNL     2      -8.322  10.764  67.886  1.00  0.00    -0.114 OA 
HETATM   23  O   UNL     2     -11.922  10.774  68.245  1.00  0.00    -0.520 OA 
HETATM   24  H   UNL     2      -7.554  10.610  68.424  1.00  0.00     0.000 HD 
HETATM   25  O   UNL     2      -9.303   9.964  70.575  1.00  0.00    -0.352 OA 
HETATM   26  C   UNL     2      -9.620  10.659  68.294  1.00  0.00    -0.162 C  
HETATM   27  H   UNL     2      -8.357  10.060  70.583  1.00  0.00     0.000 HD 
ENDBRANCH   4  18
TORSDOF 3
ENDMDL
MODEL       45
REMARK 921   NORMALIZED FREE ENERGY PREDICTED BY IDOCK:   -5.00 KCAL/MOL
REMARK 922        TOTAL FREE ENERGY PREDICTED BY IDOCK:   -6.99 KCAL/MOL
REMARK 923 INTER-LIGAND FREE ENERGY PREDICTED BY IDOCK:   -6.84 KCAL/MOL
REMARK 924 INTRA-LIGAND FREE ENERGY PREDICTED BY IDOCK:   -0.15 KCAL/MOL
REMARK 927      BINDING AFFINITY PREDICTED BY RF-SCORE:    0.00 PKD
ROOT
HETATM    1  N   UNL     1      -9.030  15.586  69.482  1.00  0.00    -0.277 N  
HETATM    2  H2  UNL     1      -9.090  14.702  69.987  1.00  0.00     0.000 HD 
HETATM    3  C   UNL     1     -10.041  16.501  69.579  1.00  0.00    -0.165 C  
HETATM    4  C   UNL     2     -11.326  13.270  67.420  1.00  0.00    -0.303 C  
HETATM    5  H1  UNL     1      -8.215  15.791  68.904  1.00  0.00     0.000 HD 
HETATM    6  O   UNL     2      -9.974  12.783  67.582  1.00  0.00    -0.209 OA 
HETATM    7  H   UNL     2      -9.492  13.405  68.114  1.00  0.00     0.000 HD 
HETATM    8  O   UNL     1     -11.020  16.256  70.274  1.00  0.00    -0.347 OA 
ENDROOT
BRANCH   4   9
HETATM    9  C   UNL     2     -12.102  12.269  66.564  1.00  0.00    -0.015 C  
HETATM   10  O   UNL     2     -11.184  11.575  65.713  1.00  0.00    -0.265 OA 
HETATM   11  H   UNL     2     -11.666  10.952  65.181  1.00  0.00     0.000 HD 
ENDBRANCH   4   9
BRANCH   3  12
HETATM   12  C   UNL     1      -9.953  17.748  68.780  1.00  0.00    -0.367 A  
HETATM   13  C   UNL     1     -11.090  18.175  68.102  1.00  0.00     0.280 A  
HETATM   14  C   UNL     1      -8.828  19.682  67.876  1.00  0.00    -0.379 A  
HETATM   15  C   UNL     1      -8.795  18.518  68.646  1.00  0.00    -0.325 A  
HETATM   16  C   UNL     1     -10.017  20.033  67.257  1.00  0.00    -0.435 A  
HETATM   17  N   UNL     1     -11.146  19.300  67.342  1.00  0.00    -0.341 NA 
ENDBRANCH   3  12
BRANCH   4  18
HETATM   18  C   UNL     2     -11.276  14.691  66.852  1.00  0.00    -0.343 C  
HETATM   19  O   UNL     2      -9.067  16.858  65.337  1.00  0.00    -0.170 OA 
HETATM   20  C   UNL     2      -9.933  16.057  65.634  1.00  0.00    -0.313 C  
HETATM   21  C   UNL     2     -11.873  14.936  65.521  1.00  0.00    -0.155 C  
HETATM   22  O   UNL     2     -11.432  16.359  63.624  1.00  0.00    -1.446 OA 
HETATM   23  O   UNL     2      -9.951  15.240  66.730  1.00  0.00    -0.234 OA 
HETATM   24  H   UNL     2     -12.208  16.187  63.104  1.00  0.00     0.000 HD 
HETATM   25  O   UNL     2     -13.078  14.413  65.153  1.00  0.00    -0.633 OA 
HETATM   26  C   UNL     2     -11.133  15.791  64.829  1.00  0.00    -0.400 C  
HETATM   27  H   UNL     2     -13.462  14.570  64.298  1.00  0.00     0.000 HD 
ENDBRANCH   4  18
TORSDOF 3
ENDMDL
MODEL       46
REMARK 921   NORMALIZED FREE ENERGY PREDICTED BY IDOCK:   -4.99 KCAL/MOL
REMARK 922        TOTAL FREE ENERGY PREDICTED BY IDOCK:   -6.98 KCAL/MOL
REMARK 923 INTER-LIGAND FREE ENERGY PREDICTED BY IDOCK:   -6.28 KCAL/MOL
REMARK 924 INTRA-LIGAND FREE ENERGY PREDICTED BY IDOCK:   -0.70 KCAL/MOL
REMARK 927      BINDING AFFINITY PREDICTED BY RF-SCORE:    0.00 PKD
ROOT
HETATM    1  N   UNL     1     -11.162   6.250  68.760  1.00  0.00    -0.500 N  
HETATM    2  H2  UNL     1     -11.444   5.758  69.607  1.00  0.00     0.000 HD 
HETATM    3  C   UNL     1      -9.955   6.890  68.707  1.00  0.00    -0.153 C  
HETATM    4  C   UNL     2     -12.465   8.917  71.225  1.00  0.00    -0.272 C  
HETATM    5  H1  UNL     1     -11.779   6.266  67.948  1.00  0.00     0.000 HD 
HETATM    6  O   UNL     2     -13.449   7.931  70.835  1.00  0.00    -0.541 OA 
HETATM    7  H   UNL     2     -13.035   7.310  70.245  1.00  0.00     0.000 HD 
HETATM    8  O   UNL     1      -9.212   6.870  69.682  1.00  0.00    -0.146 OA 
ENDROOT
BRANCH   4   9
HETATM    9  C   UNL     2     -13.131   9.915  72.173  1.00  0.00    -0.403 C  
HETATM   10  O   UNL     2     -14.061   9.216  73.006  1.00  0.00    -1.068 OA 
HETATM   11  H   UNL     2     -14.475   9.836  73.596  1.00  0.00     0.000 HD 
ENDBRANCH   4   9
BRANCH   3  12
HETATM   12  C   UNL     1      -9.604   7.651  67.483  1.00  0.00    -0.178 A  
HETATM   13  C   UNL     1      -8.471   7.267  66.773  1.00  0.00    -0.121 A  
HETATM   14  C   UNL     1      -9.911   9.382  65.831  1.00  0.00    -0.362 A  
HETATM   15  C   UNL     1     -10.326   8.746  67.002  1.00  0.00    -0.353 A  
HETATM   16  C   UNL     1      -8.780   8.909  65.185  1.00  0.00    -0.178 A  
HETATM   17  N   UNL     1      -8.043   7.873  65.635  1.00  0.00    -0.122 NA 
ENDBRANCH   3  12
BRANCH   4  18
HETATM   18  C   UNL     2     -11.861   9.540  69.964  1.00  0.00     0.100 C  
HETATM   19  O   UNL     2     -12.215  12.314  67.953  1.00  0.00    -0.409 OA 
HETATM   20  C   UNL     2     -11.891  11.463  68.758  1.00  0.00    -0.323 C  
HETATM   21  C   UNL     2     -10.559  10.233  70.080  1.00  0.00    -0.269 C  
HETATM   22  O   UNL     2      -9.475  12.133  69.064  1.00  0.00    -0.398 OA 
HETATM   23  O   UNL     2     -12.700  10.512  69.315  1.00  0.00    -0.128 OA 
HETATM   24  H   UNL     2      -8.602  12.040  69.427  1.00  0.00     0.000 HD 
HETATM   25  O   UNL     2      -9.518   9.720  70.798  1.00  0.00    -0.311 OA 
HETATM   26  C   UNL     2     -10.541  11.319  69.321  1.00  0.00    -0.148 C  
HETATM   27  H   UNL     2      -8.682  10.165  70.872  1.00  0.00     0.000 HD 
ENDBRANCH   4  18
TORSDOF 3
ENDMDL
MODEL       47
REMARK 921   NORMALIZED FREE ENERGY PREDICTED BY IDOCK:   -4.99 KCAL/MOL
REMARK 922        TOTAL FREE ENERGY PREDICTED BY IDOCK:   -6.98 KCAL/MOL
REMARK 923 INTER-LIGAND FREE ENERGY PREDICTED BY IDOCK:   -5.80 KCAL/MOL
REMARK 924 INTRA-LIGAND FREE ENERGY PREDICTED BY IDOCK:   -1.18 KCAL/MOL
REMARK 927      BINDING AFFINITY PREDICTED BY RF-SCORE:    0.00 PKD
ROOT
HETATM    1  N   UNL     1      -8.840   7.626  67.460  1.00  0.00    -0.124 N  
HETATM    2  H2  UNL     1      -8.820   7.234  68.401  1.00  0.00     0.000 HD 
HETATM    3  C   UNL     1      -8.013   8.666  67.132  1.00  0.00    -0.100 C  
HETATM    4  C   UNL     2     -10.913   9.987  69.701  1.00  0.00    -0.264 C  
HETATM    5  H1  UNL     1      -9.475   7.245  66.759  1.00  0.00     0.000 HD 
HETATM    6  O   UNL     2     -11.431   8.639  69.609  1.00  0.00    -0.434 OA 
HETATM    7  H   UNL     2     -10.850   8.131  69.055  1.00  0.00     0.000 HD 
HETATM    8  O   UNL     1      -7.249   9.124  67.974  1.00  0.00    -0.078 OA 
ENDROOT
BRANCH   4   9
HETATM    9  C   UNL     2     -11.847  10.805  70.592  1.00  0.00    -0.360 C  
HETATM   10  O   UNL     2     -13.185  10.322  70.431  1.00  0.00    -0.546 OA 
HETATM   11  H   UNL     2     -13.766  10.830  70.985  1.00  0.00     0.000 HD 
ENDBRANCH   4   9
BRANCH   3  12
HETATM   12  C   UNL     1      -8.113   9.255  65.775  1.00  0.00    -0.115 A  
HETATM   13  C   UNL     1      -6.933   9.556  65.102  1.00  0.00    -0.100 A  
HETATM   14  C   UNL     1      -9.292  10.094  63.845  1.00  0.00    -0.336 A  
HETATM   15  C   UNL     1      -9.316   9.549  65.129  1.00  0.00    -0.316 A  
HETATM   16  C   UNL     1      -8.064  10.336  63.251  1.00  0.00    -0.157 A  
HETATM   17  N   UNL     1      -6.883  10.091  63.854  1.00  0.00    -0.127 NA 
ENDBRANCH   3  12
BRANCH   4  18
HETATM   18  C   UNL     2     -10.728  10.544  68.287  1.00  0.00    -0.229 C  
HETATM   19  O   UNL     2     -12.356  12.536  65.995  1.00  0.00    -0.615 OA 
HETATM   20  C   UNL     2     -11.643  12.043  66.849  1.00  0.00    -0.318 C  
HETATM   21  C   UNL     2      -9.815  11.693  68.100  1.00  0.00    -0.191 C  
HETATM   22  O   UNL     2      -9.690  13.635  66.676  1.00  0.00    -0.267 OA 
HETATM   23  O   UNL     2     -11.944  10.978  67.651  1.00  0.00    -0.583 OA 
HETATM   24  H   UNL     2      -8.826  13.955  66.907  1.00  0.00     0.000 HD 
HETATM   25  O   UNL     2      -8.596  11.765  68.710  1.00  0.00    -0.321 OA 
HETATM   26  C   UNL     2     -10.307  12.539  67.207  1.00  0.00    -0.220 C  
HETATM   27  H   UNL     2      -8.009  12.503  68.589  1.00  0.00     0.000 HD 
ENDBRANCH   4  18
TORSDOF 3
ENDMDL
MODEL       48
REMARK 921   NORMALIZED FREE ENERGY PREDICTED BY IDOCK:   -4.93 KCAL/MOL
REMARK 922        TOTAL FREE ENERGY PREDICTED BY IDOCK:   -6.90 KCAL/MOL
REMARK 923 INTER-LIGAND FREE ENERGY PREDICTED BY IDOCK:   -5.89 KCAL/MOL
REMARK 924 INTRA-LIGAND FREE ENERGY PREDICTED BY IDOCK:   -1.02 KCAL/MOL
REMARK 927      BINDING AFFINITY PREDICTED BY RF-SCORE:    0.00 PKD
ROOT
HETATM    1  N   UNL     1     -12.470   6.930  70.376  1.00  0.00    -0.576 N  
HETATM    2  H2  UNL     1     -13.170   7.136  69.663  1.00  0.00     0.000 HD 
HETATM    3  C   UNL     1     -12.060   7.909  71.239  1.00  0.00    -0.296 C  
HETATM    4  C   UNL     2     -10.636   8.714  67.487  1.00  0.00    -0.222 C  
HETATM    5  H1  UNL     1     -12.074   5.993  70.448  1.00  0.00     0.000 HD 
HETATM    6  O   UNL     2     -11.251   7.457  67.120  1.00  0.00    -0.539 OA 
HETATM    7  H   UNL     2     -11.690   7.103  67.885  1.00  0.00     0.000 HD 
HETATM    8  O   UNL     1     -12.537   9.035  71.153  1.00  0.00    -0.293 OA 
ENDROOT
BRANCH   4   9
HETATM    9  C   UNL     2      -9.929   9.283  66.258  1.00  0.00    -0.286 C  
HETATM   10  O   UNL     2      -9.320   8.211  65.532  1.00  0.00    -0.418 OA 
HETATM   11  H   UNL     2      -8.880   8.565  64.767  1.00  0.00     0.000 HD 
ENDBRANCH   4   9
BRANCH   3  12
HETATM   12  C   UNL     1     -10.994   7.592  72.221  1.00  0.00    -0.328 A  
HETATM   13  C   UNL     1     -11.035   6.356  72.858  1.00  0.00    -0.250 A  
HETATM   14  C   UNL     1      -8.999   8.055  73.495  1.00  0.00    -0.327 A  
HETATM   15  C   UNL     1      -9.956   8.462  72.565  1.00  0.00    -0.356 A  
HETATM   16  C   UNL     1      -9.116   6.794  74.059  1.00  0.00    -0.183 A  
HETATM   17  N   UNL     1     -10.119   5.939  73.771  1.00  0.00    -0.202 NA 
ENDBRANCH   3  12
BRANCH   4  18
HETATM   18  C   UNL     2      -9.727   8.487  68.698  1.00  0.00    -0.164 C  
HETATM   19  O   UNL     2      -6.433   7.803  69.442  1.00  0.00    -0.034 OA 
HETATM   20  C   UNL     2      -7.532   8.284  69.243  1.00  0.00    -0.085 C  
HETATM   21  C   UNL     2      -9.284   9.666  69.474  1.00  0.00    -0.203 C  
HETATM   22  O   UNL     2      -7.319  10.335  70.701  1.00  0.00    -0.433 OA 
HETATM   23  O   UNL     2      -8.497   7.801  68.403  1.00  0.00    -0.124 OA 
HETATM   24  H   UNL     2      -7.637  11.136  71.099  1.00  0.00     0.000 HD 
HETATM   25  O   UNL     2     -10.132  10.681  69.809  1.00  0.00    -0.420 OA 
HETATM   26  C   UNL     2      -8.024   9.524  69.859  1.00  0.00    -0.149 C  
HETATM   27  H   UNL     2      -9.848  11.439  70.307  1.00  0.00     0.000 HD 
ENDBRANCH   4  18
TORSDOF 3
ENDMDL
MODEL       49
REMARK 921   NORMALIZED FREE ENERGY PREDICTED BY IDOCK:   -4.92 KCAL/MOL
REMARK 922        TOTAL FREE ENERGY PREDICTED BY IDOCK:   -6.90 KCAL/MOL
REMARK 923 INTER-LIGAND FREE ENERGY PREDICTED BY IDOCK:   -6.30 KCAL/MOL
REMARK 924 INTRA-LIGAND FREE ENERGY PREDICTED BY IDOCK:   -0.60 KCAL/MOL
REMARK 927      BINDING AFFINITY PREDICTED BY RF-SCORE:    0.00 PKD
ROOT
HETATM    1  N   UNL     1     -10.892  16.033  66.916  1.00  0.00    -0.258 N  
HETATM    2  H2  UNL     1     -11.534  16.466  66.252  1.00  0.00     0.000 HD 
HETATM    3  C   UNL     1      -9.638  15.662  66.515  1.00  0.00    -0.270 C  
HETATM    4  C   UNL     2     -12.406  13.186  64.795  1.00  0.00    -0.423 C  
HETATM    5  H1  UNL     1     -11.183  15.874  67.880  1.00  0.00     0.000 HD 
HETATM    6  O   UNL     2     -13.372  13.936  65.568  1.00  0.00    -0.662 OA 
HETATM    7  H   UNL     2     -12.913  14.621  66.040  1.00  0.00     0.000 HD 
HETATM    8  O   UNL     1      -9.288  15.853  65.356  1.00  0.00    -0.323 OA 
ENDROOT
BRANCH   4   9
HETATM    9  C   UNL     2     -13.145  12.084  64.037  1.00  0.00    -0.007 C  
HETATM   10  O   UNL     2     -12.371  11.706  62.894  1.00  0.00    -0.923 OA 
HETATM   11  H   UNL     2     -12.831  11.020  62.422  1.00  0.00     0.000 HD 
ENDBRANCH   4   9
BRANCH   3  12
HETATM   12  C   UNL     1      -8.754  14.975  67.488  1.00  0.00    -0.194 A  
HETATM   13  C   UNL     1      -8.361  15.674  68.625  1.00  0.00    -0.177 A  
HETATM   14  C   UNL     1      -7.451  13.122  68.317  1.00  0.00    -0.129 A  
HETATM   15  C   UNL     1      -8.270  13.674  67.331  1.00  0.00    -0.187 A  
HETATM   16  C   UNL     1      -7.134  13.893  69.424  1.00  0.00     0.022 A  
HETATM   17  N   UNL     1      -7.560  15.161  69.595  1.00  0.00    -0.203 NA 
ENDBRANCH   3  12
BRANCH   4  18
HETATM   18  C   UNL     2     -11.302  12.687  65.731  1.00  0.00    -0.333 C  
HETATM   19  O   UNL     2     -10.733  10.231  68.080  1.00  0.00    -0.217 OA 
HETATM   20  C   UNL     2     -10.801  10.944  67.097  1.00  0.00    -0.280 C  
HETATM   21  C   UNL     2     -10.200  11.888  65.152  1.00  0.00    -0.277 C  
HETATM   22  O   UNL     2      -8.791  10.059  65.849  1.00  0.00    -0.137 OA 
HETATM   23  O   UNL     2     -11.765  11.873  66.824  1.00  0.00    -0.548 OA 
HETATM   24  H   UNL     2      -8.176  10.037  65.125  1.00  0.00     0.000 HD 
HETATM   25  O   UNL     2      -9.592  12.224  63.977  1.00  0.00    -0.543 OA 
HETATM   26  C   UNL     2      -9.850  10.910  65.976  1.00  0.00    -0.233 C  
HETATM   27  H   UNL     2      -8.884  11.710  63.606  1.00  0.00     0.000 HD 
ENDBRANCH   4  18
TORSDOF 3
ENDMDL
MODEL       50
REMARK 921   NORMALIZED FREE ENERGY PREDICTED BY IDOCK:   -4.90 KCAL/MOL
REMARK 922        TOTAL FREE ENERGY PREDICTED BY IDOCK:   -6.88 KCAL/MOL
REMARK 923 INTER-LIGAND FREE ENERGY PREDICTED BY IDOCK:   -5.65 KCAL/MOL
REMARK 924 INTRA-LIGAND FREE ENERGY PREDICTED BY IDOCK:   -1.22 KCAL/MOL
REMARK 927      BINDING AFFINITY PREDICTED BY RF-SCORE:    0.00 PKD
ROOT
HETATM    1  N   UNL     1     -10.853  12.459  69.524  1.00  0.00    -0.452 N  
HETATM    2  H2  UNL     1     -10.967  11.974  70.413  1.00  0.00     0.000 HD 
HETATM    3  C   UNL     1     -11.540  12.038  68.419  1.00  0.00    -0.311 C  
HETATM    4  C   UNL     2      -8.659   9.288  69.362  1.00  0.00    -0.142 C  
HETATM    5  H1  UNL     1     -10.225  13.260  69.455  1.00  0.00     0.000 HD 
HETATM    6  O   UNL     2      -8.288  10.220  70.404  1.00  0.00    -0.374 OA 
HETATM    7  H   UNL     2      -8.890  10.955  70.378  1.00  0.00     0.000 HD 
HETATM    8  O   UNL     1     -12.295  11.076  68.501  1.00  0.00    -0.536 OA 
ENDROOT
BRANCH   4   9
HETATM    9  C   UNL     2      -7.691   8.107  69.403  1.00  0.00    -0.103 C  
HETATM   10  O   UNL     2      -6.349   8.604  69.415  1.00  0.00    -0.040 OA 
HETATM   11  H   UNL     2      -5.747   7.870  69.441  1.00  0.00     0.000 HD 
ENDBRANCH   4   9
BRANCH   3  12
HETATM   12  C   UNL     1     -11.301  12.726  67.126  1.00  0.00    -0.365 A  
HETATM   13  C   UNL     1     -10.657  13.959  67.148  1.00  0.00    -0.277 A  
HETATM   14  C   UNL     1     -11.408  12.954  64.727  1.00  0.00    -0.349 A  
HETATM   15  C   UNL     1     -11.696  12.226  65.883  1.00  0.00    -0.451 A  
HETATM   16  C   UNL     1     -10.743  14.163  64.854  1.00  0.00    -0.428 A  
HETATM   17  N   UNL     1     -10.372  14.689  66.039  1.00  0.00    -0.291 NA 
ENDBRANCH   3  12
BRANCH   4  18
HETATM   18  C   UNL     2      -8.703  10.032  68.024  1.00  0.00    -0.125 C  
HETATM   19  O   UNL     2      -6.748  10.588  65.242  1.00  0.00    -0.117 OA 
HETATM   20  C   UNL     2      -7.556  10.222  66.074  1.00  0.00    -0.128 C  
HETATM   21  C   UNL     2      -9.481   9.437  66.916  1.00  0.00    -0.156 C  
HETATM   22  O   UNL     2      -9.323   9.318  64.513  1.00  0.00    -0.437 OA 
HETATM   23  O   UNL     2      -7.414  10.275  67.433  1.00  0.00    -0.093 OA 
HETATM   24  H   UNL     2     -10.162   8.921  64.310  1.00  0.00     0.000 HD 
HETATM   25  O   UNL     2     -10.720   8.896  67.101  1.00  0.00    -0.322 OA 
HETATM   26  C   UNL     2      -8.854   9.607  65.761  1.00  0.00    -0.157 C  
HETATM   27  H   UNL     2     -11.221   8.514  66.389  1.00  0.00     0.000 HD 
ENDBRANCH   4  18
TORSDOF 3
ENDMDL
MODEL       51
REMARK 921   NORMALIZED FREE ENERGY PREDICTED BY IDOCK:   -4.90 KCAL/MOL
REMARK 922        TOTAL FREE ENERGY PREDICTED BY IDOCK:   -6.87 KCAL/MOL
REMARK 923 INTER-LIGAND FREE ENERGY PREDICTED BY IDOCK:   -6.00 KCAL/MOL
REMARK 924 INTRA-LIGAND FREE ENERGY PREDICTED BY IDOCK:   -0.87 KCAL/MOL
REMARK 927      BINDING AFFINITY PREDICTED BY RF-SCORE:    0.00 PKD
ROOT
HETATM    1  N   UNL     1     -11.727  12.250  67.520  1.00  0.00    -0.352 N  
HETATM    2  H2  UNL     1     -11.194  12.307  66.653  1.00  0.00     0.000 HD 
HETATM    3  C   UNL     1     -11.192  12.725  68.686  1.00  0.00    -0.282 C  
HETATM    4  C   UNL     2      -9.205   9.329  67.560  1.00  0.00    -0.124 C  
HETATM    5  H1  UNL     1     -12.660  11.839  67.522  1.00  0.00     0.000 HD 
HETATM    6  O   UNL     2     -10.159   9.282  66.473  1.00  0.00    -0.258 OA 
HETATM    7  H   UNL     2     -10.723  10.045  66.535  1.00  0.00     0.000 HD 
HETATM    8  O   UNL     1     -10.071  13.220  68.685  1.00  0.00    -0.221 OA 
ENDROOT
BRANCH   4   9
HETATM    9  C   UNL     2      -8.299   8.102  67.461  1.00  0.00    -0.123 C  
HETATM   10  O   UNL     2      -9.106   6.921  67.517  1.00  0.00    -0.119 OA 
HETATM   11  H   UNL     2      -8.542   6.158  67.455  1.00  0.00     0.000 HD 
ENDBRANCH   4   9
BRANCH   3  12
HETATM   12  C   UNL     1     -11.967  12.568  69.941  1.00  0.00    -0.371 A  
HETATM   13  C   UNL     1     -12.304  13.715  70.653  1.00  0.00    -0.368 A  
HETATM   14  C   UNL     1     -13.104  11.310  71.657  1.00  0.00    -0.513 A  
HETATM   15  C   UNL     1     -12.368  11.339  70.472  1.00  0.00    -0.446 A  
HETATM   16  C   UNL     1     -13.408  12.511  72.278  1.00  0.00    -0.370 A  
HETATM   17  N   UNL     1     -13.015  13.713  71.810  1.00  0.00    -0.354 NA 
ENDBRANCH   3  12
BRANCH   4  18
HETATM   18  C   UNL     2      -9.966   9.455  68.882  1.00  0.00    -0.179 C  
HETATM   19  O   UNL     2     -11.639   7.496  71.170  1.00  0.00    -0.270 OA 
HETATM   20  C   UNL     2     -10.859   8.177  70.533  1.00  0.00    -0.240 C  
HETATM   21  C   UNL     2      -9.185   9.616  70.128  1.00  0.00    -0.246 C  
HETATM   22  O   UNL     2      -9.387   8.946  72.436  1.00  0.00    -0.342 OA 
HETATM   23  O   UNL     2     -10.841   8.352  69.177  1.00  0.00    -0.155 OA 
HETATM   24  H   UNL     2      -8.664   9.433  72.814  1.00  0.00     0.000 HD 
HETATM   25  O   UNL     2      -8.112  10.454  70.215  1.00  0.00    -0.397 OA 
HETATM   26  C   UNL     2      -9.740   8.931  71.118  1.00  0.00    -0.274 C  
HETATM   27  H   UNL     2      -7.610  10.557  71.016  1.00  0.00     0.000 HD 
ENDBRANCH   4  18
TORSDOF 3
ENDMDL
MODEL       52
REMARK 921   NORMALIZED FREE ENERGY PREDICTED BY IDOCK:   -4.90 KCAL/MOL
REMARK 922        TOTAL FREE ENERGY PREDICTED BY IDOCK:   -6.87 KCAL/MOL
REMARK 923 INTER-LIGAND FREE ENERGY PREDICTED BY IDOCK:   -6.38 KCAL/MOL
REMARK 924 INTRA-LIGAND FREE ENERGY PREDICTED BY IDOCK:   -0.49 KCAL/MOL
REMARK 927      BINDING AFFINITY PREDICTED BY RF-SCORE:    0.00 PKD
ROOT
HETATM    1  N   UNL     1     -10.171  12.931  68.603  1.00  0.00    -0.374 N  
HETATM    2  H2  UNL     1     -10.818  13.715  68.522  1.00  0.00     0.000 HD 
HETATM    3  C   UNL     1      -8.881  13.057  68.167  1.00  0.00    -0.194 C  
HETATM    4  C   UNL     2     -11.407  12.993  64.947  1.00  0.00    -0.303 C  
HETATM    5  H1  UNL     1     -10.484  12.049  69.009  1.00  0.00     0.000 HD 
HETATM    6  O   UNL     2     -12.450  12.785  65.929  1.00  0.00    -0.560 OA 
HETATM    7  H   UNL     2     -12.056  12.802  66.794  1.00  0.00     0.000 HD 
HETATM    8  O   UNL     1      -8.504  14.117  67.679  1.00  0.00    -0.161 OA 
ENDROOT
BRANCH   4   9
HETATM    9  C   UNL     2     -12.040  12.965  63.557  1.00  0.00    -0.555 C  
HETATM   10  O   UNL     2     -12.353  14.303  63.159  1.00  0.00    -1.096 OA 
HETATM   11  H   UNL     2     -12.746  14.286  62.294  1.00  0.00     0.000 HD 
ENDBRANCH   4   9
BRANCH   3  12
HETATM   12  C   UNL     1      -7.985  11.877  68.239  1.00  0.00    -0.148 A  
HETATM   13  C   UNL     1      -6.934  11.794  67.331  1.00  0.00    -0.121 A  
HETATM   14  C   UNL     1      -7.225   9.770  69.133  1.00  0.00    -0.073 A  
HETATM   15  C   UNL     1      -8.135  10.827  69.148  1.00  0.00    -0.133 A  
HETATM   16  C   UNL     1      -6.199   9.791  68.203  1.00  0.00    -0.055 A  
HETATM   17  N   UNL     1      -6.039  10.774  67.292  1.00  0.00    -0.054 NA 
ENDBRANCH   3  12
BRANCH   4  18
HETATM   18  C   UNL     2     -10.304  11.954  65.168  1.00  0.00    -0.277 C  
HETATM   19  O   UNL     2      -9.911   8.693  66.209  1.00  0.00    -0.277 OA 
HETATM   20  C   UNL     2     -10.025   9.745  65.608  1.00  0.00    -0.282 C  
HETATM   21  C   UNL     2      -9.740  11.268  63.986  1.00  0.00    -0.265 C  
HETATM   22  O   UNL     2      -8.865   9.082  63.464  1.00  0.00    -0.408 OA 
HETATM   23  O   UNL     2     -10.670  10.870  66.041  1.00  0.00    -0.224 OA 
HETATM   24  H   UNL     2      -8.529   9.242  62.590  1.00  0.00     0.000 HD 
HETATM   25  O   UNL     2      -9.425  11.932  62.836  1.00  0.00    -0.544 OA 
HETATM   26  C   UNL     2      -9.505   9.992  64.255  1.00  0.00    -0.273 C  
HETATM   27  H   UNL     2      -9.062  11.491  62.076  1.00  0.00     0.000 HD 
ENDBRANCH   4  18
TORSDOF 3
ENDMDL
MODEL       53
REMARK 921   NORMALIZED FREE ENERGY PREDICTED BY IDOCK:   -4.88 KCAL/MOL
REMARK 922        TOTAL FREE ENERGY PREDICTED BY IDOCK:   -6.86 KCAL/MOL
REMARK 923 INTER-LIGAND FREE ENERGY PREDICTED BY IDOCK:   -6.14 KCAL/MOL
REMARK 924 INTRA-LIGAND FREE ENERGY PREDICTED BY IDOCK:   -0.71 KCAL/MOL
REMARK 927      BINDING AFFINITY PREDICTED BY RF-SCORE:    0.00 PKD
ROOT
HETATM    1  N   UNL     1     -10.783  16.600  67.783  1.00  0.00    -0.340 N  
HETATM    2  H2  UNL     1     -11.631  17.000  67.382  1.00  0.00     0.000 HD 
HETATM    3  C   UNL     1      -9.596  16.694  67.110  1.00  0.00    -0.241 C  
HETATM    4  C   UNL     2     -12.072  14.091  65.148  1.00  0.00    -0.410 C  
HETATM    5  H1  UNL     1     -10.817  16.128  68.686  1.00  0.00     0.000 HD 
HETATM    6  O   UNL     2     -12.985  14.332  66.244  1.00  0.00    -0.437 OA 
HETATM    7  H   UNL     2     -12.593  14.970  66.828  1.00  0.00     0.000 HD 
HETATM    8  O   UNL     1      -9.554  17.262  66.025  1.00  0.00    -0.455 OA 
ENDROOT
BRANCH   4   9
HETATM    9  C   UNL     2     -12.703  13.064  64.210  1.00  0.00    -0.162 C  
HETATM   10  O   UNL     2     -12.638  13.556  62.868  1.00  0.00    -0.825 OA 
HETATM   11  H   UNL     2     -13.030  12.917  62.284  1.00  0.00     0.000 HD 
ENDBRANCH   4   9
BRANCH   3  12
HETATM   12  C   UNL     1      -8.395  16.044  67.690  1.00  0.00    -0.164 A  
HETATM   13  C   UNL     1      -7.193  16.150  66.997  1.00  0.00    -0.221 A  
HETATM   14  C   UNL     1      -7.198  14.752  69.338  1.00  0.00    -0.168 A  
HETATM   15  C   UNL     1      -8.391  15.313  68.880  1.00  0.00    -0.196 A  
HETATM   16  C   UNL     1      -6.049  14.933  68.586  1.00  0.00    -0.087 A  
HETATM   17  N   UNL     1      -6.020  15.609  67.419  1.00  0.00    -0.317 NA 
ENDBRANCH   3  12
BRANCH   4  18
HETATM   18  C   UNL     2     -10.710  13.685  65.718  1.00  0.00    -0.280 C  
HETATM   19  O   UNL     2      -9.366  11.908  68.346  1.00  0.00    -0.199 OA 
HETATM   20  C   UNL     2      -9.789  12.324  67.285  1.00  0.00    -0.205 C  
HETATM   21  C   UNL     2      -9.978  12.579  65.064  1.00  0.00    -0.176 C  
HETATM   22  O   UNL     2      -8.502  10.795  65.740  1.00  0.00    -0.171 OA 
HETATM   23  O   UNL     2     -10.733  13.296  67.103  1.00  0.00    -0.257 OA 
HETATM   24  H   UNL     2      -8.235  10.469  64.889  1.00  0.00     0.000 HD 
HETATM   25  O   UNL     2      -9.881  12.468  63.707  1.00  0.00    -0.612 OA 
HETATM   26  C   UNL     2      -9.375  11.820  65.967  1.00  0.00    -0.220 C  
HETATM   27  H   UNL     2      -9.411  11.757  63.287  1.00  0.00     0.000 HD 
ENDBRANCH   4  18
TORSDOF 3
ENDMDL
MODEL       54
REMARK 921   NORMALIZED FREE ENERGY PREDICTED BY IDOCK:   -4.86 KCAL/MOL
REMARK 922        TOTAL FREE ENERGY PREDICTED BY IDOCK:   -6.82 KCAL/MOL
REMARK 923 INTER-LIGAND FREE ENERGY PREDICTED BY IDOCK:   -5.96 KCAL/MOL
REMARK 924 INTRA-LIGAND FREE ENERGY PREDICTED BY IDOCK:   -0.86 KCAL/MOL
REMARK 927      BINDING AFFINITY PREDICTED BY RF-SCORE:    0.00 PKD
ROOT
HETATM    1  N   UNL     1      -7.067  12.972  69.350  1.00  0.00    -0.321 N  
HETATM    2  H2  UNL     1      -6.853  13.886  69.748  1.00  0.00     0.000 HD 
HETATM    3  C   UNL     1      -6.935  12.762  68.005  1.00  0.00    -0.107 C  
HETATM    4  C   UNL     2     -10.131  15.225  68.695  1.00  0.00    -0.222 C  
HETATM    5  H1  UNL     1      -7.379  12.211  69.953  1.00  0.00     0.000 HD 
HETATM    6  O   UNL     2      -9.828  15.018  70.095  1.00  0.00    -0.488 OA 
HETATM    7  H   UNL     2      -9.054  14.469  70.157  1.00  0.00     0.000 HD 
HETATM    8  O   UNL     1      -6.560  13.676  67.280  1.00  0.00    -0.254 OA 
ENDROOT
BRANCH   4   9
HETATM    9  C   UNL     2     -11.375  16.106  68.596  1.00  0.00    -0.365 C  
HETATM   10  O   UNL     2     -12.506  15.371  69.073  1.00  0.00    -0.602 OA 
HETATM   11  H   UNL     2     -13.280  15.919  69.012  1.00  0.00     0.000 HD 
ENDBRANCH   4   9
BRANCH   3  12
HETATM   12  C   UNL     1      -7.317  11.440  67.450  1.00  0.00    -0.119 A  
HETATM   13  C   UNL     1      -6.593  10.949  66.369  1.00  0.00    -0.134 A  
HETATM   14  C   UNL     1      -8.636   9.424  67.335  1.00  0.00    -0.125 A  
HETATM   15  C   UNL     1      -8.372  10.659  67.928  1.00  0.00    -0.120 A  
HETATM   16  C   UNL     1      -7.842   9.014  66.276  1.00  0.00    -0.099 A  
HETATM   17  N   UNL     1      -6.833   9.753  65.771  1.00  0.00    -0.093 NA 
ENDBRANCH   3  12
BRANCH   4  18
HETATM   18  C   UNL     2     -10.255  13.863  68.008  1.00  0.00    -0.246 C  
HETATM   19  O   UNL     2     -12.190  11.014  68.112  1.00  0.00    -0.578 OA 
HETATM   20  C   UNL     2     -11.650  12.077  67.872  1.00  0.00    -0.337 C  
HETATM   21  C   UNL     2     -10.882  13.809  66.669  1.00  0.00    -0.288 C  
HETATM   22  O   UNL     2     -12.266  12.270  65.430  1.00  0.00    -0.546 OA 
HETATM   23  O   UNL     2     -10.987  12.878  68.759  1.00  0.00    -0.244 OA 
HETATM   24  H   UNL     2     -12.261  12.691  64.578  1.00  0.00     0.000 HD 
HETATM   25  O   UNL     2     -10.595  14.714  65.689  1.00  0.00    -0.297 OA 
HETATM   26  C   UNL     2     -11.642  12.729  66.554  1.00  0.00    -0.376 C  
HETATM   27  H   UNL     2     -10.998  14.679  64.829  1.00  0.00     0.000 HD 
ENDBRANCH   4  18
TORSDOF 3
ENDMDL
MODEL       55
REMARK 921   NORMALIZED FREE ENERGY PREDICTED BY IDOCK:   -4.86 KCAL/MOL
REMARK 922        TOTAL FREE ENERGY PREDICTED BY IDOCK:   -6.82 KCAL/MOL
REMARK 923 INTER-LIGAND FREE ENERGY PREDICTED BY IDOCK:   -5.83 KCAL/MOL
REMARK 924 INTRA-LIGAND FREE ENERGY PREDICTED BY IDOCK:   -0.99 KCAL/MOL
REMARK 927      BINDING AFFINITY PREDICTED BY RF-SCORE:    0.00 PKD
ROOT
HETATM    1  N   UNL     1     -11.087  12.725  64.341  1.00  0.00    -0.328 N  
HETATM    2  H2  UNL     1     -11.874  13.239  63.946  1.00  0.00     0.000 HD 
HETATM    3  C   UNL     1     -11.168  12.211  65.605  1.00  0.00    -0.335 C  
HETATM    4  C   UNL     2     -10.947  16.294  65.804  1.00  0.00    -0.062 C  
HETATM    5  H1  UNL     1     -10.236  12.593  63.794  1.00  0.00     0.000 HD 
HETATM    6  O   UNL     2     -10.815  16.231  64.364  1.00  0.00    -0.947 OA 
HETATM    7  H   UNL     2     -10.878  15.321  64.096  1.00  0.00     0.000 HD 
HETATM    8  O   UNL     1     -12.190  12.370  66.263  1.00  0.00    -0.620 OA 
ENDROOT
BRANCH   4   9
HETATM    9  C   UNL     2     -10.844  17.756  66.235  1.00  0.00     0.064 C  
HETATM   10  O   UNL     2      -9.538  18.246  65.916  1.00  0.00    -0.510 OA 
HETATM   11  H   UNL     2      -9.474  19.155  66.183  1.00  0.00     0.000 HD 
ENDBRANCH   4   9
BRANCH   3  12
HETATM   12  C   UNL     1      -9.981  11.527  66.174  1.00  0.00    -0.257 A  
HETATM   13  C   UNL     1      -9.139  10.842  65.304  1.00  0.00    -0.195 A  
HETATM   14  C   UNL     1      -8.507  10.840  67.956  1.00  0.00    -0.124 A  
HETATM   15  C   UNL     1      -9.657  11.507  67.533  1.00  0.00    -0.179 A  
HETATM   16  C   UNL     1      -7.722  10.205  67.007  1.00  0.00    -0.096 A  
HETATM   17  N   UNL     1      -8.018  10.180  65.691  1.00  0.00    -0.140 NA 
ENDBRANCH   3  12
BRANCH   4  18
HETATM   18  C   UNL     2      -9.907  15.366  66.438  1.00  0.00    -0.281 C  
HETATM   19  O   UNL     2      -6.544  15.277  67.179  1.00  0.00    -0.292 OA 
HETATM   20  C   UNL     2      -7.757  15.363  67.165  1.00  0.00    -0.211 C  
HETATM   21  C   UNL     2      -9.870  15.260  67.913  1.00  0.00    -0.216 C  
HETATM   22  O   UNL     2      -8.193  14.941  69.617  1.00  0.00    -0.405 OA 
HETATM   23  O   UNL     2      -8.544  15.669  66.090  1.00  0.00    -0.297 OA 
HETATM   24  H   UNL     2      -8.750  14.826  70.378  1.00  0.00     0.000 HD 
HETATM   25  O   UNL     2     -11.001  15.150  68.667  1.00  0.00    -0.236 OA 
HETATM   26  C   UNL     2      -8.618  15.184  68.343  1.00  0.00    -0.159 C  
HETATM   27  H   UNL     2     -10.977  15.082  69.615  1.00  0.00     0.000 HD 
ENDBRANCH   4  18
TORSDOF 3
ENDMDL
MODEL       56
REMARK 921   NORMALIZED FREE ENERGY PREDICTED BY IDOCK:   -4.85 KCAL/MOL
REMARK 922        TOTAL FREE ENERGY PREDICTED BY IDOCK:   -6.82 KCAL/MOL
REMARK 923 INTER-LIGAND FREE ENERGY PREDICTED BY IDOCK:   -5.88 KCAL/MOL
REMARK 924 INTRA-LIGAND FREE ENERGY PREDICTED BY IDOCK:   -0.95 KCAL/MOL
REMARK 927      BINDING AFFINITY PREDICTED BY RF-SCORE:    0.00 PKD
ROOT
HETATM    1  N   UNL     1     -11.933  13.012  68.928  1.00  0.00    -0.296 N  
HETATM    2  H2  UNL     1     -12.945  12.957  69.037  1.00  0.00     0.000 HD 
HETATM    3  C   UNL     1     -11.302  12.260  67.976  1.00  0.00    -0.293 C  
HETATM    4  C   UNL     2     -12.667   9.816  70.962  1.00  0.00    -0.304 C  
HETATM    5  H1  UNL     1     -11.386  13.630  69.529  1.00  0.00     0.000 HD 
HETATM    6  O   UNL     2     -13.093  11.043  71.600  1.00  0.00    -0.446 OA 
HETATM    7  H   UNL     2     -12.888  11.769  71.022  1.00  0.00     0.000 HD 
HETATM    8  O   UNL     1     -11.959  11.518  67.253  1.00  0.00    -0.605 OA 
ENDROOT
BRANCH   4   9
HETATM    9  C   UNL     2     -12.996   8.649  71.892  1.00  0.00    -0.372 C  
HETATM   10  O   UNL     2     -13.570   9.162  73.098  1.00  0.00    -0.931 OA 
HETATM   11  H   UNL     2     -13.775   8.436  73.677  1.00  0.00     0.000 HD 
ENDBRANCH   4   9
BRANCH   3  12
HETATM   12  C   UNL     1      -9.823  12.315  67.887  1.00  0.00    -0.201 A  
HETATM   13  C   UNL     1      -9.177  13.442  68.387  1.00  0.00    -0.149 A  
HETATM   14  C   UNL     1      -7.642  11.470  67.298  1.00  0.00    -0.143 A  
HETATM   15  C   UNL     1      -9.029  11.317  67.317  1.00  0.00    -0.149 A  
HETATM   16  C   UNL     1      -7.094  12.621  67.841  1.00  0.00    -0.113 A  
HETATM   17  N   UNL     1      -7.830  13.617  68.375  1.00  0.00    -0.135 NA 
ENDBRANCH   3  12
BRANCH   4  18
HETATM   18  C   UNL     2     -11.187   9.939  70.590  1.00  0.00    -0.344 C  
HETATM   19  O   UNL     2      -8.082   8.982  71.737  1.00  0.00    -0.348 OA 
HETATM   20  C   UNL     2      -9.149   9.124  71.170  1.00  0.00    -0.205 C  
HETATM   21  C   UNL     2     -10.661   9.071  69.513  1.00  0.00    -0.225 C  
HETATM   22  O   UNL     2      -8.587   7.949  69.006  1.00  0.00    -0.133 OA 
HETATM   23  O   UNL     2     -10.275   9.709  71.679  1.00  0.00    -0.049 OA 
HETATM   24  H   UNL     2      -8.775   7.642  68.127  1.00  0.00     0.000 HD 
HETATM   25  O   UNL     2     -11.339   8.858  68.348  1.00  0.00    -0.268 OA 
HETATM   26  C   UNL     2      -9.440   8.649  69.810  1.00  0.00    -0.166 C  
HETATM   27  H   UNL     2     -11.001   8.301  67.657  1.00  0.00     0.000 HD 
ENDBRANCH   4  18
TORSDOF 3
ENDMDL
MODEL       57
REMARK 921   NORMALIZED FREE ENERGY PREDICTED BY IDOCK:   -4.82 KCAL/MOL
REMARK 922        TOTAL FREE ENERGY PREDICTED BY IDOCK:   -6.78 KCAL/MOL
REMARK 923 INTER-LIGAND FREE ENERGY PREDICTED BY IDOCK:   -5.80 KCAL/MOL
REMARK 924 INTRA-LIGAND FREE ENERGY PREDICTED BY IDOCK:   -0.98 KCAL/MOL
REMARK 927      BINDING AFFINITY PREDICTED BY RF-SCORE:    0.00 PKD
ROOT
HETATM    1  N   UNL     1     -12.472  14.123  66.622  1.00  0.00    -0.548 N  
HETATM    2  H2  UNL     1     -13.012  14.974  66.472  1.00  0.00     0.000 HD 
HETATM    3  C   UNL     1     -12.150  13.731  67.892  1.00  0.00    -0.287 C  
HETATM    4  C   UNL     2     -10.011  17.082  66.917  1.00  0.00    -0.289 C  
HETATM    5  H1  UNL     1     -12.169  13.561  65.827  1.00  0.00     0.000 HD 
HETATM    6  O   UNL     2     -10.646  16.957  65.623  1.00  0.00    -0.444 OA 
HETATM    7  H   UNL     2     -11.242  16.217  65.651  1.00  0.00     0.000 HD 
HETATM    8  O   UNL     1     -12.513  14.405  68.849  1.00  0.00    -0.146 OA 
ENDROOT
BRANCH   4   9
HETATM    9  C   UNL     2      -9.051  18.270  66.872  1.00  0.00    -0.282 C  
HETATM   10  O   UNL     2      -9.437  19.140  65.803  1.00  0.00    -0.398 OA 
HETATM   11  H   UNL     2      -8.840  19.879  65.775  1.00  0.00     0.000 HD 
ENDBRANCH   4   9
BRANCH   3  12
HETATM   12  C   UNL     1     -11.307  12.523  68.073  1.00  0.00    -0.339 A  
HETATM   13  C   UNL     1     -11.534  11.725  69.190  1.00  0.00    -0.297 A  
HETATM   14  C   UNL     1      -9.558  10.977  67.467  1.00  0.00    -0.178 A  
HETATM   15  C   UNL     1     -10.281  12.140  67.205  1.00  0.00    -0.226 A  
HETATM   16  C   UNL     1      -9.876  10.238  68.595  1.00  0.00    -0.173 A  
HETATM   17  N   UNL     1     -10.840  10.592  69.470  1.00  0.00    -0.240 NA 
ENDBRANCH   3  12
BRANCH   4  18
HETATM   18  C   UNL     2      -9.357  15.746  67.279  1.00  0.00    -0.211 C  
HETATM   19  O   UNL     2      -6.271  14.215  67.241  1.00  0.00    -0.301 OA 
HETATM   20  C   UNL     2      -7.311  14.787  67.503  1.00  0.00    -0.201 C  
HETATM   21  C   UNL     2      -9.081  15.464  68.705  1.00  0.00    -0.195 C  
HETATM   22  O   UNL     2      -7.398  14.298  69.980  1.00  0.00    -0.375 OA 
HETATM   23  O   UNL     2      -8.090  15.507  66.640  1.00  0.00    -0.240 OA 
HETATM   24  H   UNL     2      -7.791  14.331  70.843  1.00  0.00     0.000 HD 
HETATM   25  O   UNL     2      -9.983  15.736  69.692  1.00  0.00    -0.271 OA 
HETATM   26  C   UNL     2      -7.921  14.838  68.840  1.00  0.00    -0.160 C  
HETATM   27  H   UNL     2      -9.805  15.555  70.608  1.00  0.00     0.000 HD 
ENDBRANCH   4  18
TORSDOF 3
ENDMDL
MODEL       58
REMARK 921   NORMALIZED FREE ENERGY PREDICTED BY IDOCK:   -4.80 KCAL/MOL
REMARK 922        TOTAL FREE ENERGY PREDICTED BY IDOCK:   -6.76 KCAL/MOL
REMARK 923 INTER-LIGAND FREE ENERGY PREDICTED BY IDOCK:   -6.29 KCAL/MOL
REMARK 924 INTRA-LIGAND FREE ENERGY PREDICTED BY IDOCK:   -0.46 KCAL/MOL
REMARK 927      BINDING AFFINITY PREDICTED BY RF-SCORE:    0.00 PKD
ROOT
HETATM    1  N   UNL     1      -7.888  12.824  68.745  1.00  0.00    -0.312 N  
HETATM    2  H2  UNL     1      -7.365  13.641  69.060  1.00  0.00     0.000 HD 
HETATM    3  C   UNL     1      -7.598  12.246  67.540  1.00  0.00    -0.155 C  
HETATM    4  C   UNL     2      -9.377  15.880  66.919  1.00  0.00    -0.225 C  
HETATM    5  H1  UNL     1      -8.628  12.435  69.328  1.00  0.00     0.000 HD 
HETATM    6  O   UNL     2      -9.493  15.928  68.360  1.00  0.00    -0.195 OA 
HETATM    7  H   UNL     2      -9.087  15.149  68.721  1.00  0.00     0.000 HD 
HETATM    8  O   UNL     1      -6.708  12.714  66.839  1.00  0.00    -0.047 OA 
ENDROOT
BRANCH   4   9
HETATM    9  C   UNL     2     -10.031  17.133  66.339  1.00  0.00    -0.306 C  
HETATM   10  O   UNL     2     -10.643  17.873  67.400  1.00  0.00    -0.386 OA 
HETATM   11  H   UNL     2     -11.050  18.653  67.040  1.00  0.00     0.000 HD 
ENDBRANCH   4   9
BRANCH   3  12
HETATM   12  C   UNL     1      -8.421  11.100  67.083  1.00  0.00    -0.137 A  
HETATM   13  C   UNL     1      -8.704  10.995  65.725  1.00  0.00    -0.174 A  
HETATM   14  C   UNL     1      -9.703   9.080  67.388  1.00  0.00    -0.217 A  
HETATM   15  C   UNL     1      -8.950  10.122  67.929  1.00  0.00    -0.128 A  
HETATM   16  C   UNL     1      -9.911   9.053  66.018  1.00  0.00    -0.242 A  
HETATM   17  N   UNL     1      -9.438   9.994  65.175  1.00  0.00    -0.249 NA 
ENDBRANCH   3  12
BRANCH   4  18
HETATM   18  C   UNL     2      -9.969  14.560  66.418  1.00  0.00    -0.292 C  
HETATM   19  O   UNL     2     -12.179  12.108  67.405  1.00  0.00    -0.486 OA 
HETATM   20  C   UNL     2     -11.595  13.055  66.914  1.00  0.00    -0.366 C  
HETATM   21  C   UNL     2     -11.040  14.614  65.399  1.00  0.00    -0.348 C  
HETATM   22  O   UNL     2     -13.016  13.347  64.847  1.00  0.00    -0.717 OA 
HETATM   23  O   UNL     2     -10.530  13.727  67.448  1.00  0.00    -0.253 OA 
HETATM   24  H   UNL     2     -13.252  13.756  64.023  1.00  0.00     0.000 HD 
HETATM   25  O   UNL     2     -10.983  15.449  64.321  1.00  0.00    -0.661 OA 
HETATM   26  C   UNL     2     -11.959  13.690  65.639  1.00  0.00    -0.395 C  
HETATM   27  H   UNL     2     -11.671  15.484  63.667  1.00  0.00     0.000 HD 
ENDBRANCH   4  18
TORSDOF 3
ENDMDL
MODEL       59
REMARK 921   NORMALIZED FREE ENERGY PREDICTED BY IDOCK:   -4.79 KCAL/MOL
REMARK 922        TOTAL FREE ENERGY PREDICTED BY IDOCK:   -6.74 KCAL/MOL
REMARK 923 INTER-LIGAND FREE ENERGY PREDICTED BY IDOCK:   -6.20 KCAL/MOL
REMARK 924 INTRA-LIGAND FREE ENERGY PREDICTED BY IDOCK:   -0.55 KCAL/MOL
REMARK 927      BINDING AFFINITY PREDICTED BY RF-SCORE:    0.00 PKD
ROOT
HETATM    1  N   UNL     1      -7.002  15.740  68.999  1.00  0.00    -0.139 N  
HETATM    2  H2  UNL     1      -6.117  15.988  69.439  1.00  0.00     0.000 HD 
HETATM    3  C   UNL     1      -7.055  15.495  67.655  1.00  0.00    -0.174 C  
HETATM    4  C   UNL     2      -6.408  19.486  68.289  1.00  0.00    -0.232 C  
HETATM    5  H1  UNL     1      -7.851  15.673  69.560  1.00  0.00     0.000 HD 
HETATM    6  O   UNL     2      -6.525  19.153  69.692  1.00  0.00    -0.288 OA 
HETATM    7  H   UNL     2      -6.651  18.214  69.769  1.00  0.00     0.000 HD 
HETATM    8  O   UNL     1      -6.035  15.574  66.981  1.00  0.00    -0.270 OA 
ENDROOT
BRANCH   4   9
HETATM    9  C   UNL     2      -6.206  20.996  68.166  1.00  0.00    -0.308 C  
HETATM   10  O   UNL     2      -5.134  21.250  67.253  1.00  0.00    -0.209 OA 
HETATM   11  H   UNL     2      -5.009  22.189  67.176  1.00  0.00     0.000 HD 
ENDBRANCH   4   9
BRANCH   3  12
HETATM   12  C   UNL     1      -8.371  15.200  67.035  1.00  0.00    -0.263 A  
HETATM   13  C   UNL     1      -8.998  14.003  67.366  1.00  0.00    -0.206 A  
HETATM   14  C   UNL     1     -10.261  15.665  65.611  1.00  0.00    -0.402 A  
HETATM   15  C   UNL     1      -9.018  16.038  66.123  1.00  0.00    -0.381 A  
HETATM   16  C   UNL     1     -10.813  14.461  66.020  1.00  0.00    -0.309 A  
HETATM   17  N   UNL     1     -10.204  13.615  66.876  1.00  0.00    -0.257 NA 
ENDBRANCH   3  12
BRANCH   4  18
HETATM   18  C   UNL     2      -7.633  18.943  67.548  1.00  0.00    -0.228 C  
HETATM   19  O   UNL     2     -11.027  18.543  67.983  1.00  0.00    -0.224 OA 
HETATM   20  C   UNL     2      -9.898  18.885  67.688  1.00  0.00    -0.331 C  
HETATM   21  C   UNL     2      -8.230  19.772  66.478  1.00  0.00    -0.335 C  
HETATM   22  O   UNL     2     -10.434  20.198  65.598  1.00  0.00    -0.416 OA 
HETATM   23  O   UNL     2      -8.754  18.631  68.393  1.00  0.00    -0.316 OA 
HETATM   24  H   UNL     2     -10.211  20.716  64.834  1.00  0.00     0.000 HD 
HETATM   25  O   UNL     2      -7.472  20.426  65.551  1.00  0.00    -0.516 OA 
HETATM   26  C   UNL     2      -9.552  19.687  66.506  1.00  0.00    -0.389 C  
HETATM   27  H   UNL     2      -7.855  20.958  64.863  1.00  0.00     0.000 HD 
ENDBRANCH   4  18
TORSDOF 3
ENDMDL
MODEL       60
REMARK 921   NORMALIZED FREE ENERGY PREDICTED BY IDOCK:   -4.78 KCAL/MOL
REMARK 922        TOTAL FREE ENERGY PREDICTED BY IDOCK:   -6.74 KCAL/MOL
REMARK 923 INTER-LIGAND FREE ENERGY PREDICTED BY IDOCK:   -5.64 KCAL/MOL
REMARK 924 INTRA-LIGAND FREE ENERGY PREDICTED BY IDOCK:   -1.10 KCAL/MOL
REMARK 927      BINDING AFFINITY PREDICTED BY RF-SCORE:    0.00 PKD
ROOT
HETATM    1  N   UNL     1      -9.957  10.167  70.669  1.00  0.00    -0.277 N  
HETATM    2  H2  UNL     1      -9.815  10.800  71.456  1.00  0.00     0.000 HD 
HETATM    3  C   UNL     1      -8.996  10.046  69.704  1.00  0.00    -0.202 C  
HETATM    4  C   UNL     2     -10.769  13.724  69.411  1.00  0.00     0.025 C  
HETATM    5  H1  UNL     1     -10.817   9.623  70.599  1.00  0.00     0.000 HD 
HETATM    6  O   UNL     2     -11.619  13.261  70.486  1.00  0.00    -0.523 OA 
HETATM    7  H   UNL     2     -11.335  12.390  70.739  1.00  0.00     0.000 HD 
HETATM    8  O   UNL     1      -7.964  10.701  69.787  1.00  0.00    -0.083 OA 
ENDROOT
BRANCH   4   9
HETATM    9  C   UNL     2     -11.226  15.124  69.003  1.00  0.00    -0.273 C  
HETATM   10  O   UNL     2     -12.620  15.263  69.296  1.00  0.00    -0.585 OA 
HETATM   11  H   UNL     2     -12.904  16.134  69.043  1.00  0.00     0.000 HD 
ENDBRANCH   4   9
BRANCH   3  12
HETATM   12  C   UNL     1      -9.263   9.168  68.539  1.00  0.00    -0.136 A  
HETATM   13  C   UNL     1      -8.210   8.885  67.675  1.00  0.00    -0.110 A  
HETATM   14  C   UNL     1     -10.645   7.792  67.118  1.00  0.00    -0.401 A  
HETATM   15  C   UNL     1     -10.511   8.616  68.236  1.00  0.00    -0.234 A  
HETATM   16  C   UNL     1      -9.529   7.554  66.332  1.00  0.00    -0.147 A  
HETATM   17  N   UNL     1      -8.317   8.092  66.577  1.00  0.00    -0.117 NA 
ENDBRANCH   3  12
BRANCH   4  18
HETATM   18  C   UNL     2     -10.790  12.691  68.281  1.00  0.00    -0.239 C  
HETATM   19  O   UNL     2     -12.358  12.094  65.272  1.00  0.00    -0.513 OA 
HETATM   20  C   UNL     2     -11.612  12.384  66.187  1.00  0.00    -0.396 C  
HETATM   21  C   UNL     2      -9.688  12.707  67.295  1.00  0.00    -0.207 C  
HETATM   22  O   UNL     2      -9.419  12.255  64.942  1.00  0.00    -0.454 OA 
HETATM   23  O   UNL     2     -11.972  12.726  67.461  1.00  0.00    -0.364 OA 
HETATM   24  H   UNL     2      -8.473  12.302  64.871  1.00  0.00     0.000 HD 
HETATM   25  O   UNL     2      -8.382  12.857  67.661  1.00  0.00    -0.152 OA 
HETATM   26  C   UNL     2     -10.148  12.456  66.078  1.00  0.00    -0.251 C  
HETATM   27  H   UNL     2      -7.674  12.867  67.027  1.00  0.00     0.000 HD 
ENDBRANCH   4  18
TORSDOF 3
ENDMDL
MODEL       61
REMARK 921   NORMALIZED FREE ENERGY PREDICTED BY IDOCK:   -4.75 KCAL/MOL
REMARK 922        TOTAL FREE ENERGY PREDICTED BY IDOCK:   -6.70 KCAL/MOL
REMARK 923 INTER-LIGAND FREE ENERGY PREDICTED BY IDOCK:   -6.05 KCAL/MOL
REMARK 924 INTRA-LIGAND FREE ENERGY PREDICTED BY IDOCK:   -0.65 KCAL/MOL
REMARK 927      BINDING AFFINITY PREDICTED BY RF-SCORE:    0.00 PKD
ROOT
HETATM    1  N   UNL     1      -7.855  13.951  68.895  1.00  0.00    -0.298 N  
HETATM    2  H2  UNL     1      -7.035  13.647  68.370  1.00  0.00     0.000 HD 
HETATM    3  C   UNL     1      -9.076  14.016  68.282  1.00  0.00    -0.191 C  
HETATM    4  C   UNL     2      -6.660  16.983  66.828  1.00  0.00    -0.227 C  
HETATM    5  H1  UNL     1      -7.768  14.207  69.878  1.00  0.00     0.000 HD 
HETATM    6  O   UNL     2      -5.696  16.498  67.792  1.00  0.00    -0.115 OA 
HETATM    7  H   UNL     2      -6.069  15.745  68.237  1.00  0.00     0.000 HD 
HETATM    8  O   UNL     1      -9.181  13.708  67.100  1.00  0.00    -0.224 OA 
ENDROOT
BRANCH   4   9
HETATM    9  C   UNL     2      -6.060  18.193  66.113  1.00  0.00    -0.208 C  
HETATM   10  O   UNL     2      -6.864  18.505  64.971  1.00  0.00    -0.498 OA 
HETATM   11  H   UNL     2      -6.491  19.258  64.526  1.00  0.00     0.000 HD 
ENDBRANCH   4   9
BRANCH   3  12
HETATM   12  C   UNL     1     -10.236  14.524  69.055  1.00  0.00    -0.210 A  
HETATM   13  C   UNL     1     -10.073  15.695  69.789  1.00  0.00    -0.287 A  
HETATM   14  C   UNL     1     -12.507  14.469  69.867  1.00  0.00    -0.300 A  
HETATM   15  C   UNL     1     -11.481  13.895  69.114  1.00  0.00    -0.345 A  
HETATM   16  C   UNL     1     -12.250  15.650  70.544  1.00  0.00    -0.399 A  
HETATM   17  N   UNL     1     -11.053  16.270  70.533  1.00  0.00    -0.329 NA 
ENDBRANCH   3  12
BRANCH   4  18
HETATM   18  C   UNL     2      -7.984  17.257  67.546  1.00  0.00    -0.182 C  
HETATM   19  O   UNL     2      -9.504  19.686  69.458  1.00  0.00    -0.169 OA 
HETATM   20  C   UNL     2      -9.110  18.926  68.595  1.00  0.00    -0.346 C  
HETATM   21  C   UNL     2      -9.148  17.673  66.734  1.00  0.00    -0.260 C  
HETATM   22  O   UNL     2     -11.060  19.119  67.002  1.00  0.00    -0.355 OA 
HETATM   23  O   UNL     2      -7.913  18.266  68.569  1.00  0.00    -0.296 OA 
HETATM   24  H   UNL     2     -11.541  18.906  66.211  1.00  0.00     0.000 HD 
HETATM   25  O   UNL     2      -9.464  17.076  65.548  1.00  0.00    -0.496 OA 
HETATM   26  C   UNL     2      -9.854  18.597  67.371  1.00  0.00    -0.318 C  
HETATM   27  H   UNL     2     -10.213  17.344  65.027  1.00  0.00     0.000 HD 
ENDBRANCH   4  18
TORSDOF 3
ENDMDL
MODEL       62
REMARK 921   NORMALIZED FREE ENERGY PREDICTED BY IDOCK:   -4.72 KCAL/MOL
REMARK 922        TOTAL FREE ENERGY PREDICTED BY IDOCK:   -6.67 KCAL/MOL
REMARK 923 INTER-LIGAND FREE ENERGY PREDICTED BY IDOCK:   -5.72 KCAL/MOL
REMARK 924 INTRA-LIGAND FREE ENERGY PREDICTED BY IDOCK:   -0.95 KCAL/MOL
REMARK 927      BINDING AFFINITY PREDICTED BY RF-SCORE:    0.00 PKD
ROOT
HETATM    1  N   UNL     1     -10.972  13.856  69.909  1.00  0.00    -0.452 N  
HETATM    2  H2  UNL     1     -11.629  13.331  70.486  1.00  0.00     0.000 HD 
HETATM    3  C   UNL     1     -11.303  14.194  68.626  1.00  0.00    -0.277 C  
HETATM    4  C   UNL     2     -10.682  10.155  68.855  1.00  0.00    -0.223 C  
HETATM    5  H1  UNL     1     -10.066  14.130  70.287  1.00  0.00     0.000 HD 
HETATM    6  O   UNL     2     -10.335  10.413  70.235  1.00  0.00    -0.434 OA 
HETATM    7  H   UNL     2     -10.453  11.341  70.406  1.00  0.00     0.000 HD 
HETATM    8  O   UNL     1     -12.392  13.865  68.171  1.00  0.00    -0.250 OA 
ENDROOT
BRANCH   4   9
HETATM    9  C   UNL     2     -10.493   8.663  68.580  1.00  0.00    -0.177 C  
HETATM   10  O   UNL     2     -11.182   7.913  69.585  1.00  0.00    -0.443 OA 
HETATM   11  H   UNL     2     -11.065   6.986  69.414  1.00  0.00     0.000 HD 
ENDBRANCH   4   9
BRANCH   3  12
HETATM   12  C   UNL     1     -10.299  14.900  67.793  1.00  0.00    -0.244 A  
HETATM   13  C   UNL     1      -8.963  14.532  67.923  1.00  0.00    -0.187 A  
HETATM   14  C   UNL     1      -9.574  16.516  66.156  1.00  0.00    -0.344 A  
HETATM   15  C   UNL     1     -10.600  15.928  66.897  1.00  0.00    -0.309 A  
HETATM   16  C   UNL     1      -8.278  16.062  66.342  1.00  0.00    -0.274 A  
HETATM   17  N   UNL     1      -7.947  15.091  67.217  1.00  0.00    -0.194 NA 
ENDBRANCH   3  12
BRANCH   4  18
HETATM   18  C   UNL     2      -9.859  11.080  67.955  1.00  0.00    -0.171 C  
HETATM   19  O   UNL     2      -7.017  11.034  66.008  1.00  0.00    -0.107 OA 
HETATM   20  C   UNL     2      -8.141  11.027  66.471  1.00  0.00    -0.161 C  
HETATM   21  C   UNL     2     -10.357  11.356  66.590  1.00  0.00    -0.233 C  
HETATM   22  O   UNL     2      -9.404  11.762  64.412  1.00  0.00    -0.427 OA 
HETATM   23  O   UNL     2      -8.503  10.649  67.735  1.00  0.00    -0.115 OA 
HETATM   24  H   UNL     2     -10.187  12.003  63.931  1.00  0.00     0.000 HD 
HETATM   25  O   UNL     2     -11.669  11.629  66.332  1.00  0.00    -0.472 OA 
HETATM   26  C   UNL     2      -9.352  11.400  65.727  1.00  0.00    -0.228 C  
HETATM   27  H   UNL     2     -11.989  11.807  65.455  1.00  0.00     0.000 HD 
ENDBRANCH   4  18
TORSDOF 3
ENDMDL
MODEL       63
REMARK 921   NORMALIZED FREE ENERGY PREDICTED BY IDOCK:   -4.71 KCAL/MOL
REMARK 922        TOTAL FREE ENERGY PREDICTED BY IDOCK:   -6.65 KCAL/MOL
REMARK 923 INTER-LIGAND FREE ENERGY PREDICTED BY IDOCK:   -5.71 KCAL/MOL
REMARK 924 INTRA-LIGAND FREE ENERGY PREDICTED BY IDOCK:   -0.94 KCAL/MOL
REMARK 927      BINDING AFFINITY PREDICTED BY RF-SCORE:    0.00 PKD
ROOT
HETATM    1  N   UNL     1      -9.337   8.218  67.949  1.00  0.00    -0.138 N  
HETATM    2  H2  UNL     1      -9.799   8.999  67.484  1.00  0.00     0.000 HD 
HETATM    3  C   UNL     1      -9.987   7.023  68.092  1.00  0.00    -0.151 C  
HETATM    4  C   UNL     2     -11.717   9.815  70.534  1.00  0.00    -0.268 C  
HETATM    5  H1  UNL     1      -8.389   8.325  68.310  1.00  0.00     0.000 HD 
HETATM    6  O   UNL     2     -10.676  10.697  70.052  1.00  0.00    -0.397 OA 
HETATM    7  H   UNL     2     -10.155  10.226  69.413  1.00  0.00     0.000 HD 
HETATM    8  O   UNL     1     -11.126   6.893  67.658  1.00  0.00    -0.242 OA 
ENDROOT
BRANCH   4   9
HETATM    9  C   UNL     2     -12.555  10.572  71.563  1.00  0.00    -0.424 C  
HETATM   10  O   UNL     2     -12.639  11.947  71.175  1.00  0.00    -0.372 OA 
HETATM   11  H   UNL     2     -13.160  12.419  71.815  1.00  0.00     0.000 HD 
ENDBRANCH   4   9
BRANCH   3  12
HETATM   12  C   UNL     1      -9.311   5.928  68.832  1.00  0.00    -0.139 A  
HETATM   13  C   UNL     1      -7.921   5.938  68.892  1.00  0.00    -0.102 A  
HETATM   14  C   UNL     1      -9.239   3.902  70.137  1.00  0.00    -0.217 A  
HETATM   15  C   UNL     1      -9.977   4.873  69.459  1.00  0.00    -0.295 A  
HETATM   16  C   UNL     1      -7.858   4.012  70.158  1.00  0.00    -0.048 A  
HETATM   17  N   UNL     1      -7.181   5.002  69.541  1.00  0.00    -0.055 NA 
ENDBRANCH   3  12
BRANCH   4  18
HETATM   18  C   UNL     2     -11.074   8.528  71.056  1.00  0.00    -0.260 C  
HETATM   19  O   UNL     2      -9.939   7.144  74.000  1.00  0.00    -0.311 OA 
HETATM   20  C   UNL     2     -10.544   7.485  73.002  1.00  0.00    -0.368 C  
HETATM   21  C   UNL     2     -11.935   7.341  71.248  1.00  0.00    -0.324 C  
HETATM   22  O   UNL     2     -12.056   5.475  72.771  1.00  0.00    -0.502 OA 
HETATM   23  O   UNL     2     -10.407   8.664  72.324  1.00  0.00    -0.327 OA 
HETATM   24  H   UNL     2     -12.729   4.957  72.346  1.00  0.00     0.000 HD 
HETATM   25  O   UNL     2     -12.873   6.963  70.332  1.00  0.00    -0.520 OA 
HETATM   26  C   UNL     2     -11.586   6.683  72.344  1.00  0.00    -0.245 C  
HETATM   27  H   UNL     2     -13.427   6.200  70.455  1.00  0.00     0.000 HD 
ENDBRANCH   4  18
TORSDOF 3
ENDMDL
MODEL       64
REMARK 921   NORMALIZED FREE ENERGY PREDICTED BY IDOCK:   -4.68 KCAL/MOL
REMARK 922        TOTAL FREE ENERGY PREDICTED BY IDOCK:   -6.62 KCAL/MOL
REMARK 923 INTER-LIGAND FREE ENERGY PREDICTED BY IDOCK:   -6.57 KCAL/MOL
REMARK 924 INTRA-LIGAND FREE ENERGY PREDICTED BY IDOCK:   -0.05 KCAL/MOL
REMARK 927      BINDING AFFINITY PREDICTED BY RF-SCORE:    0.00 PKD
ROOT
HETATM    1  N   UNL     1     -13.029  15.701  70.581  1.00  0.00    -0.628 N  
HETATM    2  H2  UNL     1     -12.820  16.696  70.508  1.00  0.00     0.000 HD 
HETATM    3  C   UNL     1     -12.188  14.872  71.271  1.00  0.00    -0.325 C  
HETATM    4  C   UNL     2     -10.369  16.086  67.811  1.00  0.00    -0.279 C  
HETATM    5  H1  UNL     1     -13.866  15.320  70.140  1.00  0.00     0.000 HD 
HETATM    6  O   UNL     2     -11.619  16.763  67.540  1.00  0.00     0.241 OA 
HETATM    7  H   UNL     2     -12.201  16.628  68.279  1.00  0.00     0.000 HD 
HETATM    8  O   UNL     1     -11.182  15.330  71.801  1.00  0.00    -0.408 OA 
ENDROOT
BRANCH   4   9
HETATM    9  C   UNL     2      -9.435  16.303  66.622  1.00  0.00    -0.248 C  
HETATM   10  O   UNL     2     -10.218  16.439  65.432  1.00  0.00    -0.546 OA 
HETATM   11  H   UNL     2      -9.636  16.575  64.692  1.00  0.00     0.000 HD 
ENDBRANCH   4   9
BRANCH   3  12
HETATM   12  C   UNL     1     -12.487  13.420  71.303  1.00  0.00    -0.368 A  
HETATM   13  C   UNL     1     -11.916  12.610  70.327  1.00  0.00    -0.284 A  
HETATM   14  C   UNL     1     -13.526  11.428  72.183  1.00  0.00    -0.203 A  
HETATM   15  C   UNL     1     -13.323  12.807  72.241  1.00  0.00    -0.563 A  
HETATM   16  C   UNL     1     -12.894  10.706  71.183  1.00  0.00    -0.420 A  
HETATM   17  N   UNL     1     -12.103  11.267  70.246  1.00  0.00    -0.349 NA 
ENDBRANCH   3  12
BRANCH   4  18
HETATM   18  C   UNL     2     -10.661  14.618  68.135  1.00  0.00    -0.242 C  
HETATM   19  O   UNL     2     -11.596  11.698  66.564  1.00  0.00    -0.473 OA 
HETATM   20  C   UNL     2     -11.032  12.626  67.111  1.00  0.00    -0.261 C  
HETATM   21  C   UNL     2      -9.516  13.709  68.360  1.00  0.00    -0.190 C  
HETATM   22  O   UNL     2      -8.996  11.390  67.951  1.00  0.00    -0.143 OA 
HETATM   23  O   UNL     2     -11.442  13.930  67.141  1.00  0.00    -0.315 OA 
HETATM   24  H   UNL     2      -8.171  11.320  68.415  1.00  0.00     0.000 HD 
HETATM   25  O   UNL     2      -8.436  14.067  69.114  1.00  0.00    -0.362 OA 
HETATM   26  C   UNL     2      -9.754  12.519  67.828  1.00  0.00    -0.202 C  
HETATM   27  H   UNL     2      -7.701  13.483  69.259  1.00  0.00     0.000 HD 
ENDBRANCH   4  18
TORSDOF 3
ENDMDL
MODEL       65
REMARK 921   NORMALIZED FREE ENERGY PREDICTED BY IDOCK:   -4.67 KCAL/MOL
REMARK 922        TOTAL FREE ENERGY PREDICTED BY IDOCK:   -6.60 KCAL/MOL
REMARK 923 INTER-LIGAND FREE ENERGY PREDICTED BY IDOCK:   -6.11 KCAL/MOL
REMARK 924 INTRA-LIGAND FREE ENERGY PREDICTED BY IDOCK:   -0.50 KCAL/MOL
REMARK 927      BINDING AFFINITY PREDICTED BY RF-SCORE:    0.00 PKD
ROOT
HETATM    1  N   UNL     1      -8.961   9.054  67.448  1.00  0.00    -0.124 N  
HETATM    2  H2  UNL     1      -9.178   9.897  66.916  1.00  0.00     0.000 HD 
HETATM    3  C   UNL     1      -9.839   8.006  67.460  1.00  0.00    -0.172 C  
HETATM    4  C   UNL     2     -11.412  11.129  69.588  1.00  0.00    -0.310 C  
HETATM    5  H1  UNL     1      -8.088   8.989  67.971  1.00  0.00     0.000 HD 
HETATM    6  O   UNL     2     -10.154  11.789  69.308  1.00  0.00    -0.419 OA 
HETATM    7  H   UNL     2      -9.628  11.213  68.765  1.00  0.00     0.000 HD 
HETATM    8  O   UNL     1     -10.888   8.083  66.831  1.00  0.00    -0.267 OA 
ENDROOT
BRANCH   4   9
HETATM    9  C   UNL     2     -12.258  12.054  70.461  1.00  0.00    -0.325 C  
HETATM   10  O   UNL     2     -11.671  13.359  70.463  1.00  0.00    -0.519 OA 
HETATM   11  H   UNL     2     -12.198  13.935  71.006  1.00  0.00     0.000 HD 
ENDBRANCH   4   9
BRANCH   3  12
HETATM   12  C   UNL     1      -9.523   6.821  68.296  1.00  0.00    -0.125 A  
HETATM   13  C   UNL     1      -8.330   6.148  68.055  1.00  0.00    -0.117 A  
HETATM   14  C   UNL     1      -9.952   5.204  70.033  1.00  0.00    -0.326 A  
HETATM   15  C   UNL     1     -10.355   6.321  69.301  1.00  0.00    -0.266 A  
HETATM   16  C   UNL     1      -8.733   4.617  69.731  1.00  0.00    -0.081 A  
HETATM   17  N   UNL     1      -7.918   5.056  68.750  1.00  0.00    -0.081 NA 
ENDBRANCH   3  12
BRANCH   4  18
HETATM   18  C   UNL     2     -11.125   9.756  70.202  1.00  0.00    -0.285 C  
HETATM   19  O   UNL     2      -9.098   8.289  72.570  1.00  0.00    -0.206 OA 
HETATM   20  C   UNL     2      -9.991   8.793  71.917  1.00  0.00    -0.331 C  
HETATM   21  C   UNL     2     -12.074   9.225  71.205  1.00  0.00    -0.316 C  
HETATM   22  O   UNL     2     -11.963   7.865  73.193  1.00  0.00    -0.662 OA 
HETATM   23  O   UNL     2      -9.850   9.650  70.861  1.00  0.00    -0.245 OA 
HETATM   24  H   UNL     2     -12.889   7.738  73.359  1.00  0.00     0.000 HD 
HETATM   25  O   UNL     2     -13.427   9.305  71.045  1.00  0.00    -0.557 OA 
HETATM   26  C   UNL     2     -11.425   8.596  72.174  1.00  0.00    -0.373 C  
HETATM   27  H   UNL     2     -14.037   8.964  71.689  1.00  0.00     0.000 HD 
ENDBRANCH   4  18
TORSDOF 3
ENDMDL
MODEL       66
REMARK 921   NORMALIZED FREE ENERGY PREDICTED BY IDOCK:   -4.63 KCAL/MOL
REMARK 922        TOTAL FREE ENERGY PREDICTED BY IDOCK:   -6.56 KCAL/MOL
REMARK 923 INTER-LIGAND FREE ENERGY PREDICTED BY IDOCK:   -6.16 KCAL/MOL
REMARK 924 INTRA-LIGAND FREE ENERGY PREDICTED BY IDOCK:   -0.40 KCAL/MOL
REMARK 927      BINDING AFFINITY PREDICTED BY RF-SCORE:    0.00 PKD
ROOT
HETATM    1  N   UNL     1     -10.662  15.135  70.707  1.00  0.00    -0.539 N  
HETATM    2  H2  UNL     1     -11.032  14.446  71.362  1.00  0.00     0.000 HD 
HETATM    3  C   UNL     1     -11.514  15.858  69.917  1.00  0.00    -0.344 C  
HETATM    4  C   UNL     2     -11.468  11.962  68.663  1.00  0.00    -0.294 C  
HETATM    5  H1  UNL     1      -9.656  15.287  70.638  1.00  0.00     0.000 HD 
HETATM    6  O   UNL     2     -10.467  11.774  69.691  1.00  0.00    -0.410 OA 
HETATM    7  H   UNL     2     -10.349  12.598  70.149  1.00  0.00     0.000 HD 
HETATM    8  O   UNL     1     -12.723  15.676  70.000  1.00  0.00    -0.282 OA 
ENDROOT
BRANCH   4   9
HETATM    9  C   UNL     2     -11.658  10.636  67.926  1.00  0.00    -0.047 C  
HETATM   10  O   UNL     2     -11.353   9.559  68.817  1.00  0.00    -0.460 OA 
HETATM   11  H   UNL     2     -11.471   8.735  68.359  1.00  0.00     0.000 HD 
ENDBRANCH   4   9
BRANCH   3  12
HETATM   12  C   UNL     1     -10.939  16.803  68.929  1.00  0.00    -0.259 A  
HETATM   13  C   UNL     1     -10.158  17.853  69.402  1.00  0.00     0.009 A  
HETATM   14  C   UNL     1     -10.546  17.663  66.710  1.00  0.00    -0.224 A  
HETATM   15  C   UNL     1     -11.145  16.724  67.549  1.00  0.00    -0.035 A  
HETATM   16  C   UNL     1      -9.767  18.659  67.278  1.00  0.00    -0.302 A  
HETATM   17  N   UNL     1      -9.569  18.783  68.607  1.00  0.00    -0.372 NA 
ENDBRANCH   3  12
BRANCH   4  18
HETATM   18  C   UNL     2     -11.050  13.134  67.772  1.00  0.00    -0.262 C  
HETATM   19  O   UNL     2      -8.204  14.651  66.558  1.00  0.00     0.043 OA 
HETATM   20  C   UNL     2      -9.220  14.010  66.754  1.00  0.00    -0.265 C  
HETATM   21  C   UNL     2     -11.158  12.973  66.305  1.00  0.00    -0.289 C  
HETATM   22  O   UNL     2      -9.954  13.722  64.355  1.00  0.00    -0.714 OA 
HETATM   23  O   UNL     2      -9.693  13.574  67.960  1.00  0.00    -0.214 OA 
HETATM   24  H   UNL     2     -10.542  13.422  63.671  1.00  0.00     0.000 HD 
HETATM   25  O   UNL     2     -12.244  12.401  65.711  1.00  0.00    -0.620 OA 
HETATM   26  C   UNL     2     -10.130  13.546  65.697  1.00  0.00    -0.278 C  
HETATM   27  H   UNL     2     -12.314  12.298  64.768  1.00  0.00     0.000 HD 
ENDBRANCH   4  18
TORSDOF 3
ENDMDL
MODEL       67
REMARK 921   NORMALIZED FREE ENERGY PREDICTED BY IDOCK:   -4.62 KCAL/MOL
REMARK 922        TOTAL FREE ENERGY PREDICTED BY IDOCK:   -6.55 KCAL/MOL
REMARK 923 INTER-LIGAND FREE ENERGY PREDICTED BY IDOCK:   -5.34 KCAL/MOL
REMARK 924 INTRA-LIGAND FREE ENERGY PREDICTED BY IDOCK:   -1.21 KCAL/MOL
REMARK 927      BINDING AFFINITY PREDICTED BY RF-SCORE:    0.00 PKD
ROOT
HETATM    1  N   UNL     1      -8.888   8.194  66.053  1.00  0.00    -0.165 N  
HETATM    2  H2  UNL     1      -9.380   7.979  65.186  1.00  0.00     0.000 HD 
HETATM    3  C   UNL     1      -9.568   8.223  67.239  1.00  0.00    -0.166 C  
HETATM    4  C   UNL     2     -10.683  11.428  64.950  1.00  0.00    -0.286 C  
HETATM    5  H1  UNL     1      -7.887   8.389  66.038  1.00  0.00     0.000 HD 
HETATM    6  O   UNL     2      -9.696  10.941  64.011  1.00  0.00    -0.247 OA 
HETATM    7  H   UNL     2      -9.322  10.138  64.357  1.00  0.00     0.000 HD 
HETATM    8  O   UNL     1     -10.771   7.989  67.257  1.00  0.00    -0.300 OA 
ENDROOT
BRANCH   4   9
HETATM    9  C   UNL     2     -11.283  12.718  64.394  1.00  0.00    -0.347 C  
HETATM   10  O   UNL     2     -10.230  13.658  64.158  1.00  0.00    -0.718 OA 
HETATM   11  H   UNL     2     -10.603  14.461  63.812  1.00  0.00     0.000 HD 
ENDBRANCH   4   9
BRANCH   3  12
HETATM   12  C   UNL     1      -8.835   8.604  68.471  1.00  0.00    -0.142 A  
HETATM   13  C   UNL     1      -9.139   7.930  69.650  1.00  0.00    -0.153 A  
HETATM   14  C   UNL     1      -7.233   9.878  69.748  1.00  0.00    -0.118 A  
HETATM   15  C   UNL     1      -7.869   9.611  68.535  1.00  0.00    -0.085 A  
HETATM   16  C   UNL     1      -7.592   9.135  70.862  1.00  0.00    -0.124 A  
HETATM   17  N   UNL     1      -8.539   8.175  70.844  1.00  0.00    -0.130 NA 
ENDBRANCH   3  12
BRANCH   4  18
HETATM   18  C   UNL     2     -10.031  11.568  66.328  1.00  0.00    -0.220 C  
HETATM   19  O   UNL     2      -8.550  13.955  68.322  1.00  0.00    -0.167 OA 
HETATM   20  C   UNL     2      -9.275  13.152  67.768  1.00  0.00    -0.203 C  
HETATM   21  C   UNL     2     -10.909  11.635  67.516  1.00  0.00    -0.237 C  
HETATM   22  O   UNL     2     -10.895  12.737  69.661  1.00  0.00    -0.440 OA 
HETATM   23  O   UNL     2      -9.184  12.722  66.473  1.00  0.00    -0.233 OA 
HETATM   24  H   UNL     2     -11.645  12.319  70.067  1.00  0.00     0.000 HD 
HETATM   25  O   UNL     2     -11.985  10.812  67.677  1.00  0.00    -0.616 OA 
HETATM   26  C   UNL     2     -10.436  12.505  68.396  1.00  0.00    -0.240 C  
HETATM   27  H   UNL     2     -12.550  10.855  68.441  1.00  0.00     0.000 HD 
ENDBRANCH   4  18
TORSDOF 3
ENDMDL
MODEL       68
REMARK 921   NORMALIZED FREE ENERGY PREDICTED BY IDOCK:   -4.62 KCAL/MOL
REMARK 922        TOTAL FREE ENERGY PREDICTED BY IDOCK:   -6.55 KCAL/MOL
REMARK 923 INTER-LIGAND FREE ENERGY PREDICTED BY IDOCK:   -5.56 KCAL/MOL
REMARK 924 INTRA-LIGAND FREE ENERGY PREDICTED BY IDOCK:   -0.99 KCAL/MOL
REMARK 927      BINDING AFFINITY PREDICTED BY RF-SCORE:    0.00 PKD
ROOT
HETATM    1  N   UNL     1     -12.410  14.705  67.587  1.00  0.00    -0.554 N  
HETATM    2  H2  UNL     1     -12.533  15.696  67.382  1.00  0.00     0.000 HD 
HETATM    3  C   UNL     1     -11.978  14.309  68.822  1.00  0.00    -0.311 C  
HETATM    4  C   UNL     2      -8.908  16.135  66.823  1.00  0.00    -0.244 C  
HETATM    5  H1  UNL     1     -12.610  14.006  66.872  1.00  0.00     0.000 HD 
HETATM    6  O   UNL     2      -9.845  16.227  65.725  1.00  0.00    -0.380 OA 
HETATM    7  H   UNL     2     -10.678  15.869  66.010  1.00  0.00     0.000 HD 
HETATM    8  O   UNL     1     -11.738  15.149  69.682  1.00  0.00    -0.287 OA 
ENDROOT
BRANCH   4   9
HETATM    9  C   UNL     2      -7.568  16.710  66.365  1.00  0.00    -0.262 C  
HETATM   10  O   UNL     2      -7.791  17.989  65.764  1.00  0.00    -0.534 OA 
HETATM   11  H   UNL     2      -6.958  18.347  65.479  1.00  0.00     0.000 HD 
ENDBRANCH   4   9
BRANCH   3  12
HETATM   12  C   UNL     1     -11.747  12.864  69.067  1.00  0.00    -0.375 A  
HETATM   13  C   UNL     1     -12.079  12.348  70.316  1.00  0.00    -0.297 A  
HETATM   14  C   UNL     1     -11.036  10.639  68.466  1.00  0.00    -0.318 A  
HETATM   15  C   UNL     1     -11.199  11.983  68.131  1.00  0.00    -0.316 A  
HETATM   16  C   UNL     1     -11.418  10.219  69.730  1.00  0.00    -0.256 A  
HETATM   17  N   UNL     1     -11.925  11.046  70.667  1.00  0.00    -0.354 NA 
ENDBRANCH   3  12
BRANCH   4  18
HETATM   18  C   UNL     2      -8.849  14.682  67.304  1.00  0.00    -0.207 C  
HETATM   19  O   UNL     2      -6.937  11.843  66.915  1.00  0.00    -0.137 OA 
HETATM   20  C   UNL     2      -7.484  12.868  67.272  1.00  0.00    -0.085 C  
HETATM   21  C   UNL     2      -8.329  14.414  68.662  1.00  0.00    -0.147 C  
HETATM   22  O   UNL     2      -7.059  12.679  69.755  1.00  0.00    -0.319 OA 
HETATM   23  O   UNL     2      -8.069  13.807  66.469  1.00  0.00     0.348 OA 
HETATM   24  H   UNL     2      -7.127  12.967  70.657  1.00  0.00     0.000 HD 
HETATM   25  O   UNL     2      -8.683  15.167  69.743  1.00  0.00    -0.433 OA 
HETATM   26  C   UNL     2      -7.589  13.314  68.669  1.00  0.00    -0.094 C  
HETATM   27  H   UNL     2      -8.349  14.995  70.616  1.00  0.00     0.000 HD 
ENDBRANCH   4  18
TORSDOF 3
ENDMDL
MODEL       69
REMARK 921   NORMALIZED FREE ENERGY PREDICTED BY IDOCK:   -4.58 KCAL/MOL
REMARK 922        TOTAL FREE ENERGY PREDICTED BY IDOCK:   -6.50 KCAL/MOL
REMARK 923 INTER-LIGAND FREE ENERGY PREDICTED BY IDOCK:   -5.56 KCAL/MOL
REMARK 924 INTRA-LIGAND FREE ENERGY PREDICTED BY IDOCK:   -0.95 KCAL/MOL
REMARK 927      BINDING AFFINITY PREDICTED BY RF-SCORE:    0.00 PKD
ROOT
HETATM    1  N   UNL     1      -9.960   6.918  74.453  1.00  0.00    -0.461 N  
HETATM    2  H2  UNL     1     -10.484   7.537  75.070  1.00  0.00     0.000 HD 
HETATM    3  C   UNL     1      -8.817   7.361  73.846  1.00  0.00    -0.226 C  
HETATM    4  C   UNL     2     -12.054   9.245  72.195  1.00  0.00    -0.283 C  
HETATM    5  H1  UNL     1     -10.286   5.967  74.284  1.00  0.00     0.000 HD 
HETATM    6  O   UNL     2     -12.834   8.404  73.076  1.00  0.00    -0.706 OA 
HETATM    7  H   UNL     2     -12.237   7.883  73.601  1.00  0.00     0.000 HD 
HETATM    8  O   UNL     1      -8.424   8.505  74.048  1.00  0.00    -0.298 OA 
ENDROOT
BRANCH   4   9
HETATM    9  C   UNL     2     -13.014  10.082  71.351  1.00  0.00    -0.418 C  
HETATM   10  O   UNL     2     -13.969   9.214  70.733  1.00  0.00    -0.560 OA 
HETATM   11  H   UNL     2     -14.567   9.735  70.208  1.00  0.00     0.000 HD 
ENDBRANCH   4   9
BRANCH   3  12
HETATM   12  C   UNL     1      -8.114   6.457  72.903  1.00  0.00    -0.106 A  
HETATM   13  C   UNL     1      -7.820   5.166  73.327  1.00  0.00    -0.104 A  
HETATM   14  C   UNL     1      -7.063   5.884  70.808  1.00  0.00    -0.071 A  
HETATM   15  C   UNL     1      -7.709   6.821  71.616  1.00  0.00    -0.096 A  
HETATM   16  C   UNL     1      -6.836   4.615  71.317  1.00  0.00    -0.035 A  
HETATM   17  N   UNL     1      -7.188   4.238  72.563  1.00  0.00    -0.065 NA 
ENDBRANCH   3  12
BRANCH   4  18
HETATM   18  C   UNL     2     -11.095   8.365  71.389  1.00  0.00    -0.255 C  
HETATM   19  O   UNL     2     -11.156   5.912  68.971  1.00  0.00    -0.336 OA 
HETATM   20  C   UNL     2     -11.075   6.931  69.629  1.00  0.00    -0.258 C  
HETATM   21  C   UNL     2     -10.378   8.973  70.247  1.00  0.00    -0.209 C  
HETATM   22  O   UNL     2      -9.596   8.267  68.077  1.00  0.00    -0.148 OA 
HETATM   23  O   UNL     2     -11.698   7.190  70.818  1.00  0.00    -0.306 OA 
HETATM   24  H   UNL     2      -9.094   9.032  67.825  1.00  0.00     0.000 HD 
HETATM   25  O   UNL     2      -9.806  10.209  70.317  1.00  0.00    -0.396 OA 
HETATM   26  C   UNL     2     -10.297   8.116  69.239  1.00  0.00    -0.217 C  
HETATM   27  H   UNL     2      -9.345  10.599  69.582  1.00  0.00     0.000 HD 
ENDBRANCH   4  18
TORSDOF 3
ENDMDL
MODEL       70
REMARK 921   NORMALIZED FREE ENERGY PREDICTED BY IDOCK:   -4.58 KCAL/MOL
REMARK 922        TOTAL FREE ENERGY PREDICTED BY IDOCK:   -6.50 KCAL/MOL
REMARK 923 INTER-LIGAND FREE ENERGY PREDICTED BY IDOCK:   -5.28 KCAL/MOL
REMARK 924 INTRA-LIGAND FREE ENERGY PREDICTED BY IDOCK:   -1.22 KCAL/MOL
REMARK 927      BINDING AFFINITY PREDICTED BY RF-SCORE:    0.00 PKD
ROOT
HETATM    1  N   UNL     1      -9.597   7.777  73.424  1.00  0.00    -0.285 N  
HETATM    2  H2  UNL     1      -9.059   7.046  73.890  1.00  0.00     0.000 HD 
HETATM    3  C   UNL     1     -10.809   7.484  72.863  1.00  0.00    -0.373 C  
HETATM    4  C   UNL     2      -7.830   5.748  70.657  1.00  0.00    -0.101 C  
HETATM    5  H1  UNL     1      -9.233   8.728  73.376  1.00  0.00     0.000 HD 
HETATM    6  O   UNL     2      -6.934   6.407  71.583  1.00  0.00    -0.069 OA 
HETATM    7  H   UNL     2      -7.455   6.863  72.233  1.00  0.00     0.000 HD 
HETATM    8  O   UNL     1     -11.247   6.341  72.921  1.00  0.00    -0.251 OA 
ENDROOT
BRANCH   4   9
HETATM    9  C   UNL     2      -6.991   5.015  69.611  1.00  0.00    -0.054 C  
HETATM   10  O   UNL     2      -6.073   5.939  69.019  1.00  0.00    -0.028 OA 
HETATM   11  H   UNL     2      -5.551   5.483  68.368  1.00  0.00     0.000 HD 
ENDBRANCH   4   9
BRANCH   3  12
HETATM   12  C   UNL     1     -11.535   8.554  72.136  1.00  0.00    -0.446 A  
HETATM   13  C   UNL     1     -12.911   8.653  72.317  1.00  0.00    -0.381 A  
HETATM   14  C   UNL     1     -11.713  10.439  70.641  1.00  0.00    -0.444 A  
HETATM   15  C   UNL     1     -10.933   9.464  71.264  1.00  0.00    -0.440 A  
HETATM   16  C   UNL     1     -13.073  10.467  70.904  1.00  0.00    -0.330 A  
HETATM   17  N   UNL     1     -13.693   9.589  71.718  1.00  0.00    -0.342 NA 
ENDBRANCH   3  12
BRANCH   4  18
HETATM   18  C   UNL     2      -8.801   6.785  70.086  1.00  0.00    -0.141 C  
HETATM   19  O   UNL     2      -9.197   8.794  67.315  1.00  0.00    -0.136 OA 
HETATM   20  C   UNL     2      -9.229   7.936  68.176  1.00  0.00    -0.136 C  
HETATM   21  C   UNL     2     -10.059   6.304  69.473  1.00  0.00    -0.176 C  
HETATM   22  O   UNL     2     -11.500   6.961  67.654  1.00  0.00    -0.585 OA 
HETATM   23  O   UNL     2      -8.239   7.635  69.070  1.00  0.00    -0.124 OA 
HETATM   24  H   UNL     2     -12.228   6.368  67.797  1.00  0.00     0.000 HD 
HETATM   25  O   UNL     2     -10.823   5.327  70.043  1.00  0.00    -0.245 OA 
HETATM   26  C   UNL     2     -10.356   7.018  68.397  1.00  0.00    -0.193 C  
HETATM   27  H   UNL     2     -11.631   5.018  69.649  1.00  0.00     0.000 HD 
ENDBRANCH   4  18
TORSDOF 3
ENDMDL
MODEL       71
REMARK 921   NORMALIZED FREE ENERGY PREDICTED BY IDOCK:   -4.57 KCAL/MOL
REMARK 922        TOTAL FREE ENERGY PREDICTED BY IDOCK:   -6.48 KCAL/MOL
REMARK 923 INTER-LIGAND FREE ENERGY PREDICTED BY IDOCK:   -5.28 KCAL/MOL
REMARK 924 INTRA-LIGAND FREE ENERGY PREDICTED BY IDOCK:   -1.20 KCAL/MOL
REMARK 927      BINDING AFFINITY PREDICTED BY RF-SCORE:    0.00 PKD
ROOT
HETATM    1  N   UNL     1      -6.754  10.752  64.777  1.00  0.00    -0.354 N  
HETATM    2  H2  UNL     1      -6.947  10.293  63.888  1.00  0.00     0.000 HD 
HETATM    3  C   UNL     1      -7.133  10.161  65.951  1.00  0.00    -0.121 C  
HETATM    4  C   UNL     2     -10.456  11.446  63.937  1.00  0.00    -0.387 C  
HETATM    5  H1  UNL     1      -6.278  11.654  64.795  1.00  0.00     0.000 HD 
HETATM    6  O   UNL     2      -9.514  11.975  62.975  1.00  0.00    -0.610 OA 
HETATM    7  H   UNL     2      -8.636  11.742  63.254  1.00  0.00     0.000 HD 
HETATM    8  O   UNL     1      -7.705   9.077  65.930  1.00  0.00    -0.092 OA 
ENDROOT
BRANCH   4   9
HETATM    9  C   UNL     2     -11.868  11.822  63.488  1.00  0.00    -0.378 C  
HETATM   10  O   UNL     2     -11.887  13.205  63.119  1.00  0.00    -0.800 OA 
HETATM   11  H   UNL     2     -12.765  13.438  62.839  1.00  0.00     0.000 HD 
ENDBRANCH   4   9
BRANCH   3  12
HETATM   12  C   UNL     1      -6.895  10.886  67.223  1.00  0.00    -0.084 A  
HETATM   13  C   UNL     1      -6.527  10.146  68.342  1.00  0.00    -0.053 A  
HETATM   14  C   UNL     1      -6.775  12.846  68.624  1.00  0.00    -0.095 A  
HETATM   15  C   UNL     1      -7.035  12.267  67.382  1.00  0.00    -0.151 A  
HETATM   16  C   UNL     1      -6.392  12.024  69.672  1.00  0.00    -0.120 A  
HETATM   17  N   UNL     1      -6.274  10.685  69.563  1.00  0.00    -0.051 NA 
ENDBRANCH   3  12
BRANCH   4  18
HETATM   18  C   UNL     2     -10.074  11.950  65.332  1.00  0.00    -0.253 C  
HETATM   19  O   UNL     2     -10.818  14.507  67.517  1.00  0.00    -0.278 OA 
HETATM   20  C   UNL     2     -10.711  13.468  66.895  1.00  0.00    -0.274 C  
HETATM   21  C   UNL     2     -10.648  11.259  66.508  1.00  0.00    -0.266 C  
HETATM   22  O   UNL     2     -11.375  11.861  68.727  1.00  0.00    -0.227 OA 
HETATM   23  O   UNL     2     -10.384  13.334  65.574  1.00  0.00    -0.281 OA 
HETATM   24  H   UNL     2     -11.533  10.997  69.090  1.00  0.00     0.000 HD 
HETATM   25  O   UNL     2     -10.724   9.899  66.592  1.00  0.00    -0.150 OA 
HETATM   26  C   UNL     2     -10.956  12.131  67.456  1.00  0.00    -0.257 C  
HETATM   27  H   UNL     2     -11.092   9.455  67.347  1.00  0.00     0.000 HD 
ENDBRANCH   4  18
TORSDOF 3
ENDMDL
MODEL       72
REMARK 921   NORMALIZED FREE ENERGY PREDICTED BY IDOCK:   -4.49 KCAL/MOL
REMARK 922        TOTAL FREE ENERGY PREDICTED BY IDOCK:   -6.39 KCAL/MOL
REMARK 923 INTER-LIGAND FREE ENERGY PREDICTED BY IDOCK:   -5.27 KCAL/MOL
REMARK 924 INTRA-LIGAND FREE ENERGY PREDICTED BY IDOCK:   -1.12 KCAL/MOL
REMARK 927      BINDING AFFINITY PREDICTED BY RF-SCORE:    0.00 PKD
ROOT
HETATM    1  N   UNL     1     -11.227   6.132  67.043  1.00  0.00    -0.592 N  
HETATM    2  H2  UNL     1     -11.495   5.297  67.563  1.00  0.00     0.000 HD 
HETATM    3  C   UNL     1      -9.916   6.521  66.998  1.00  0.00    -0.166 C  
HETATM    4  C   UNL     2     -11.392   7.134  70.767  1.00  0.00    -0.289 C  
HETATM    5  H1  UNL     1     -11.934   6.681  66.555  1.00  0.00     0.000 HD 
HETATM    6  O   UNL     2     -12.648   6.676  70.213  1.00  0.00    -0.438 OA 
HETATM    7  H   UNL     2     -12.506   6.437  69.304  1.00  0.00     0.000 HD 
HETATM    8  O   UNL     1      -9.065   5.861  67.585  1.00  0.00    -0.109 OA 
ENDROOT
BRANCH   4   9
HETATM    9  C   UNL     2     -11.620   7.519  72.228  1.00  0.00    -0.310 C  
HETATM   10  O   UNL     2     -12.902   8.142  72.351  1.00  0.00    -0.517 OA 
HETATM   11  H   UNL     2     -13.044   8.382  73.260  1.00  0.00     0.000 HD 
ENDBRANCH   4   9
BRANCH   3  12
HETATM   12  C   UNL     1      -9.569   7.776  66.288  1.00  0.00    -0.179 A  
HETATM   13  C   UNL     1      -8.524   7.743  65.370  1.00  0.00    -0.110 A  
HETATM   14  C   UNL     1      -9.806  10.117  65.759  1.00  0.00    -0.331 A  
HETATM   15  C   UNL     1     -10.209   9.001  66.492  1.00  0.00    -0.318 A  
HETATM   16  C   UNL     1      -8.768   9.976  64.852  1.00  0.00    -0.182 A  
HETATM   17  N   UNL     1      -8.109   8.817  64.649  1.00  0.00    -0.149 NA 
ENDBRANCH   3  12
BRANCH   4  18
HETATM   18  C   UNL     2     -10.844   8.261  69.887  1.00  0.00    -0.213 C  
HETATM   19  O   UNL     2     -10.868  11.700  69.674  1.00  0.00    -0.106 OA 
HETATM   20  C   UNL     2     -10.627  10.520  69.848  1.00  0.00    -0.211 C  
HETATM   21  C   UNL     2      -9.421   8.637  70.035  1.00  0.00    -0.166 C  
HETATM   22  O   UNL     2      -8.105  10.653  69.890  1.00  0.00    -0.365 OA 
HETATM   23  O   UNL     2     -11.537   9.515  70.021  1.00  0.00    -0.177 OA 
HETATM   24  H   UNL     2      -7.231  10.285  69.950  1.00  0.00     0.000 HD 
HETATM   25  O   UNL     2      -8.427   7.709  70.142  1.00  0.00    -0.134 OA 
HETATM   26  C   UNL     2      -9.275   9.951  69.940  1.00  0.00    -0.212 C  
HETATM   27  H   UNL     2      -7.513   7.951  70.237  1.00  0.00     0.000 HD 
ENDBRANCH   4  18
TORSDOF 3
ENDMDL
MODEL       73
REMARK 921   NORMALIZED FREE ENERGY PREDICTED BY IDOCK:   -4.47 KCAL/MOL
REMARK 922        TOTAL FREE ENERGY PREDICTED BY IDOCK:   -6.37 KCAL/MOL
REMARK 923 INTER-LIGAND FREE ENERGY PREDICTED BY IDOCK:   -5.36 KCAL/MOL
REMARK 924 INTRA-LIGAND FREE ENERGY PREDICTED BY IDOCK:   -1.01 KCAL/MOL
REMARK 927      BINDING AFFINITY PREDICTED BY RF-SCORE:    0.00 PKD
ROOT
HETATM    1  N   UNL     1     -11.923  12.091  68.275  1.00  0.00    -0.279 N  
HETATM    2  H2  UNL     1     -12.674  11.407  68.357  1.00  0.00     0.000 HD 
HETATM    3  C   UNL     1     -11.635  12.652  67.062  1.00  0.00    -0.365 C  
HETATM    4  C   UNL     2     -10.508   8.717  67.045  1.00  0.00    -0.268 C  
HETATM    5  H1  UNL     1     -11.383  12.358  69.098  1.00  0.00     0.000 HD 
HETATM    6  O   UNL     2     -10.935   8.720  68.427  1.00  0.00    -0.450 OA 
HETATM    7  H   UNL     2     -11.282   9.580  68.634  1.00  0.00     0.000 HD 
HETATM    8  O   UNL     1     -12.284  12.331  66.073  1.00  0.00    -0.646 OA 
ENDROOT
BRANCH   4   9
HETATM    9  C   UNL     2      -9.950   7.334  66.714  1.00  0.00    -0.217 C  
HETATM   10  O   UNL     2      -8.808   7.082  67.539  1.00  0.00    -0.120 OA 
HETATM   11  H   UNL     2      -8.461   6.222  67.334  1.00  0.00     0.000 HD 
ENDBRANCH   4   9
BRANCH   3  12
HETATM   12  C   UNL     1     -10.493  13.594  66.966  1.00  0.00    -0.270 A  
HETATM   13  C   UNL     1      -9.416  13.411  67.828  1.00  0.00    -0.210 A  
HETATM   14  C   UNL     1      -9.300  15.488  66.066  1.00  0.00    -0.379 A  
HETATM   15  C   UNL     1     -10.431  14.671  66.077  1.00  0.00    -0.313 A  
HETATM   16  C   UNL     1      -8.271  15.209  66.950  1.00  0.00    -0.199 A  
HETATM   17  N   UNL     1      -8.308  14.196  67.840  1.00  0.00    -0.149 NA 
ENDBRANCH   3  12
BRANCH   4  18
HETATM   18  C   UNL     2      -9.526   9.872  66.827  1.00  0.00    -0.169 C  
HETATM   19  O   UNL     2      -6.247  10.711  67.468  1.00  0.00    -0.055 OA 
HETATM   20  C   UNL     2      -7.318  10.366  67.007  1.00  0.00    -0.097 C  
HETATM   21  C   UNL     2      -8.933  10.043  65.483  1.00  0.00    -0.174 C  
HETATM   22  O   UNL     2      -6.829  10.784  64.564  1.00  0.00    -0.352 OA 
HETATM   23  O   UNL     2      -8.381   9.855  67.698  1.00  0.00    -0.114 OA 
HETATM   24  H   UNL     2      -7.051  10.808  63.641  1.00  0.00     0.000 HD 
HETATM   25  O   UNL     2      -9.670   9.938  64.340  1.00  0.00    -0.388 OA 
HETATM   26  C   UNL     2      -7.661  10.403  65.578  1.00  0.00    -0.144 C  
HETATM   27  H   UNL     2      -9.288  10.049  63.476  1.00  0.00     0.000 HD 
ENDBRANCH   4  18
TORSDOF 3
ENDMDL
MODEL       74
REMARK 921   NORMALIZED FREE ENERGY PREDICTED BY IDOCK:   -4.47 KCAL/MOL
REMARK 922        TOTAL FREE ENERGY PREDICTED BY IDOCK:   -6.37 KCAL/MOL
REMARK 923 INTER-LIGAND FREE ENERGY PREDICTED BY IDOCK:   -5.67 KCAL/MOL
REMARK 924 INTRA-LIGAND FREE ENERGY PREDICTED BY IDOCK:   -0.70 KCAL/MOL
REMARK 927      BINDING AFFINITY PREDICTED BY RF-SCORE:    0.00 PKD
ROOT
HETATM    1  N   UNL     1     -10.567   8.366  69.390  1.00  0.00    -0.276 N  
HETATM    2  H2  UNL     1     -10.993   7.953  70.220  1.00  0.00     0.000 HD 
HETATM    3  C   UNL     1      -9.441   9.133  69.507  1.00  0.00    -0.168 C  
HETATM    4  C   UNL     2     -12.632  11.146  71.094  1.00  0.00    -0.409 C  
HETATM    5  H1  UNL     1     -10.980   8.208  68.471  1.00  0.00     0.000 HD 
HETATM    6  O   UNL     2     -13.409  10.009  70.650  1.00  0.00    -0.602 OA 
HETATM    7  H   UNL     2     -12.818   9.374  70.262  1.00  0.00     0.000 HD 
HETATM    8  O   UNL     1      -8.945   9.322  70.611  1.00  0.00    -0.218 OA 
ENDROOT
BRANCH   4   9
HETATM    9  C   UNL     2     -13.582  12.167  71.717  1.00  0.00     0.055 C  
HETATM   10  O   UNL     2     -12.958  12.743  72.869  1.00  0.00    -0.103 OA 
HETATM   11  H   UNL     2     -13.549  13.378  73.257  1.00  0.00     0.000 HD 
ENDBRANCH   4   9
BRANCH   3  12
HETATM   12  C   UNL     1      -8.885   9.772  68.289  1.00  0.00    -0.119 A  
HETATM   13  C   UNL     1      -8.602   8.962  67.194  1.00  0.00    -0.110 A  
HETATM   14  C   UNL     1      -8.095  11.632  66.972  1.00  0.00    -0.164 A  
HETATM   15  C   UNL     1      -8.607  11.136  68.171  1.00  0.00    -0.140 A  
HETATM   16  C   UNL     1      -7.868  10.746  65.932  1.00  0.00    -0.131 A  
HETATM   17  N   UNL     1      -8.098   9.420  66.018  1.00  0.00    -0.110 NA 
ENDBRANCH   3  12
BRANCH   4  18
HETATM   18  C   UNL     2     -11.809  11.674  69.916  1.00  0.00    -0.358 C  
HETATM   19  O   UNL     2     -11.985  11.971  66.488  1.00  0.00    -0.616 OA 
HETATM   20  C   UNL     2     -11.988  12.113  67.696  1.00  0.00    -0.120 C  
HETATM   21  C   UNL     2     -11.777  13.134  69.682  1.00  0.00    -0.303 C  
HETATM   22  O   UNL     2     -11.656  14.615  67.783  1.00  0.00    -0.330 OA 
HETATM   23  O   UNL     2     -12.187  11.139  68.635  1.00  0.00    -0.582 OA 
HETATM   24  H   UNL     2     -11.540  15.446  68.227  1.00  0.00     0.000 HD 
HETATM   25  O   UNL     2     -11.627  14.034  70.697  1.00  0.00    -0.497 OA 
HETATM   26  C   UNL     2     -11.808  13.399  68.384  1.00  0.00    -0.366 C  
HETATM   27  H   UNL     2     -11.606  14.973  70.546  1.00  0.00     0.000 HD 
ENDBRANCH   4  18
TORSDOF 3
ENDMDL
MODEL       75
REMARK 921   NORMALIZED FREE ENERGY PREDICTED BY IDOCK:   -4.45 KCAL/MOL
REMARK 922        TOTAL FREE ENERGY PREDICTED BY IDOCK:   -6.35 KCAL/MOL
REMARK 923 INTER-LIGAND FREE ENERGY PREDICTED BY IDOCK:   -5.89 KCAL/MOL
REMARK 924 INTRA-LIGAND FREE ENERGY PREDICTED BY IDOCK:   -0.46 KCAL/MOL
REMARK 927      BINDING AFFINITY PREDICTED BY RF-SCORE:    0.00 PKD
ROOT
HETATM    1  N   UNL     1     -10.793   8.803  68.074  1.00  0.00    -0.476 N  
HETATM    2  H2  UNL     1     -11.698   9.118  67.726  1.00  0.00     0.000 HD 
HETATM    3  C   UNL     1     -10.519   7.466  68.158  1.00  0.00    -0.193 C  
HETATM    4  C   UNL     2     -13.297   8.468  70.992  1.00  0.00     0.131 C  
HETATM    5  H1  UNL     1     -10.090   9.483  68.361  1.00  0.00     0.000 HD 
HETATM    6  O   UNL     2     -13.117   9.820  70.509  1.00  0.00    -0.570 OA 
HETATM    7  H   UNL     2     -12.502   9.801  69.785  1.00  0.00     0.000 HD 
HETATM    8  O   UNL     1     -11.364   6.648  67.813  1.00  0.00    -0.227 OA 
ENDROOT
BRANCH   4   9
HETATM    9  C   UNL     2     -14.286   8.498  72.156  1.00  0.00    -0.436 C  
HETATM   10  O   UNL     2     -13.664   9.128  73.280  1.00  0.00    -1.031 OA 
HETATM   11  H   UNL     2     -14.280   9.148  74.004  1.00  0.00     0.000 HD 
ENDBRANCH   4   9
BRANCH   3  12
HETATM   12  C   UNL     1      -9.218   7.040  68.731  1.00  0.00    -0.132 A  
HETATM   13  C   UNL     1      -9.193   5.899  69.527  1.00  0.00    -0.135 A  
HETATM   14  C   UNL     1      -6.844   7.222  69.119  1.00  0.00    -0.061 A  
HETATM   15  C   UNL     1      -8.012   7.720  68.540  1.00  0.00    -0.122 A  
HETATM   16  C   UNL     1      -6.921   6.065  69.877  1.00  0.00    -0.070 A  
HETATM   17  N   UNL     1      -8.071   5.398  70.105  1.00  0.00    -0.087 NA 
ENDBRANCH   3  12
BRANCH   4  18
HETATM   18  C   UNL     2     -11.926   7.877  71.334  1.00  0.00    -0.303 C  
HETATM   19  O   UNL     2      -9.029   8.709  73.003  1.00  0.00    -0.326 OA 
HETATM   20  C   UNL     2     -10.104   8.282  72.625  1.00  0.00    -0.295 C  
HETATM   21  C   UNL     2     -11.844   6.881  72.424  1.00  0.00    -0.177 C  
HETATM   22  O   UNL     2     -10.261   6.263  74.135  1.00  0.00    -0.274 OA 
HETATM   23  O   UNL     2     -10.929   8.850  71.694  1.00  0.00    -0.292 OA 
HETATM   24  H   UNL     2     -10.675   5.476  74.468  1.00  0.00     0.000 HD 
HETATM   25  O   UNL     2     -12.749   5.869  72.559  1.00  0.00    -0.487 OA 
HETATM   26  C   UNL     2     -10.745   7.064  73.141  1.00  0.00    -0.326 C  
HETATM   27  H   UNL     2     -12.696   5.228  73.260  1.00  0.00     0.000 HD 
ENDBRANCH   4  18
TORSDOF 3
ENDMDL
MODEL       76
REMARK 921   NORMALIZED FREE ENERGY PREDICTED BY IDOCK:   -4.43 KCAL/MOL
REMARK 922        TOTAL FREE ENERGY PREDICTED BY IDOCK:   -6.32 KCAL/MOL
REMARK 923 INTER-LIGAND FREE ENERGY PREDICTED BY IDOCK:   -5.15 KCAL/MOL
REMARK 924 INTRA-LIGAND FREE ENERGY PREDICTED BY IDOCK:   -1.17 KCAL/MOL
REMARK 927      BINDING AFFINITY PREDICTED BY RF-SCORE:    0.00 PKD
ROOT
HETATM    1  N   UNL     1      -9.047   8.623  72.165  1.00  0.00    -0.252 N  
HETATM    2  H2  UNL     1      -9.114   8.061  73.013  1.00  0.00     0.000 HD 
HETATM    3  C   UNL     1     -10.179   8.970  71.480  1.00  0.00    -0.344 C  
HETATM    4  C   UNL     2      -9.497   4.957  71.046  1.00  0.00    -0.164 C  
HETATM    5  H1  UNL     1      -8.136   8.930  71.825  1.00  0.00     0.000 HD 
HETATM    6  O   UNL     2      -8.297   5.206  71.816  1.00  0.00    -0.114 OA 
HETATM    7  H   UNL     2      -8.282   6.124  72.059  1.00  0.00     0.000 HD 
HETATM    8  O   UNL     1     -11.274   8.602  71.888  1.00  0.00    -0.296 OA 
ENDROOT
BRANCH   4   9
HETATM    9  C   UNL     2      -9.522   3.481  70.653  1.00  0.00    -0.173 C  
HETATM   10  O   UNL     2      -8.178   3.025  70.470  1.00  0.00    -0.045 OA 
HETATM   11  H   UNL     2      -8.193   2.106  70.226  1.00  0.00     0.000 HD 
ENDBRANCH   4   9
BRANCH   3  12
HETATM   12  C   UNL     1     -10.041   9.733  70.215  1.00  0.00    -0.323 A  
HETATM   13  C   UNL     1      -8.895   9.535  69.451  1.00  0.00    -0.170 A  
HETATM   14  C   UNL     1     -10.750  11.310  68.533  1.00  0.00    -0.235 A  
HETATM   15  C   UNL     1     -10.978  10.656  69.744  1.00  0.00    -0.340 A  
HETATM   16  C   UNL     1      -9.587  11.027  67.836  1.00  0.00    -0.172 A  
HETATM   17  N   UNL     1      -8.647  10.164  68.273  1.00  0.00    -0.114 NA 
ENDBRANCH   3  12
BRANCH   4  18
HETATM   18  C   UNL     2      -9.540   5.933  69.867  1.00  0.00    -0.158 C  
HETATM   19  O   UNL     2      -8.791   6.055  66.506  1.00  0.00    -0.123 OA 
HETATM   20  C   UNL     2      -9.296   5.984  67.610  1.00  0.00    -0.112 C  
HETATM   21  C   UNL     2     -10.845   6.193  69.220  1.00  0.00    -0.351 C  
HETATM   22  O   UNL     2     -11.648   6.667  66.996  1.00  0.00    -0.727 OA 
HETATM   23  O   UNL     2      -8.686   5.577  68.765  1.00  0.00    -0.102 OA 
HETATM   24  H   UNL     2     -12.556   6.870  67.187  1.00  0.00     0.000 HD 
HETATM   25  O   UNL     2     -11.988   6.397  69.936  1.00  0.00    -0.535 OA 
HETATM   26  C   UNL     2     -10.701   6.297  67.906  1.00  0.00    -0.305 C  
HETATM   27  H   UNL     2     -12.826   6.565  69.520  1.00  0.00     0.000 HD 
ENDBRANCH   4  18
TORSDOF 3
ENDMDL
MODEL       77
REMARK 921   NORMALIZED FREE ENERGY PREDICTED BY IDOCK:   -4.41 KCAL/MOL
REMARK 922        TOTAL FREE ENERGY PREDICTED BY IDOCK:   -6.30 KCAL/MOL
REMARK 923 INTER-LIGAND FREE ENERGY PREDICTED BY IDOCK:   -6.31 KCAL/MOL
REMARK 924 INTRA-LIGAND FREE ENERGY PREDICTED BY IDOCK:    0.01 KCAL/MOL
REMARK 927      BINDING AFFINITY PREDICTED BY RF-SCORE:    0.00 PKD
ROOT
HETATM    1  N   UNL     1     -11.366  10.272  67.753  1.00  0.00    -0.446 N  
HETATM    2  H2  UNL     1     -10.774   9.912  67.005  1.00  0.00     0.000 HD 
HETATM    3  C   UNL     1     -10.801  10.775  68.893  1.00  0.00    -0.227 C  
HETATM    4  C   UNL     2     -10.288   6.716  68.792  1.00  0.00    -0.194 C  
HETATM    5  H1  UNL     1     -12.381  10.260  67.654  1.00  0.00     0.000 HD 
HETATM    6  O   UNL     2     -11.064   6.774  67.573  1.00  0.00    -0.482 OA 
HETATM    7  H   UNL     2     -11.267   7.684  67.389  1.00  0.00     0.000 HD 
HETATM    8  O   UNL     1      -9.581  10.791  69.012  1.00  0.00    -0.197 OA 
ENDROOT
BRANCH   4   9
HETATM    9  C   UNL     2      -9.963   5.252  69.088  1.00  0.00    -0.205 C  
HETATM   10  O   UNL     2      -9.588   4.602  67.869  1.00  0.00    -0.145 OA 
HETATM   11  H   UNL     2      -9.385   3.692  68.053  1.00  0.00     0.000 HD 
ENDBRANCH   4   9
BRANCH   3  12
HETATM   12  C   UNL     1     -11.691  11.231  69.988  1.00  0.00    -0.428 A  
HETATM   13  C   UNL     1     -12.313  10.266  70.773  1.00  0.00    -0.350 A  
HETATM   14  C   UNL     1     -12.811  12.886  71.339  1.00  0.00    -0.377 A  
HETATM   15  C   UNL     1     -11.965  12.571  70.276  1.00  0.00    -0.364 A  
HETATM   16  C   UNL     1     -13.365  11.851  72.075  1.00  0.00    -0.320 A  
HETATM   17  N   UNL     1     -13.145  10.547  71.809  1.00  0.00    -0.460 NA 
ENDBRANCH   3  12
BRANCH   4  18
HETATM   18  C   UNL     2     -11.056   7.436  69.903  1.00  0.00    -0.190 C  
HETATM   19  O   UNL     2     -13.719   6.937  72.032  1.00  0.00    -0.211 OA 
HETATM   20  C   UNL     2     -12.638   7.056  71.486  1.00  0.00    -0.385 C  
HETATM   21  C   UNL     2     -10.450   7.492  71.252  1.00  0.00    -0.207 C  
HETATM   22  O   UNL     2     -11.223   7.475  73.536  1.00  0.00    -0.603 OA 
HETATM   23  O   UNL     2     -12.376   6.919  70.152  1.00  0.00    -0.119 OA 
HETATM   24  H   UNL     2     -10.409   7.661  73.988  1.00  0.00     0.000 HD 
HETATM   25  O   UNL     2      -9.129   7.770  71.449  1.00  0.00    -0.131 OA 
HETATM   26  C   UNL     2     -11.378   7.344  72.186  1.00  0.00    -0.271 C  
HETATM   27  H   UNL     2      -8.740   7.806  72.315  1.00  0.00     0.000 HD 
ENDBRANCH   4  18
TORSDOF 3
ENDMDL
MODEL       78
REMARK 921   NORMALIZED FREE ENERGY PREDICTED BY IDOCK:   -4.36 KCAL/MOL
REMARK 922        TOTAL FREE ENERGY PREDICTED BY IDOCK:   -6.24 KCAL/MOL
REMARK 923 INTER-LIGAND FREE ENERGY PREDICTED BY IDOCK:   -5.75 KCAL/MOL
REMARK 924 INTRA-LIGAND FREE ENERGY PREDICTED BY IDOCK:   -0.49 KCAL/MOL
REMARK 927      BINDING AFFINITY PREDICTED BY RF-SCORE:    0.00 PKD
ROOT
HETATM    1  N   UNL     1     -13.412   8.678  71.015  1.00  0.00    -0.529 N  
HETATM    2  H2  UNL     1     -14.044   9.444  70.784  1.00  0.00     0.000 HD 
HETATM    3  C   UNL     1     -12.592   8.770  72.106  1.00  0.00    -0.399 C  
HETATM    4  C   UNL     2     -11.309  11.365  69.212  1.00  0.00    -0.289 C  
HETATM    5  H1  UNL     1     -13.388   7.841  70.433  1.00  0.00     0.000 HD 
HETATM    6  O   UNL     2     -12.378  10.806  68.414  1.00  0.00    -0.813 OA 
HETATM    7  H   UNL     2     -12.848  10.171  68.943  1.00  0.00     0.000 HD 
HETATM    8  O   UNL     1     -12.621   9.776  72.805  1.00  0.00     0.116 OA 
ENDROOT
BRANCH   4   9
HETATM    9  C   UNL     2     -10.553  12.385  68.361  1.00  0.00    -0.236 C  
HETATM   10  O   UNL     2     -10.329  13.566  69.138  1.00  0.00    -0.429 OA 
HETATM   11  H   UNL     2      -9.859  14.200  68.610  1.00  0.00     0.000 HD 
ENDBRANCH   4   9
BRANCH   3  12
HETATM   12  C   UNL     1     -11.638   7.667  72.375  1.00  0.00    -0.386 A  
HETATM   13  C   UNL     1     -11.973   6.389  71.942  1.00  0.00    -0.329 A  
HETATM   14  C   UNL     1      -9.600   6.712  73.243  1.00  0.00    -0.175 A  
HETATM   15  C   UNL     1     -10.427   7.820  73.055  1.00  0.00    -0.432 A  
HETATM   16  C   UNL     1     -10.015   5.484  72.754  1.00  0.00    -0.170 A  
HETATM   17  N   UNL     1     -11.189   5.294  72.117  1.00  0.00    -0.132 NA 
ENDBRANCH   3  12
BRANCH   4  18
HETATM   18  C   UNL     2     -10.447  10.223  69.756  1.00  0.00    -0.259 C  
HETATM   19  O   UNL     2      -9.842   6.875  69.213  1.00  0.00    -0.155 OA 
HETATM   20  C   UNL     2      -9.838   8.090  69.275  1.00  0.00    -0.178 C  
HETATM   21  C   UNL     2      -9.020  10.176  69.369  1.00  0.00    -0.191 C  
HETATM   22  O   UNL     2      -7.368   8.478  68.919  1.00  0.00    -0.082 OA 
HETATM   23  O   UNL     2     -10.924   8.906  69.430  1.00  0.00    -0.173 OA 
HETATM   24  H   UNL     2      -6.591   9.018  68.843  1.00  0.00     0.000 HD 
HETATM   25  O   UNL     2      -8.229  11.289  69.355  1.00  0.00    -0.376 OA 
HETATM   26  C   UNL     2      -8.635   8.926  69.157  1.00  0.00    -0.134 C  
HETATM   27  H   UNL     2      -7.312  11.258  69.107  1.00  0.00     0.000 HD 
ENDBRANCH   4  18
TORSDOF 3
ENDMDL
MODEL       79
REMARK 921   NORMALIZED FREE ENERGY PREDICTED BY IDOCK:   -4.36 KCAL/MOL
REMARK 922        TOTAL FREE ENERGY PREDICTED BY IDOCK:   -6.24 KCAL/MOL
REMARK 923 INTER-LIGAND FREE ENERGY PREDICTED BY IDOCK:   -5.02 KCAL/MOL
REMARK 924 INTRA-LIGAND FREE ENERGY PREDICTED BY IDOCK:   -1.21 KCAL/MOL
REMARK 927      BINDING AFFINITY PREDICTED BY RF-SCORE:    0.00 PKD
ROOT
HETATM    1  N   UNL     1     -11.342   6.961  67.473  1.00  0.00    -0.650 N  
HETATM    2  H2  UNL     1     -12.301   7.298  67.399  1.00  0.00     0.000 HD 
HETATM    3  C   UNL     1     -10.922   6.330  68.611  1.00  0.00    -0.346 C  
HETATM    4  C   UNL     2     -11.508  10.304  69.395  1.00  0.00    -0.186 C  
HETATM    5  H1  UNL     1     -10.691   7.094  66.699  1.00  0.00     0.000 HD 
HETATM    6  O   UNL     2     -11.813  10.408  67.985  1.00  0.00    -0.746 OA 
HETATM    7  H   UNL     2     -11.764   9.540  67.602  1.00  0.00     0.000 HD 
HETATM    8  O   UNL     1     -11.702   6.169  69.542  1.00  0.00    -0.298 OA 
ENDROOT
BRANCH   4   9
HETATM    9  C   UNL     2     -11.585  11.701  70.010  1.00  0.00    -0.255 C  
HETATM   10  O   UNL     2     -10.696  12.571  69.304  1.00  0.00    -0.432 OA 
HETATM   11  H   UNL     2     -10.744  13.440  69.686  1.00  0.00     0.000 HD 
ENDBRANCH   4   9
BRANCH   3  12
HETATM   12  C   UNL     1      -9.502   5.911  68.711  1.00  0.00    -0.143 A  
HETATM   13  C   UNL     1      -9.219   4.693  69.322  1.00  0.00    -0.127 A  
HETATM   14  C   UNL     1      -7.126   6.169  68.386  1.00  0.00    -0.082 A  
HETATM   15  C   UNL     1      -8.422   6.667  68.249  1.00  0.00    -0.120 A  
HETATM   16  C   UNL     1      -6.950   4.934  68.990  1.00  0.00    -0.052 A  
HETATM   17  N   UNL     1      -7.966   4.190  69.472  1.00  0.00    -0.056 NA 
ENDBRANCH   3  12
BRANCH   4  18
HETATM   18  C   UNL     2     -10.154   9.608  69.559  1.00  0.00    -0.209 C  
HETATM   19  O   UNL     2      -6.822  10.371  69.995  1.00  0.00    -0.125 OA 
HETATM   20  C   UNL     2      -7.993  10.056  70.092  1.00  0.00    -0.101 C  
HETATM   21  C   UNL     2      -9.823   9.020  70.876  1.00  0.00    -0.264 C  
HETATM   22  O   UNL     2      -7.845   8.701  72.218  1.00  0.00    -0.295 OA 
HETATM   23  O   UNL     2      -9.015  10.438  69.268  1.00  0.00    -0.176 OA 
HETATM   24  H   UNL     2      -8.200   8.156  72.910  1.00  0.00     0.000 HD 
HETATM   25  O   UNL     2     -10.724   8.296  71.600  1.00  0.00    -0.230 OA 
HETATM   26  C   UNL     2      -8.544   9.214  71.163  1.00  0.00    -0.130 C  
HETATM   27  H   UNL     2     -10.510   7.918  72.446  1.00  0.00     0.000 HD 
ENDBRANCH   4  18
TORSDOF 3
ENDMDL
MODEL       80
REMARK 921   NORMALIZED FREE ENERGY PREDICTED BY IDOCK:   -4.34 KCAL/MOL
REMARK 922        TOTAL FREE ENERGY PREDICTED BY IDOCK:   -6.22 KCAL/MOL
REMARK 923 INTER-LIGAND FREE ENERGY PREDICTED BY IDOCK:   -5.54 KCAL/MOL
REMARK 924 INTRA-LIGAND FREE ENERGY PREDICTED BY IDOCK:   -0.68 KCAL/MOL
REMARK 927      BINDING AFFINITY PREDICTED BY RF-SCORE:    0.00 PKD
ROOT
HETATM    1  N   UNL     1      -9.407   9.444  68.180  1.00  0.00    -0.134 N  
HETATM    2  H2  UNL     1      -9.948  10.211  67.782  1.00  0.00     0.000 HD 
HETATM    3  C   UNL     1      -9.839   8.154  68.037  1.00  0.00    -0.168 C  
HETATM    4  C   UNL     2     -12.319  10.145  70.613  1.00  0.00    -0.293 C  
HETATM    5  H1  UNL     1      -8.543   9.635  68.686  1.00  0.00     0.000 HD 
HETATM    6  O   UNL     2     -11.409  11.255  70.433  1.00  0.00    -0.482 OA 
HETATM    7  H   UNL     2     -10.741  10.997  69.808  1.00  0.00     0.000 HD 
HETATM    8  O   UNL     1     -10.878   7.924  67.428  1.00  0.00    -0.237 OA 
ENDROOT
BRANCH   4   9
HETATM    9  C   UNL     2     -13.394  10.560  71.618  1.00  0.00    -0.324 C  
HETATM   10  O   UNL     2     -13.077  11.858  72.130  1.00  0.00    -0.443 OA 
HETATM   11  H   UNL     2     -13.745  12.116  72.755  1.00  0.00     0.000 HD 
ENDBRANCH   4   9
BRANCH   3  12
HETATM   12  C   UNL     1      -9.064   7.067  68.684  1.00  0.00    -0.132 A  
HETATM   13  C   UNL     1      -9.258   5.765  68.234  1.00  0.00    -0.117 A  
HETATM   14  C   UNL     1      -7.477   6.163  70.259  1.00  0.00    -0.090 A  
HETATM   15  C   UNL     1      -8.161   7.259  69.732  1.00  0.00    -0.130 A  
HETATM   16  C   UNL     1      -7.725   4.908  69.727  1.00  0.00    -0.056 A  
HETATM   17  N   UNL     1      -8.609   4.682  68.734  1.00  0.00    -0.084 NA 
ENDBRANCH   3  12
BRANCH   4  18
HETATM   18  C   UNL     2     -11.515   8.905  71.014  1.00  0.00    -0.294 C  
HETATM   19  O   UNL     2      -9.872   7.583  73.738  1.00  0.00    -0.296 OA 
HETATM   20  C   UNL     2     -10.637   7.887  72.843  1.00  0.00    -0.368 C  
HETATM   21  C   UNL     2     -12.252   7.655  71.302  1.00  0.00    -0.315 C  
HETATM   22  O   UNL     2     -12.016   5.771  72.790  1.00  0.00    -0.527 OA 
HETATM   23  O   UNL     2     -10.685   9.079  72.176  1.00  0.00    -0.332 OA 
HETATM   24  H   UNL     2     -12.704   5.208  72.455  1.00  0.00     0.000 HD 
HETATM   25  O   UNL     2     -13.281   7.216  70.522  1.00  0.00    -0.461 OA 
HETATM   26  C   UNL     2     -11.702   7.016  72.324  1.00  0.00    -0.255 C  
HETATM   27  H   UNL     2     -13.754   6.413  70.707  1.00  0.00     0.000 HD 
ENDBRANCH   4  18
TORSDOF 3
ENDMDL
MODEL       81
REMARK 921   NORMALIZED FREE ENERGY PREDICTED BY IDOCK:   -4.34 KCAL/MOL
REMARK 922        TOTAL FREE ENERGY PREDICTED BY IDOCK:   -6.21 KCAL/MOL
REMARK 923 INTER-LIGAND FREE ENERGY PREDICTED BY IDOCK:   -5.49 KCAL/MOL
REMARK 924 INTRA-LIGAND FREE ENERGY PREDICTED BY IDOCK:   -0.73 KCAL/MOL
REMARK 927      BINDING AFFINITY PREDICTED BY RF-SCORE:    0.00 PKD
ROOT
HETATM    1  N   UNL     1     -12.181  14.951  67.082  1.00  0.00    -0.357 N  
HETATM    2  H2  UNL     1     -12.213  15.908  66.732  1.00  0.00     0.000 HD 
HETATM    3  C   UNL     1     -12.053  14.715  68.423  1.00  0.00    -0.188 C  
HETATM    4  C   UNL     2      -8.539  16.223  66.963  1.00  0.00    -0.200 C  
HETATM    5  H1  UNL     1     -12.245  14.167  66.434  1.00  0.00     0.000 HD 
HETATM    6  O   UNL     2      -9.202  16.182  65.678  1.00  0.00    -0.407 OA 
HETATM    7  H   UNL     2     -10.092  15.875  65.808  1.00  0.00     0.000 HD 
HETATM    8  O   UNL     1     -11.977  15.658  69.203  1.00  0.00    -0.368 OA 
ENDROOT
BRANCH   4   9
HETATM    9  C   UNL     2      -7.108  16.715  66.754  1.00  0.00    -0.236 C  
HETATM   10  O   UNL     2      -6.731  17.537  67.862  1.00  0.00    -0.172 OA 
HETATM   11  H   UNL     2      -5.840  17.843  67.732  1.00  0.00     0.000 HD 
ENDBRANCH   4   9
BRANCH   3  12
HETATM   12  C   UNL     1     -11.945  13.312  68.893  1.00  0.00    -0.336 A  
HETATM   13  C   UNL     1     -11.742  12.316  67.942  1.00  0.00    -0.347 A  
HETATM   14  C   UNL     1     -11.922  11.567  70.558  1.00  0.00    -0.439 A  
HETATM   15  C   UNL     1     -12.052  12.917  70.228  1.00  0.00    -0.377 A  
HETATM   16  C   UNL     1     -11.700  10.654  69.539  1.00  0.00    -0.284 A  
HETATM   17  N   UNL     1     -11.619  10.996  68.237  1.00  0.00    -0.457 NA 
ENDBRANCH   3  12
BRANCH   4  18
HETATM   18  C   UNL     2      -8.651  14.845  67.622  1.00  0.00    -0.174 C  
HETATM   19  O   UNL     2      -7.857  11.549  67.013  1.00  0.00    -0.148 OA 
HETATM   20  C   UNL     2      -7.928  12.707  67.374  1.00  0.00    -0.177 C  
HETATM   21  C   UNL     2      -7.696  14.503  68.699  1.00  0.00    -0.137 C  
HETATM   22  O   UNL     2      -6.566  12.527  69.493  1.00  0.00    -0.218 OA 
HETATM   23  O   UNL     2      -8.539  13.736  66.713  1.00  0.00    -0.160 OA 
HETATM   24  H   UNL     2      -6.175  12.867  70.289  1.00  0.00     0.000 HD 
HETATM   25  O   UNL     2      -7.364  15.383  69.688  1.00  0.00    -0.204 OA 
HETATM   26  C   UNL     2      -7.323  13.235  68.606  1.00  0.00    -0.101 C  
HETATM   27  H   UNL     2      -6.750  15.163  70.380  1.00  0.00     0.000 HD 
ENDBRANCH   4  18
TORSDOF 3
ENDMDL
MODEL       82
REMARK 921   NORMALIZED FREE ENERGY PREDICTED BY IDOCK:   -4.34 KCAL/MOL
REMARK 922        TOTAL FREE ENERGY PREDICTED BY IDOCK:   -6.21 KCAL/MOL
REMARK 923 INTER-LIGAND FREE ENERGY PREDICTED BY IDOCK:   -5.71 KCAL/MOL
REMARK 924 INTRA-LIGAND FREE ENERGY PREDICTED BY IDOCK:   -0.50 KCAL/MOL
REMARK 927      BINDING AFFINITY PREDICTED BY RF-SCORE:    0.00 PKD
ROOT
HETATM    1  N   UNL     1     -10.039  13.098  64.304  1.00  0.00    -0.616 N  
HETATM    2  H2  UNL     1     -10.575  13.964  64.261  1.00  0.00     0.000 HD 
HETATM    3  C   UNL     1     -10.683  11.896  64.413  1.00  0.00    -0.323 C  
HETATM    4  C   UNL     2     -11.061  13.968  67.923  1.00  0.00    -0.255 C  
HETATM    5  H1  UNL     1      -9.020  13.124  64.267  1.00  0.00     0.000 HD 
HETATM    6  O   UNL     2     -10.219  14.956  67.284  1.00  0.00    -0.239 OA 
HETATM    7  H   UNL     2     -10.034  14.666  66.397  1.00  0.00     0.000 HD 
HETATM    8  O   UNL     1     -11.908  11.864  64.457  1.00  0.00    -0.303 OA 
ENDROOT
BRANCH   4   9
HETATM    9  C   UNL     2     -11.356  14.433  69.348  1.00  0.00    -0.281 C  
HETATM   10  O   UNL     2     -11.231  15.858  69.408  1.00  0.00    -0.287 OA 
HETATM   11  H   UNL     2     -11.415  16.148  70.294  1.00  0.00     0.000 HD 
ENDBRANCH   4   9
BRANCH   3  12
HETATM   12  C   UNL     1      -9.871  10.661  64.540  1.00  0.00    -0.388 A  
HETATM   13  C   UNL     1      -9.108  10.262  63.447  1.00  0.00    -0.262 A  
HETATM   14  C   UNL     1      -9.025   8.719  65.693  1.00  0.00    -0.248 A  
HETATM   15  C   UNL     1      -9.835   9.855  65.681  1.00  0.00    -0.368 A  
HETATM   16  C   UNL     1      -8.285   8.419  64.561  1.00  0.00    -0.146 A  
HETATM   17  N   UNL     1      -8.317   9.158  63.433  1.00  0.00    -0.184 NA 
ENDBRANCH   3  12
BRANCH   4  18
HETATM   18  C   UNL     2     -10.380  12.600  67.825  1.00  0.00    -0.220 C  
HETATM   19  O   UNL     2      -7.755  10.847  69.205  1.00  0.00    -0.135 OA 
HETATM   20  C   UNL     2      -8.824  11.325  68.878  1.00  0.00    -0.047 C  
HETATM   21  C   UNL     2     -11.029  11.446  68.485  1.00  0.00    -0.221 C  
HETATM   22  O   UNL     2     -10.327   9.434  69.616  1.00  0.00    -0.195 OA 
HETATM   23  O   UNL     2      -9.035  12.563  68.336  1.00  0.00    -0.189 OA 
HETATM   24  H   UNL     2     -11.165   9.002  69.721  1.00  0.00     0.000 HD 
HETATM   25  O   UNL     2     -12.373  11.219  68.407  1.00  0.00    -0.593 OA 
HETATM   26  C   UNL     2     -10.122  10.656  69.041  1.00  0.00    -0.213 C  
HETATM   27  H   UNL     2     -12.789  10.477  68.831  1.00  0.00     0.000 HD 
ENDBRANCH   4  18
TORSDOF 3
ENDMDL
MODEL       83
REMARK 921   NORMALIZED FREE ENERGY PREDICTED BY IDOCK:   -4.33 KCAL/MOL
REMARK 922        TOTAL FREE ENERGY PREDICTED BY IDOCK:   -6.20 KCAL/MOL
REMARK 923 INTER-LIGAND FREE ENERGY PREDICTED BY IDOCK:   -5.03 KCAL/MOL
REMARK 924 INTRA-LIGAND FREE ENERGY PREDICTED BY IDOCK:   -1.17 KCAL/MOL
REMARK 927      BINDING AFFINITY PREDICTED BY RF-SCORE:    0.00 PKD
ROOT
HETATM    1  N   UNL     1     -11.184   9.876  67.824  1.00  0.00    -0.479 N  
HETATM    2  H2  UNL     1     -12.173   9.852  67.578  1.00  0.00     0.000 HD 
HETATM    3  C   UNL     1     -10.430   8.738  67.749  1.00  0.00    -0.229 C  
HETATM    4  C   UNL     2     -13.062   8.428  70.869  1.00  0.00     0.248 C  
HETATM    5  H1  UNL     1     -10.754  10.750  68.127  1.00  0.00     0.000 HD 
HETATM    6  O   UNL     2     -13.444   9.778  70.516  1.00  0.00    -0.606 OA 
HETATM    7  H   UNL     2     -12.946  10.041  69.750  1.00  0.00     0.000 HD 
HETATM    8  O   UNL     1     -10.948   7.688  67.385  1.00  0.00    -0.207 OA 
ENDROOT
BRANCH   4   9
HETATM    9  C   UNL     2     -13.863   8.006  72.100  1.00  0.00    -0.196 C  
HETATM   10  O   UNL     2     -13.713   9.001  73.117  1.00  0.00    -1.013 OA 
HETATM   11  H   UNL     2     -14.212   8.738  73.883  1.00  0.00     0.000 HD 
ENDBRANCH   4   9
BRANCH   3  12
HETATM   12  C   UNL     1      -9.011   8.794  68.177  1.00  0.00    -0.141 A  
HETATM   13  C   UNL     1      -8.292   7.603  68.223  1.00  0.00    -0.125 A  
HETATM   14  C   UNL     1      -7.005   9.900  68.931  1.00  0.00    -0.062 A  
HETATM   15  C   UNL     1      -8.347   9.963  68.557  1.00  0.00    -0.108 A  
HETATM   16  C   UNL     1      -6.371   8.667  68.924  1.00  0.00    -0.045 A  
HETATM   17  N   UNL     1      -6.987   7.515  68.590  1.00  0.00    -0.076 NA 
ENDBRANCH   3  12
BRANCH   4  18
HETATM   18  C   UNL     2     -11.542   8.374  71.045  1.00  0.00    -0.275 C  
HETATM   19  O   UNL     2      -9.158   8.589  73.523  1.00  0.00    -0.183 OA 
HETATM   20  C   UNL     2      -9.958   8.262  72.668  1.00  0.00    -0.287 C  
HETATM   21  C   UNL     2     -10.881   7.051  71.020  1.00  0.00    -0.238 C  
HETATM   22  O   UNL     2      -8.990   6.002  72.088  1.00  0.00    -0.142 OA 
HETATM   23  O   UNL     2     -11.060   8.964  72.266  1.00  0.00    -0.339 OA 
HETATM   24  H   UNL     2      -8.955   5.187  71.602  1.00  0.00     0.000 HD 
HETATM   25  O   UNL     2     -11.201   6.091  70.105  1.00  0.00    -0.363 OA 
HETATM   26  C   UNL     2      -9.905   7.000  71.915  1.00  0.00    -0.163 C  
HETATM   27  H   UNL     2     -10.776   5.241  70.088  1.00  0.00     0.000 HD 
ENDBRANCH   4  18
TORSDOF 3
ENDMDL
MODEL       84
REMARK 921   NORMALIZED FREE ENERGY PREDICTED BY IDOCK:   -4.29 KCAL/MOL
REMARK 922        TOTAL FREE ENERGY PREDICTED BY IDOCK:   -6.16 KCAL/MOL
REMARK 923 INTER-LIGAND FREE ENERGY PREDICTED BY IDOCK:   -5.94 KCAL/MOL
REMARK 924 INTRA-LIGAND FREE ENERGY PREDICTED BY IDOCK:   -0.21 KCAL/MOL
REMARK 927      BINDING AFFINITY PREDICTED BY RF-SCORE:    0.00 PKD
ROOT
HETATM    1  N   UNL     1     -10.230   9.898  64.677  1.00  0.00    -0.306 N  
HETATM    2  H2  UNL     1     -10.062   8.910  64.490  1.00  0.00     0.000 HD 
HETATM    3  C   UNL     1      -9.198  10.710  65.056  1.00  0.00    -0.211 C  
HETATM    4  C   UNL     2     -10.077   8.116  68.097  1.00  0.00    -0.198 C  
HETATM    5  H1  UNL     1     -11.170  10.283  64.584  1.00  0.00     0.000 HD 
HETATM    6  O   UNL     2     -11.144   7.661  67.232  1.00  0.00    -0.538 OA 
HETATM    7  H   UNL     2     -11.091   8.140  66.413  1.00  0.00     0.000 HD 
HETATM    8  O   UNL     1      -8.068  10.248  65.169  1.00  0.00    -0.145 OA 
ENDROOT
BRANCH   4   9
HETATM    9  C   UNL     2     -10.162   7.345  69.414  1.00  0.00    -0.201 C  
HETATM   10  O   UNL     2     -11.509   7.389  69.894  1.00  0.00    -0.466 OA 
HETATM   11  H   UNL     2     -11.562   6.909  70.713  1.00  0.00     0.000 HD 
ENDBRANCH   4   9
BRANCH   3  12
HETATM   12  C   UNL     1      -9.490  12.127  65.385  1.00  0.00    -0.035 A  
HETATM   13  C   UNL     1     -10.371  12.823  64.564  1.00  0.00    -0.349 A  
HETATM   14  C   UNL     1      -9.279  14.151  66.680  1.00  0.00    -0.272 A  
HETATM   15  C   UNL     1      -8.923  12.821  66.458  1.00  0.00    -0.098 A  
HETATM   16  C   UNL     1     -10.183  14.749  65.817  1.00  0.00    -0.338 A  
HETATM   17  N   UNL     1     -10.728  14.120  64.756  1.00  0.00    -0.418 NA 
ENDBRANCH   3  12
BRANCH   4  18
HETATM   18  C   UNL     2     -10.170   9.637  68.240  1.00  0.00    -0.186 C  
HETATM   19  O   UNL     2     -12.390  12.215  67.694  1.00  0.00    -0.325 OA 
HETATM   20  C   UNL     2     -11.679  11.330  68.131  1.00  0.00    -0.253 C  
HETATM   21  C   UNL     2     -10.399  10.202  69.588  1.00  0.00    -0.247 C  
HETATM   22  O   UNL     2     -11.558  12.093  70.535  1.00  0.00    -0.487 OA 
HETATM   23  O   UNL     2     -11.197  10.252  67.442  1.00  0.00    -0.274 OA 
HETATM   24  H   UNL     2     -11.264  12.034  71.436  1.00  0.00     0.000 HD 
HETATM   25  O   UNL     2      -9.741   9.747  70.693  1.00  0.00    -0.325 OA 
HETATM   26  C   UNL     2     -11.223  11.239  69.525  1.00  0.00    -0.272 C  
HETATM   27  H   UNL     2      -9.888  10.110  71.559  1.00  0.00     0.000 HD 
ENDBRANCH   4  18
TORSDOF 3
ENDMDL
MODEL       85
REMARK 921   NORMALIZED FREE ENERGY PREDICTED BY IDOCK:   -4.28 KCAL/MOL
REMARK 922        TOTAL FREE ENERGY PREDICTED BY IDOCK:   -6.15 KCAL/MOL
REMARK 923 INTER-LIGAND FREE ENERGY PREDICTED BY IDOCK:   -5.23 KCAL/MOL
REMARK 924 INTRA-LIGAND FREE ENERGY PREDICTED BY IDOCK:   -0.92 KCAL/MOL
REMARK 927      BINDING AFFINITY PREDICTED BY RF-SCORE:    0.00 PKD
ROOT
HETATM    1  N   UNL     1      -6.265  14.557  67.649  1.00  0.00    -0.131 N  
HETATM    2  H2  UNL     1      -6.354  13.552  67.506  1.00  0.00     0.000 HD 
HETATM    3  C   UNL     1      -6.472  15.095  68.890  1.00  0.00    -0.098 C  
HETATM    4  C   UNL     2     -10.037  13.797  67.353  1.00  0.00    -0.244 C  
HETATM    5  H1  UNL     1      -6.021  15.166  66.868  1.00  0.00     0.000 HD 
HETATM    6  O   UNL     2      -9.265  13.467  66.175  1.00  0.00    -0.466 OA 
HETATM    7  H   UNL     2      -8.353  13.671  66.346  1.00  0.00     0.000 HD 
HETATM    8  O   UNL     1      -6.765  14.363  69.829  1.00  0.00    -0.145 OA 
ENDROOT
BRANCH   4   9
HETATM    9  C   UNL     2     -11.504  13.470  67.077  1.00  0.00    -0.340 C  
HETATM   10  O   UNL     2     -11.576  12.270  66.302  1.00  0.00    -0.366 OA 
HETATM   11  H   UNL     2     -12.488  12.066  66.130  1.00  0.00     0.000 HD 
ENDBRANCH   4   9
BRANCH   3  12
HETATM   12  C   UNL     1      -6.398  16.568  69.050  1.00  0.00    -0.169 A  
HETATM   13  C   UNL     1      -7.016  17.363  68.091  1.00  0.00    -0.190 A  
HETATM   14  C   UNL     1      -5.736  18.609  70.151  1.00  0.00    -0.229 A  
HETATM   15  C   UNL     1      -5.732  17.215  70.093  1.00  0.00    -0.221 A  
HETATM   16  C   UNL     1      -6.400  19.312  69.158  1.00  0.00    -0.283 A  
HETATM   17  N   UNL     1      -7.030  18.721  68.122  1.00  0.00    -0.238 NA 
ENDBRANCH   3  12
BRANCH   4  18
HETATM   18  C   UNL     2      -9.768  15.257  67.730  1.00  0.00    -0.215 C  
HETATM   19  O   UNL     2     -11.118  18.395  67.286  1.00  0.00    -0.240 OA 
HETATM   20  C   UNL     2     -10.750  17.303  67.673  1.00  0.00    -0.307 C  
HETATM   21  C   UNL     2     -10.099  15.700  69.101  1.00  0.00    -0.237 C  
HETATM   22  O   UNL     2     -10.901  17.712  70.161  1.00  0.00    -0.018 OA 
HETATM   23  O   UNL     2     -10.435  16.222  66.897  1.00  0.00    -0.306 OA 
HETATM   24  H   UNL     2     -10.808  17.468  71.074  1.00  0.00     0.000 HD 
HETATM   25  O   UNL     2      -9.800  14.952  70.203  1.00  0.00    -0.460 OA 
HETATM   26  C   UNL     2     -10.606  16.924  69.086  1.00  0.00    -0.330 C  
HETATM   27  H   UNL     2     -10.013  15.237  71.085  1.00  0.00     0.000 HD 
ENDBRANCH   4  18
TORSDOF 3
ENDMDL
MODEL       86
REMARK 921   NORMALIZED FREE ENERGY PREDICTED BY IDOCK:   -4.26 KCAL/MOL
REMARK 922        TOTAL FREE ENERGY PREDICTED BY IDOCK:   -6.12 KCAL/MOL
REMARK 923 INTER-LIGAND FREE ENERGY PREDICTED BY IDOCK:   -5.18 KCAL/MOL
REMARK 924 INTRA-LIGAND FREE ENERGY PREDICTED BY IDOCK:   -0.94 KCAL/MOL
REMARK 927      BINDING AFFINITY PREDICTED BY RF-SCORE:    0.00 PKD
ROOT
HETATM    1  N   UNL     1      -9.804  13.744  69.281  1.00  0.00    -0.345 N  
HETATM    2  H2  UNL     1      -9.455  14.692  69.420  1.00  0.00     0.000 HD 
HETATM    3  C   UNL     1      -9.136  12.881  68.457  1.00  0.00    -0.049 C  
HETATM    4  C   UNL     2     -10.910  15.809  66.214  1.00  0.00    -0.232 C  
HETATM    5  H1  UNL     1     -10.653  13.437  69.756  1.00  0.00     0.000 HD 
HETATM    6  O   UNL     2     -11.444  16.277  67.475  1.00  0.00    -0.042 OA 
HETATM    7  H   UNL     2     -11.106  15.722  68.169  1.00  0.00     0.000 HD 
HETATM    8  O   UNL     1      -8.116  13.250  67.886  1.00  0.00    -0.132 OA 
ENDROOT
BRANCH   4   9
HETATM    9  C   UNL     2     -11.455  16.701  65.099  1.00  0.00     0.374 C  
HETATM   10  O   UNL     2     -11.190  16.082  63.836  1.00  0.00    -1.055 OA 
HETATM   11  H   UNL     2     -11.529  16.636  63.142  1.00  0.00     0.000 HD 
ENDBRANCH   4   9
BRANCH   3  12
HETATM   12  C   UNL     1      -9.707  11.531  68.225  1.00  0.00    -0.198 A  
HETATM   13  C   UNL     1     -10.612  11.033  69.157  1.00  0.00    -0.219 A  
HETATM   14  C   UNL     1      -9.991   9.464  67.016  1.00  0.00    -0.282 A  
HETATM   15  C   UNL     1      -9.383  10.714  67.140  1.00  0.00    -0.172 A  
HETATM   16  C   UNL     1     -10.896   9.068  67.987  1.00  0.00    -0.041 A  
HETATM   17  N   UNL     1     -11.212   9.818  69.062  1.00  0.00    -0.103 NA 
ENDBRANCH   3  12
BRANCH   4  18
HETATM   18  C   UNL     2     -11.236  14.321  66.059  1.00  0.00    -0.324 C  
HETATM   19  O   UNL     2     -13.520  12.261  64.506  1.00  0.00    -0.686 OA 
HETATM   20  C   UNL     2     -12.562  12.922  64.860  1.00  0.00    -0.458 C  
HETATM   21  C   UNL     2     -10.415  13.517  65.127  1.00  0.00    -0.364 C  
HETATM   22  O   UNL     2     -10.753  11.649  63.640  1.00  0.00    -0.363 OA 
HETATM   23  O   UNL     2     -12.585  14.044  65.640  1.00  0.00    -0.497 OA 
HETATM   24  H   UNL     2      -9.854  11.471  63.390  1.00  0.00     0.000 HD 
HETATM   25  O   UNL     2      -9.056  13.627  65.069  1.00  0.00     0.345 OA 
HETATM   26  C   UNL     2     -11.171  12.646  64.474  1.00  0.00    -0.333 C  
HETATM   27  H   UNL     2      -8.529  13.110  64.471  1.00  0.00     0.000 HD 
ENDBRANCH   4  18
TORSDOF 3
ENDMDL
MODEL       87
REMARK 921   NORMALIZED FREE ENERGY PREDICTED BY IDOCK:   -4.24 KCAL/MOL
REMARK 922        TOTAL FREE ENERGY PREDICTED BY IDOCK:   -6.09 KCAL/MOL
REMARK 923 INTER-LIGAND FREE ENERGY PREDICTED BY IDOCK:   -4.95 KCAL/MOL
REMARK 924 INTRA-LIGAND FREE ENERGY PREDICTED BY IDOCK:   -1.15 KCAL/MOL
REMARK 927      BINDING AFFINITY PREDICTED BY RF-SCORE:    0.00 PKD
ROOT
HETATM    1  N   UNL     1     -11.476   6.537  66.898  1.00  0.00    -0.780 N  
HETATM    2  H2  UNL     1     -12.260   5.945  67.172  1.00  0.00     0.000 HD 
HETATM    3  C   UNL     1     -10.213   6.017  66.835  1.00  0.00    -0.210 C  
HETATM    4  C   UNL     2     -11.390   6.270  70.747  1.00  0.00    -0.332 C  
HETATM    5  H1  UNL     1     -11.632   7.519  66.670  1.00  0.00     0.000 HD 
HETATM    6  O   UNL     2     -12.589   6.882  70.216  1.00  0.00    -0.581 OA 
HETATM    7  H   UNL     2     -12.528   6.888  69.267  1.00  0.00     0.000 HD 
HETATM    8  O   UNL     1     -10.025   4.837  67.109  1.00  0.00    -0.186 OA 
ENDROOT
BRANCH   4   9
HETATM    9  C   UNL     2     -11.488   6.261  72.272  1.00  0.00    -0.306 C  
HETATM   10  O   UNL     2     -11.820   7.577  72.726  1.00  0.00    -0.550 OA 
HETATM   11  H   UNL     2     -11.881   7.571  73.675  1.00  0.00     0.000 HD 
ENDBRANCH   4   9
BRANCH   3  12
HETATM   12  C   UNL     1      -9.086   6.922  66.497  1.00  0.00    -0.179 A  
HETATM   13  C   UNL     1      -9.348   8.284  66.388  1.00  0.00    -0.213 A  
HETATM   14  C   UNL     1      -6.792   7.438  65.961  1.00  0.00    -0.057 A  
HETATM   15  C   UNL     1      -7.777   6.496  66.262  1.00  0.00    -0.095 A  
HETATM   16  C   UNL     1      -7.150   8.774  65.897  1.00  0.00    -0.084 A  
HETATM   17  N   UNL     1      -8.409   9.219  66.092  1.00  0.00    -0.117 NA 
ENDBRANCH   3  12
BRANCH   4  18
HETATM   18  C   UNL     2     -10.169   7.007  70.190  1.00  0.00    -0.193 C  
HETATM   19  O   UNL     2      -7.990   9.537  71.039  1.00  0.00    -0.321 OA 
HETATM   20  C   UNL     2      -8.568   8.491  70.813  1.00  0.00    -0.154 C  
HETATM   21  C   UNL     2      -8.853   6.336  70.260  1.00  0.00    -0.153 C  
HETATM   22  O   UNL     2      -6.552   6.990  70.568  1.00  0.00    -0.049 OA 
HETATM   23  O   UNL     2      -9.921   8.292  70.788  1.00  0.00    -0.186 OA 
HETATM   24  H   UNL     2      -6.120   6.162  70.399  1.00  0.00     0.000 HD 
HETATM   25  O   UNL     2      -8.687   5.017  69.950  1.00  0.00    -0.099 OA 
HETATM   26  C   UNL     2      -7.899   7.209  70.552  1.00  0.00    -0.100 C  
HETATM   27  H   UNL     2      -7.841   4.586  69.996  1.00  0.00     0.000 HD 
ENDBRANCH   4  18
TORSDOF 3
ENDMDL
MODEL       88
REMARK 921   NORMALIZED FREE ENERGY PREDICTED BY IDOCK:   -4.23 KCAL/MOL
REMARK 922        TOTAL FREE ENERGY PREDICTED BY IDOCK:   -6.09 KCAL/MOL
REMARK 923 INTER-LIGAND FREE ENERGY PREDICTED BY IDOCK:   -5.30 KCAL/MOL
REMARK 924 INTRA-LIGAND FREE ENERGY PREDICTED BY IDOCK:   -0.79 KCAL/MOL
REMARK 927      BINDING AFFINITY PREDICTED BY RF-SCORE:    0.00 PKD
ROOT
HETATM    1  N   UNL     1      -8.955   7.230  68.570  1.00  0.00    -0.131 N  
HETATM    2  H2  UNL     1      -8.269   6.496  68.745  1.00  0.00     0.000 HD 
HETATM    3  C   UNL     1      -8.881   8.414  69.250  1.00  0.00    -0.142 C  
HETATM    4  C   UNL     2     -10.027   5.439  71.817  1.00  0.00    -0.183 C  
HETATM    5  H1  UNL     1      -9.699   7.083  67.889  1.00  0.00     0.000 HD 
HETATM    6  O   UNL     2     -10.005   4.591  70.644  1.00  0.00    -0.212 OA 
HETATM    7  H   UNL     2      -9.715   5.111  69.903  1.00  0.00     0.000 HD 
HETATM    8  O   UNL     1      -7.987   8.591  70.069  1.00  0.00    -0.101 OA 
ENDROOT
BRANCH   4   9
HETATM    9  C   UNL     2     -10.494   4.603  73.008  1.00  0.00    -0.198 C  
HETATM   10  O   UNL     2      -9.886   5.111  74.200  1.00  0.00    -0.152 OA 
HETATM   11  H   UNL     2     -10.177   4.591  74.941  1.00  0.00     0.000 HD 
ENDBRANCH   4   9
BRANCH   3  12
HETATM   12  C   UNL     1      -9.933   9.434  69.021  1.00  0.00    -0.182 A  
HETATM   13  C   UNL     1     -10.205   9.814  67.710  1.00  0.00    -0.208 A  
HETATM   14  C   UNL     1     -11.638  10.998  69.704  1.00  0.00    -0.390 A  
HETATM   15  C   UNL     1     -10.662  10.058  70.037  1.00  0.00    -0.348 A  
HETATM   16  C   UNL     1     -11.848  11.291  68.366  1.00  0.00    -0.261 A  
HETATM   17  N   UNL     1     -11.145  10.730  67.361  1.00  0.00    -0.312 NA 
ENDBRANCH   3  12
BRANCH   4  18
HETATM   18  C   UNL     2     -10.888   6.670  71.523  1.00  0.00    -0.239 C  
HETATM   19  O   UNL     2     -14.190   7.542  71.072  1.00  0.00    -0.278 OA 
HETATM   20  C   UNL     2     -13.059   7.330  71.465  1.00  0.00    -0.384 C  
HETATM   21  C   UNL     2     -11.162   7.614  72.628  1.00  0.00    -0.366 C  
HETATM   22  O   UNL     2     -12.977   9.043  73.319  1.00  0.00    -0.577 OA 
HETATM   23  O   UNL     2     -12.197   6.374  71.004  1.00  0.00    -0.256 OA 
HETATM   24  H   UNL     2     -12.556   9.516  74.027  1.00  0.00     0.000 HD 
HETATM   25  O   UNL     2     -10.195   8.015  73.504  1.00  0.00    -0.182 OA 
HETATM   26  C   UNL     2     -12.407   8.062  72.560  1.00  0.00    -0.194 C  
HETATM   27  H   UNL     2     -10.371   8.622  74.213  1.00  0.00     0.000 HD 
ENDBRANCH   4  18
TORSDOF 3
ENDMDL
MODEL       89
REMARK 921   NORMALIZED FREE ENERGY PREDICTED BY IDOCK:   -4.19 KCAL/MOL
REMARK 922        TOTAL FREE ENERGY PREDICTED BY IDOCK:   -6.04 KCAL/MOL
REMARK 923 INTER-LIGAND FREE ENERGY PREDICTED BY IDOCK:   -5.70 KCAL/MOL
REMARK 924 INTRA-LIGAND FREE ENERGY PREDICTED BY IDOCK:   -0.34 KCAL/MOL
REMARK 927      BINDING AFFINITY PREDICTED BY RF-SCORE:    0.00 PKD
ROOT
HETATM    1  N   UNL     1     -11.009   9.356  68.777  1.00  0.00    -0.435 N  
HETATM    2  H2  UNL     1     -11.265   9.556  67.810  1.00  0.00     0.000 HD 
HETATM    3  C   UNL     1      -9.694   9.364  69.154  1.00  0.00    -0.165 C  
HETATM    4  C   UNL     2     -10.410   6.117  66.767  1.00  0.00    -0.231 C  
HETATM    5  H1  UNL     1     -11.732   9.151  69.466  1.00  0.00     0.000 HD 
HETATM    6  O   UNL     2     -11.784   6.570  66.777  1.00  0.00    -0.599 OA 
HETATM    7  H   UNL     2     -11.831   7.377  67.277  1.00  0.00     0.000 HD 
HETATM    8  O   UNL     1      -8.825   9.611  68.327  1.00  0.00    -0.120 OA 
ENDROOT
BRANCH   4   9
HETATM    9  C   UNL     2     -10.336   4.820  65.962  1.00  0.00    -0.293 C  
HETATM   10  O   UNL     2     -11.593   4.600  65.315  1.00  0.00    -1.093 OA 
HETATM   11  H   UNL     2     -11.547   3.793  64.815  1.00  0.00     0.000 HD 
ENDBRANCH   4   9
BRANCH   3  12
HETATM   12  C   UNL     1      -9.353   9.005  70.553  1.00  0.00    -0.262 A  
HETATM   13  C   UNL     1      -8.016   8.778  70.864  1.00  0.00    -0.135 A  
HETATM   14  C   UNL     1      -9.851   8.529  72.864  1.00  0.00    -0.125 A  
HETATM   15  C   UNL     1     -10.287   8.859  71.581  1.00  0.00    -0.416 A  
HETATM   16  C   UNL     1      -8.495   8.345  73.076  1.00  0.00    -0.139 A  
HETATM   17  N   UNL     1      -7.567   8.450  72.103  1.00  0.00    -0.159 NA 
ENDBRANCH   3  12
BRANCH   4  18
HETATM   18  C   UNL     2      -9.915   6.003  68.211  1.00  0.00    -0.147 C  
HETATM   19  O   UNL     2     -11.144   5.594  71.404  1.00  0.00    -0.239 OA 
HETATM   20  C   UNL     2     -10.657   5.489  70.294  1.00  0.00    -0.287 C  
HETATM   21  C   UNL     2      -9.337   4.715  68.654  1.00  0.00    -0.139 C  
HETATM   22  O   UNL     2      -9.264   3.419  70.687  1.00  0.00    -0.110 OA 
HETATM   23  O   UNL     2     -10.914   6.281  69.209  1.00  0.00    -0.297 OA 
HETATM   24  H   UNL     2      -8.649   2.743  70.430  1.00  0.00     0.000 HD 
HETATM   25  O   UNL     2      -8.462   4.004  67.885  1.00  0.00    -0.093 OA 
HETATM   26  C   UNL     2      -9.706   4.442  69.897  1.00  0.00    -0.221 C  
HETATM   27  H   UNL     2      -8.090   3.177  68.170  1.00  0.00     0.000 HD 
ENDBRANCH   4  18
TORSDOF 3
ENDMDL
MODEL       90
REMARK 921   NORMALIZED FREE ENERGY PREDICTED BY IDOCK:   -4.18 KCAL/MOL
REMARK 922        TOTAL FREE ENERGY PREDICTED BY IDOCK:   -6.03 KCAL/MOL
REMARK 923 INTER-LIGAND FREE ENERGY PREDICTED BY IDOCK:   -5.19 KCAL/MOL
REMARK 924 INTRA-LIGAND FREE ENERGY PREDICTED BY IDOCK:   -0.84 KCAL/MOL
REMARK 927      BINDING AFFINITY PREDICTED BY RF-SCORE:    0.00 PKD
ROOT
HETATM    1  N   UNL     1     -11.884  15.581  67.583  1.00  0.00    -0.214 N  
HETATM    2  H2  UNL     1     -12.198  14.639  67.353  1.00  0.00     0.000 HD 
HETATM    3  C   UNL     1     -11.117  16.284  66.696  1.00  0.00     0.104 C  
HETATM    4  C   UNL     2      -8.915  13.210  68.261  1.00  0.00    -0.175 C  
HETATM    5  H1  UNL     1     -12.139  16.002  68.476  1.00  0.00     0.000 HD 
HETATM    6  O   UNL     2     -10.088  12.946  69.066  1.00  0.00    -0.422 OA 
HETATM    7  H   UNL     2     -10.767  13.564  68.819  1.00  0.00     0.000 HD 
HETATM    8  O   UNL     1     -10.810  15.779  65.622  1.00  0.00    -0.334 OA 
ENDROOT
BRANCH   4   9
HETATM    9  C   UNL     2      -7.823  12.217  68.660  1.00  0.00    -0.063 C  
HETATM   10  O   UNL     2      -8.424  11.111  69.340  1.00  0.00    -0.378 OA 
HETATM   11  H   UNL     2      -7.746  10.494  69.587  1.00  0.00     0.000 HD 
ENDBRANCH   4   9
BRANCH   3  12
HETATM   12  C   UNL     1     -10.622  17.626  67.089  1.00  0.00    -0.277 A  
HETATM   13  C   UNL     1     -10.508  18.599  66.101  1.00  0.00    -0.430 A  
HETATM   14  C   UNL     1      -9.798  19.275  68.646  1.00  0.00    -0.500 A  
HETATM   15  C   UNL     1     -10.240  17.977  68.387  1.00  0.00    -0.399 A  
HETATM   16  C   UNL     1      -9.742  20.178  67.596  1.00  0.00    -0.415 A  
HETATM   17  N   UNL     1     -10.076  19.867  66.327  1.00  0.00    -0.472 NA 
ENDBRANCH   3  12
BRANCH   4  18
HETATM   18  C   UNL     2      -8.528  14.682  68.417  1.00  0.00    -0.160 C  
HETATM   19  O   UNL     2      -6.204  16.650  70.030  1.00  0.00    -0.206 OA 
HETATM   20  C   UNL     2      -6.874  15.992  69.257  1.00  0.00    -0.201 C  
HETATM   21  C   UNL     2      -7.784  15.332  67.316  1.00  0.00    -0.211 C  
HETATM   22  O   UNL     2      -6.082  17.026  67.093  1.00  0.00    -0.132 OA 
HETATM   23  O   UNL     2      -7.725  14.971  69.576  1.00  0.00    -0.197 OA 
HETATM   24  H   UNL     2      -6.076  17.132  66.149  1.00  0.00     0.000 HD 
HETATM   25  O   UNL     2      -8.117  15.154  66.004  1.00  0.00     0.035 OA 
HETATM   26  C   UNL     2      -6.864  16.155  67.796  1.00  0.00    -0.145 C  
HETATM   27  H   UNL     2      -7.640  15.572  65.297  1.00  0.00     0.000 HD 
ENDBRANCH   4  18
TORSDOF 3
ENDMDL
MODEL       91
REMARK 921   NORMALIZED FREE ENERGY PREDICTED BY IDOCK:   -4.17 KCAL/MOL
REMARK 922        TOTAL FREE ENERGY PREDICTED BY IDOCK:   -6.01 KCAL/MOL
REMARK 923 INTER-LIGAND FREE ENERGY PREDICTED BY IDOCK:   -4.81 KCAL/MOL
REMARK 924 INTRA-LIGAND FREE ENERGY PREDICTED BY IDOCK:   -1.20 KCAL/MOL
REMARK 927      BINDING AFFINITY PREDICTED BY RF-SCORE:    0.00 PKD
ROOT
HETATM    1  N   UNL     1      -9.818   9.746  64.718  1.00  0.00    -0.417 N  
HETATM    2  H2  UNL     1      -9.372   9.046  64.127  1.00  0.00     0.000 HD 
HETATM    3  C   UNL     1      -9.056  10.574  65.496  1.00  0.00    -0.186 C  
HETATM    4  C   UNL     2      -8.906   6.770  67.000  1.00  0.00    -0.115 C  
HETATM    5  H1  UNL     1     -10.834   9.833  64.732  1.00  0.00     0.000 HD 
HETATM    6  O   UNL     2      -9.840   6.451  65.943  1.00  0.00    -0.390 OA 
HETATM    7  H   UNL     2      -9.990   7.234  65.426  1.00  0.00     0.000 HD 
HETATM    8  O   UNL     1      -7.835  10.471  65.480  1.00  0.00    -0.155 OA 
ENDROOT
BRANCH   4   9
HETATM    9  C   UNL     2      -8.666   5.510  67.830  1.00  0.00    -0.106 C  
HETATM   10  O   UNL     2      -9.924   4.886  68.105  1.00  0.00    -0.150 OA 
HETATM   11  H   UNL     2      -9.775   4.102  68.621  1.00  0.00     0.000 HD 
ENDBRANCH   4   9
BRANCH   3  12
HETATM   12  C   UNL     1      -9.740  11.538  66.393  1.00  0.00    -0.231 A  
HETATM   13  C   UNL     1     -11.024  11.230  66.830  1.00  0.00    -0.281 A  
HETATM   14  C   UNL     1      -9.917  13.575  67.673  1.00  0.00    -0.229 A  
HETATM   15  C   UNL     1      -9.187  12.749  66.818  1.00  0.00    -0.225 A  
HETATM   16  C   UNL     1     -11.182  13.168  68.068  1.00  0.00    -0.277 A  
HETATM   17  N   UNL     1     -11.758  12.020  67.656  1.00  0.00    -0.503 NA 
ENDBRANCH   3  12
BRANCH   4  18
HETATM   18  C   UNL     2      -9.444   7.965  67.792  1.00  0.00    -0.144 C  
HETATM   19  O   UNL     2     -11.234   8.649  70.655  1.00  0.00    -0.251 OA 
HETATM   20  C   UNL     2     -10.401   8.470  69.788  1.00  0.00    -0.212 C  
HETATM   21  C   UNL     2      -8.498   8.734  68.629  1.00  0.00    -0.129 C  
HETATM   22  O   UNL     2      -8.563   9.928  70.724  1.00  0.00    -0.366 OA 
HETATM   23  O   UNL     2     -10.512   7.646  68.703  1.00  0.00    -0.201 OA 
HETATM   24  H   UNL     2      -7.704  10.333  70.711  1.00  0.00     0.000 HD 
HETATM   25  O   UNL     2      -7.254   9.086  68.192  1.00  0.00    -0.077 OA 
HETATM   26  C   UNL     2      -9.072   9.097  69.767  1.00  0.00    -0.167 C  
HETATM   27  H   UNL     2      -6.647   9.581  68.730  1.00  0.00     0.000 HD 
ENDBRANCH   4  18
TORSDOF 3
ENDMDL
MODEL       92
REMARK 921   NORMALIZED FREE ENERGY PREDICTED BY IDOCK:   -4.16 KCAL/MOL
REMARK 922        TOTAL FREE ENERGY PREDICTED BY IDOCK:   -6.01 KCAL/MOL
REMARK 923 INTER-LIGAND FREE ENERGY PREDICTED BY IDOCK:   -5.40 KCAL/MOL
REMARK 924 INTRA-LIGAND FREE ENERGY PREDICTED BY IDOCK:   -0.61 KCAL/MOL
REMARK 927      BINDING AFFINITY PREDICTED BY RF-SCORE:    0.00 PKD
ROOT
HETATM    1  N   UNL     1     -12.235  13.117  68.040  1.00  0.00    -0.172 N  
HETATM    2  H2  UNL     1     -12.577  12.187  68.278  1.00  0.00     0.000 HD 
HETATM    3  C   UNL     1     -11.889  13.412  66.750  1.00  0.00    -0.403 C  
HETATM    4  C   UNL     2      -9.141  10.831  68.344  1.00  0.00    -0.164 C  
HETATM    5  H1  UNL     1     -12.151  13.832  68.763  1.00  0.00     0.000 HD 
HETATM    6  O   UNL     2      -9.912  10.961  69.562  1.00  0.00    -0.418 OA 
HETATM    7  H   UNL     2     -10.657  11.524  69.387  1.00  0.00     0.000 HD 
HETATM    8  O   UNL     1     -11.990  12.554  65.881  1.00  0.00    -0.457 OA 
ENDROOT
BRANCH   4   9
HETATM    9  C   UNL     2      -7.942   9.927  68.626  1.00  0.00    -0.087 C  
HETATM   10  O   UNL     2      -7.750   9.047  67.514  1.00  0.00    -0.095 OA 
HETATM   11  H   UNL     2      -7.004   8.484  67.689  1.00  0.00     0.000 HD 
ENDBRANCH   4   9
BRANCH   3  12
HETATM   12  C   UNL     1     -11.334  14.755  66.450  1.00  0.00    -0.339 A  
HETATM   13  C   UNL     1     -11.217  15.134  65.117  1.00  0.00    -0.389 A  
HETATM   14  C   UNL     1     -10.404  16.906  67.023  1.00  0.00    -0.307 A  
HETATM   15  C   UNL     1     -10.900  15.663  67.419  1.00  0.00    -0.315 A  
HETATM   16  C   UNL     1     -10.349  17.197  65.670  1.00  0.00    -0.183 A  
HETATM   17  N   UNL     1     -10.733  16.335  64.706  1.00  0.00    -0.683 NA 
ENDBRANCH   3  12
BRANCH   4  18
HETATM   18  C   UNL     2      -8.781  12.229  67.834  1.00  0.00    -0.177 C  
HETATM   19  O   UNL     2      -7.791  15.306  69.026  1.00  0.00    -0.152 OA 
HETATM   20  C   UNL     2      -7.893  14.193  68.548  1.00  0.00    -0.140 C  
HETATM   21  C   UNL     2      -7.445  12.433  67.231  1.00  0.00    -0.135 C  
HETATM   22  O   UNL     2      -5.811  14.202  67.118  1.00  0.00    -0.252 OA 
HETATM   23  O   UNL     2      -8.860  13.267  68.827  1.00  0.00    -0.021 OA 
HETATM   24  H   UNL     2      -5.201  13.826  66.495  1.00  0.00     0.000 HD 
HETATM   25  O   UNL     2      -6.897  11.544  66.352  1.00  0.00    -0.334 OA 
HETATM   26  C   UNL     2      -6.949  13.610  67.584  1.00  0.00    -0.172 C  
HETATM   27  H   UNL     2      -6.039  11.675  65.964  1.00  0.00     0.000 HD 
ENDBRANCH   4  18
TORSDOF 3
ENDMDL
MODEL       93
REMARK 921   NORMALIZED FREE ENERGY PREDICTED BY IDOCK:   -4.14 KCAL/MOL
REMARK 922        TOTAL FREE ENERGY PREDICTED BY IDOCK:   -5.98 KCAL/MOL
REMARK 923 INTER-LIGAND FREE ENERGY PREDICTED BY IDOCK:   -5.03 KCAL/MOL
REMARK 924 INTRA-LIGAND FREE ENERGY PREDICTED BY IDOCK:   -0.95 KCAL/MOL
REMARK 927      BINDING AFFINITY PREDICTED BY RF-SCORE:    0.00 PKD
ROOT
HETATM    1  N   UNL     1     -10.849   7.607  69.508  1.00  0.00    -0.371 N  
HETATM    2  H2  UNL     1     -11.192   7.705  70.463  1.00  0.00     0.000 HD 
HETATM    3  C   UNL     1      -9.575   7.992  69.194  1.00  0.00    -0.156 C  
HETATM    4  C   UNL     2     -11.850  11.306  69.964  1.00  0.00    -0.367 C  
HETATM    5  H1  UNL     1     -11.454   7.221  68.783  1.00  0.00     0.000 HD 
HETATM    6  O   UNL     2     -12.939  10.367  70.122  1.00  0.00    -0.539 OA 
HETATM    7  H   UNL     2     -12.596   9.487  70.010  1.00  0.00     0.000 HD 
HETATM    8  O   UNL     1      -8.847   8.455  70.064  1.00  0.00    -0.134 OA 
ENDROOT
BRANCH   4   9
HETATM    9  C   UNL     2     -12.401  12.720  70.144  1.00  0.00    -0.165 C  
HETATM   10  O   UNL     2     -11.359  13.664  69.879  1.00  0.00    -0.449 OA 
HETATM   11  H   UNL     2     -11.702  14.543  69.990  1.00  0.00     0.000 HD 
ENDBRANCH   4   9
BRANCH   3  12
HETATM   12  C   UNL     1      -9.129   7.896  67.782  1.00  0.00    -0.138 A  
HETATM   13  C   UNL     1      -7.898   8.450  67.443  1.00  0.00    -0.099 A  
HETATM   14  C   UNL     1      -9.349   7.259  65.466  1.00  0.00     0.404 A  
HETATM   15  C   UNL     1      -9.872   7.302  66.759  1.00  0.00    -0.281 A  
HETATM   16  C   UNL     1      -8.103   7.820  65.236  1.00  0.00    -0.133 A  
HETATM   17  N   UNL     1      -7.370   8.426  66.192  1.00  0.00    -0.083 NA 
ENDBRANCH   3  12
BRANCH   4  18
HETATM   18  C   UNL     2     -11.167  11.052  68.618  1.00  0.00    -0.263 C  
HETATM   19  O   UNL     2     -11.059  12.338  65.423  1.00  0.00    -0.293 OA 
HETATM   20  C   UNL     2     -10.876  12.010  66.580  1.00  0.00    -0.277 C  
HETATM   21  C   UNL     2      -9.761  11.480  68.453  1.00  0.00    -0.202 C  
HETATM   22  O   UNL     2      -8.374  12.340  66.677  1.00  0.00    -0.342 OA 
HETATM   23  O   UNL     2     -11.832  11.648  67.489  1.00  0.00    -0.591 OA 
HETATM   24  H   UNL     2      -7.526  12.317  67.103  1.00  0.00     0.000 HD 
HETATM   25  O   UNL     2      -8.815  11.270  69.414  1.00  0.00    -0.368 OA 
HETATM   26  C   UNL     2      -9.563  11.974  67.239  1.00  0.00    -0.183 C  
HETATM   27  H   UNL     2      -7.912  11.544  69.308  1.00  0.00     0.000 HD 
ENDBRANCH   4  18
TORSDOF 3
ENDMDL
MODEL       94
REMARK 921   NORMALIZED FREE ENERGY PREDICTED BY IDOCK:   -4.12 KCAL/MOL
REMARK 922        TOTAL FREE ENERGY PREDICTED BY IDOCK:   -5.96 KCAL/MOL
REMARK 923 INTER-LIGAND FREE ENERGY PREDICTED BY IDOCK:   -4.98 KCAL/MOL
REMARK 924 INTRA-LIGAND FREE ENERGY PREDICTED BY IDOCK:   -0.98 KCAL/MOL
REMARK 927      BINDING AFFINITY PREDICTED BY RF-SCORE:    0.00 PKD
ROOT
HETATM    1  N   UNL     1      -8.488  10.384  69.714  1.00  0.00    -0.375 N  
HETATM    2  H2  UNL     1      -8.238  10.160  70.677  1.00  0.00     0.000 HD 
HETATM    3  C   UNL     1      -9.803  10.423  69.338  1.00  0.00    -0.213 C  
HETATM    4  C   UNL     2      -8.706   6.547  70.064  1.00  0.00    -0.140 C  
HETATM    5  H1  UNL     1      -7.760  10.581  69.028  1.00  0.00     0.000 HD 
HETATM    6  O   UNL     2      -7.388   7.096  70.298  1.00  0.00    -0.079 OA 
HETATM    7  H   UNL     2      -7.436   8.041  70.208  1.00  0.00     0.000 HD 
HETATM    8  O   UNL     1     -10.679  10.188  70.162  1.00  0.00    -0.273 OA 
ENDROOT
BRANCH   4   9
HETATM    9  C   UNL     2      -8.629   5.028  70.208  1.00  0.00    -0.103 C  
HETATM   10  O   UNL     2      -7.606   4.529  69.342  1.00  0.00    -0.055 OA 
HETATM   11  H   UNL     2      -7.557   3.584  69.432  1.00  0.00     0.000 HD 
ENDBRANCH   4   9
BRANCH   3  12
HETATM   12  C   UNL     1     -10.130  10.689  67.916  1.00  0.00    -0.194 A  
HETATM   13  C   UNL     1     -11.252  11.460  67.633  1.00  0.00    -0.283 A  
HETATM   14  C   UNL     1      -9.788  10.521  65.534  1.00  0.00    -0.324 A  
HETATM   15  C   UNL     1      -9.395  10.199  66.833  1.00  0.00    -0.185 A  
HETATM   16  C   UNL     1     -10.910  11.315  65.359  1.00  0.00    -0.188 A  
HETATM   17  N   UNL     1     -11.659  11.782  66.378  1.00  0.00    -0.485 NA 
ENDBRANCH   3  12
BRANCH   4  18
HETATM   18  C   UNL     2      -9.212   7.035  68.704  1.00  0.00    -0.131 C  
HETATM   19  O   UNL     2      -8.610   6.584  65.341  1.00  0.00    -0.141 OA 
HETATM   20  C   UNL     2      -9.019   6.586  66.486  1.00  0.00    -0.143 C  
HETATM   21  C   UNL     2     -10.480   6.477  68.186  1.00  0.00    -0.217 C  
HETATM   22  O   UNL     2     -11.410   5.908  66.034  1.00  0.00    -0.548 OA 
HETATM   23  O   UNL     2      -8.291   6.835  67.616  1.00  0.00    -0.121 OA 
HETATM   24  H   UNL     2     -12.304   5.710  66.287  1.00  0.00     0.000 HD 
HETATM   25  O   UNL     2     -11.582   6.311  68.974  1.00  0.00    -0.532 OA 
HETATM   26  C   UNL     2     -10.403   6.279  66.878  1.00  0.00    -0.244 C  
HETATM   27  H   UNL     2     -12.397   5.952  68.641  1.00  0.00     0.000 HD 
ENDBRANCH   4  18
TORSDOF 3
ENDMDL
MODEL       95
REMARK 921   NORMALIZED FREE ENERGY PREDICTED BY IDOCK:   -4.12 KCAL/MOL
REMARK 922        TOTAL FREE ENERGY PREDICTED BY IDOCK:   -5.95 KCAL/MOL
REMARK 923 INTER-LIGAND FREE ENERGY PREDICTED BY IDOCK:   -5.03 KCAL/MOL
REMARK 924 INTRA-LIGAND FREE ENERGY PREDICTED BY IDOCK:   -0.92 KCAL/MOL
REMARK 927      BINDING AFFINITY PREDICTED BY RF-SCORE:    0.00 PKD
ROOT
HETATM    1  N   UNL     1     -10.690   8.743  68.440  1.00  0.00    -0.425 N  
HETATM    2  H2  UNL     1      -9.900   8.640  67.804  1.00  0.00     0.000 HD 
HETATM    3  C   UNL     1     -10.546   9.444  69.606  1.00  0.00    -0.225 C  
HETATM    4  C   UNL     2      -8.461   5.931  69.862  1.00  0.00    -0.129 C  
HETATM    5  H1  UNL     1     -11.590   8.322  68.210  1.00  0.00     0.000 HD 
HETATM    6  O   UNL     2      -9.006   5.658  68.550  1.00  0.00    -0.115 OA 
HETATM    7  H   UNL     2      -9.523   6.407  68.277  1.00  0.00     0.000 HD 
HETATM    8  O   UNL     1      -9.465   9.949  69.883  1.00  0.00    -0.220 OA 
ENDROOT
BRANCH   4   9
HETATM    9  C   UNL     2      -7.631   4.725  70.301  1.00  0.00    -0.057 C  
HETATM   10  O   UNL     2      -6.414   5.189  70.894  1.00  0.00    -0.025 OA 
HETATM   11  H   UNL     2      -5.897   4.439  71.167  1.00  0.00     0.000 HD 
ENDBRANCH   4   9
BRANCH   3  12
HETATM   12  C   UNL     1     -11.697   9.517  70.540  1.00  0.00    -0.285 A  
HETATM   13  C   UNL     1     -12.374   8.340  70.841  1.00  0.00    -0.039 A  
HETATM   14  C   UNL     1     -13.249  10.647  72.000  1.00  0.00    -0.473 A  
HETATM   15  C   UNL     1     -12.162  10.697  71.126  1.00  0.00    -0.479 A  
HETATM   16  C   UNL     1     -13.841   9.421  72.252  1.00  0.00    -0.371 A  
HETATM   17  N   UNL     1     -13.437   8.267  71.683  1.00  0.00    -0.340 NA 
ENDBRANCH   3  12
BRANCH   4  18
HETATM   18  C   UNL     2      -9.607   6.297  70.809  1.00  0.00    -0.176 C  
HETATM   19  O   UNL     2     -11.614   4.858  73.212  1.00  0.00    -0.336 OA 
HETATM   20  C   UNL     2     -10.779   5.461  72.564  1.00  0.00    -0.237 C  
HETATM   21  C   UNL     2      -9.286   7.051  72.040  1.00  0.00    -0.139 C  
HETATM   22  O   UNL     2     -10.101   7.159  74.307  1.00  0.00    -0.444 OA 
HETATM   23  O   UNL     2     -10.364   5.173  71.294  1.00  0.00    -0.217 OA 
HETATM   24  H   UNL     2      -9.610   7.907  74.625  1.00  0.00     0.000 HD 
HETATM   25  O   UNL     2      -8.425   8.110  72.045  1.00  0.00    -0.127 OA 
HETATM   26  C   UNL     2     -10.019   6.619  73.056  1.00  0.00    -0.174 C  
HETATM   27  H   UNL     2      -8.219   8.595  72.836  1.00  0.00     0.000 HD 
ENDBRANCH   4  18
TORSDOF 3
ENDMDL
MODEL       96
REMARK 921   NORMALIZED FREE ENERGY PREDICTED BY IDOCK:   -4.12 KCAL/MOL
REMARK 922        TOTAL FREE ENERGY PREDICTED BY IDOCK:   -5.95 KCAL/MOL
REMARK 923 INTER-LIGAND FREE ENERGY PREDICTED BY IDOCK:   -5.45 KCAL/MOL
REMARK 924 INTRA-LIGAND FREE ENERGY PREDICTED BY IDOCK:   -0.50 KCAL/MOL
REMARK 927      BINDING AFFINITY PREDICTED BY RF-SCORE:    0.00 PKD
ROOT
HETATM    1  N   UNL     1     -12.788   7.362  70.615  1.00  0.00    -0.540 N  
HETATM    2  H2  UNL     1     -13.161   7.926  69.851  1.00  0.00     0.000 HD 
HETATM    3  C   UNL     1     -11.799   7.861  71.417  1.00  0.00    -0.299 C  
HETATM    4  C   UNL     2     -10.280   7.095  67.694  1.00  0.00    -0.198 C  
HETATM    5  H1  UNL     1     -13.151   6.424  70.783  1.00  0.00     0.000 HD 
HETATM    6  O   UNL     2     -11.602   6.586  67.397  1.00  0.00    -0.719 OA 
HETATM    7  H   UNL     2     -12.150   6.709  68.163  1.00  0.00     0.000 HD 
HETATM    8  O   UNL     1     -11.362   8.988  71.215  1.00  0.00    -0.270 OA 
ENDROOT
BRANCH   4   9
HETATM    9  C   UNL     2      -9.398   6.897  66.462  1.00  0.00    -0.158 C  
HETATM   10  O   UNL     2     -10.012   5.934  65.599  1.00  0.00    -0.362 OA 
HETATM   11  H   UNL     2      -9.464   5.810  64.833  1.00  0.00     0.000 HD 
ENDBRANCH   4   9
BRANCH   3  12
HETATM   12  C   UNL     1     -11.233   6.990  72.476  1.00  0.00    -0.312 A  
HETATM   13  C   UNL     1     -11.691   5.679  72.561  1.00  0.00    -0.197 A  
HETATM   14  C   UNL     1      -9.811   6.494  74.360  1.00  0.00    -0.355 A  
HETATM   15  C   UNL     1     -10.282   7.403  73.412  1.00  0.00    -0.402 A  
HETATM   16  C   UNL     1     -10.314   5.203  74.347  1.00  0.00    -0.279 A  
HETATM   17  N   UNL     1     -11.252   4.777  73.477  1.00  0.00    -0.331 NA 
ENDBRANCH   3  12
BRANCH   4  18
HETATM   18  C   UNL     2      -9.762   6.419  68.966  1.00  0.00    -0.134 C  
HETATM   19  O   UNL     2      -9.688   3.321  70.471  1.00  0.00    -0.170 OA 
HETATM   20  C   UNL     2      -9.474   4.359  69.875  1.00  0.00    -0.183 C  
HETATM   21  C   UNL     2      -8.321   6.099  69.053  1.00  0.00    -0.112 C  
HETATM   22  O   UNL     2      -6.953   4.369  70.028  1.00  0.00    -0.040 OA 
HETATM   23  O   UNL     2     -10.401   5.168  69.281  1.00  0.00    -0.226 OA 
HETATM   24  H   UNL     2      -6.089   4.738  69.882  1.00  0.00     0.000 HD 
HETATM   25  O   UNL     2      -7.352   6.974  68.656  1.00  0.00    -0.091 OA 
HETATM   26  C   UNL     2      -8.138   4.929  69.649  1.00  0.00    -0.073 C  
HETATM   27  H   UNL     2      -6.426   6.769  68.712  1.00  0.00     0.000 HD 
ENDBRANCH   4  18
TORSDOF 3
ENDMDL
MODEL       97
REMARK 921   NORMALIZED FREE ENERGY PREDICTED BY IDOCK:   -4.12 KCAL/MOL
REMARK 922        TOTAL FREE ENERGY PREDICTED BY IDOCK:   -5.95 KCAL/MOL
REMARK 923 INTER-LIGAND FREE ENERGY PREDICTED BY IDOCK:   -5.18 KCAL/MOL
REMARK 924 INTRA-LIGAND FREE ENERGY PREDICTED BY IDOCK:   -0.77 KCAL/MOL
REMARK 927      BINDING AFFINITY PREDICTED BY RF-SCORE:    0.00 PKD
ROOT
HETATM    1  N   UNL     1      -7.570  10.413  69.882  1.00  0.00    -0.292 N  
HETATM    2  H2  UNL     1      -7.764  10.955  70.723  1.00  0.00     0.000 HD 
HETATM    3  C   UNL     1      -8.466  10.406  68.848  1.00  0.00    -0.144 C  
HETATM    4  C   UNL     2     -10.024   8.335  72.017  1.00  0.00    -0.257 C  
HETATM    5  H1  UNL     1      -6.708   9.873  69.808  1.00  0.00     0.000 HD 
HETATM    6  O   UNL     2      -8.752   8.599  72.653  1.00  0.00    -0.380 OA 
HETATM    7  H   UNL     2      -8.225   9.127  72.064  1.00  0.00     0.000 HD 
HETATM    8  O   UNL     1      -9.502  11.054  68.936  1.00  0.00    -0.195 OA 
ENDROOT
BRANCH   4   9
HETATM    9  C   UNL     2     -10.871   7.486  72.964  1.00  0.00    -0.392 C  
HETATM   10  O   UNL     2     -12.212   7.986  72.966  1.00  0.00    -0.659 OA 
HETATM   11  H   UNL     2     -12.739   7.457  73.554  1.00  0.00     0.000 HD 
ENDBRANCH   4   9
BRANCH   3  12
HETATM   12  C   UNL     1      -8.184   9.554  67.667  1.00  0.00    -0.121 A  
HETATM   13  C   UNL     1      -6.939   8.939  67.583  1.00  0.00    -0.075 A  
HETATM   14  C   UNL     1      -8.713   8.508  65.558  1.00  0.00    -0.208 A  
HETATM   15  C   UNL     1      -9.081   9.340  66.617  1.00  0.00    -0.177 A  
HETATM   16  C   UNL     1      -7.457   7.925  65.579  1.00  0.00    -0.079 A  
HETATM   17  N   UNL     1      -6.556   8.131  66.561  1.00  0.00    -0.055 NA 
ENDBRANCH   3  12
BRANCH   4  18
HETATM   18  C   UNL     2      -9.771   7.703  70.645  1.00  0.00    -0.174 C  
HETATM   19  O   UNL     2      -9.955   4.647  69.066  1.00  0.00    -0.175 OA 
HETATM   20  C   UNL     2     -10.111   5.771  69.504  1.00  0.00    -0.214 C  
HETATM   21  C   UNL     2     -10.776   7.912  69.581  1.00  0.00    -0.218 C  
HETATM   22  O   UNL     2     -11.661   6.660  67.719  1.00  0.00    -0.536 OA 
HETATM   23  O   UNL     2      -9.600   6.275  70.667  1.00  0.00    -0.170 OA 
HETATM   24  H   UNL     2     -12.190   7.331  67.304  1.00  0.00     0.000 HD 
HETATM   25  O   UNL     2     -11.355   9.126  69.349  1.00  0.00    -0.442 OA 
HETATM   26  C   UNL     2     -10.929   6.809  68.862  1.00  0.00    -0.218 C  
HETATM   27  H   UNL     2     -12.001   9.260  68.665  1.00  0.00     0.000 HD 
ENDBRANCH   4  18
TORSDOF 3
ENDMDL
MODEL       98
REMARK 921   NORMALIZED FREE ENERGY PREDICTED BY IDOCK:   -4.10 KCAL/MOL
REMARK 922        TOTAL FREE ENERGY PREDICTED BY IDOCK:   -5.93 KCAL/MOL
REMARK 923 INTER-LIGAND FREE ENERGY PREDICTED BY IDOCK:   -4.99 KCAL/MOL
REMARK 924 INTRA-LIGAND FREE ENERGY PREDICTED BY IDOCK:   -0.95 KCAL/MOL
REMARK 927      BINDING AFFINITY PREDICTED BY RF-SCORE:    0.00 PKD
ROOT
HETATM    1  N   UNL     1      -9.398   6.500  65.710  1.00  0.00    -0.381 N  
HETATM    2  H2  UNL     1      -9.927   6.488  64.839  1.00  0.00     0.000 HD 
HETATM    3  C   UNL     1     -10.041   6.697  66.901  1.00  0.00    -0.195 C  
HETATM    4  C   UNL     2     -10.059  10.179  64.751  1.00  0.00    -0.180 C  
HETATM    5  H1  UNL     1      -8.387   6.365  65.697  1.00  0.00     0.000 HD 
HETATM    6  O   UNL     2      -9.272   9.441  63.787  1.00  0.00    -0.430 OA 
HETATM    7  H   UNL     2      -9.177   8.547  64.098  1.00  0.00     0.000 HD 
HETATM    8  O   UNL     1     -11.256   6.859  66.918  1.00  0.00    -0.353 OA 
ENDROOT
BRANCH   4   9
HETATM    9  C   UNL     2     -10.211  11.615  64.251  1.00  0.00    -0.311 C  
HETATM   10  O   UNL     2     -10.573  11.591  62.867  1.00  0.00    -0.638 OA 
HETATM   11  H   UNL     2     -10.668  12.484  62.556  1.00  0.00     0.000 HD 
ENDBRANCH   4   9
BRANCH   3  12
HETATM   12  C   UNL     1      -9.234   6.773  68.143  1.00  0.00    -0.121 A  
HETATM   13  C   UNL     1      -7.944   7.289  68.057  1.00  0.00    -0.119 A  
HETATM   14  C   UNL     1      -8.831   6.473  70.503  1.00  0.00    -0.151 A  
HETATM   15  C   UNL     1      -9.673   6.343  69.398  1.00  0.00    -0.160 A  
HETATM   16  C   UNL     1      -7.572   7.020  70.316  1.00  0.00    -0.087 A  
HETATM   17  N   UNL     1      -7.104   7.421  69.116  1.00  0.00    -0.076 NA 
ENDBRANCH   3  12
BRANCH   4  18
HETATM   18  C   UNL     2      -9.405  10.048  66.129  1.00  0.00    -0.173 C  
HETATM   19  O   UNL     2      -7.215  11.731  68.188  1.00  0.00    -0.076 OA 
HETATM   20  C   UNL     2      -8.166  11.238  67.614  1.00  0.00    -0.120 C  
HETATM   21  C   UNL     2     -10.216  10.372  67.323  1.00  0.00    -0.211 C  
HETATM   22  O   UNL     2      -9.842  11.337  69.501  1.00  0.00    -0.413 OA 
HETATM   23  O   UNL     2      -8.218  10.843  66.306  1.00  0.00    -0.156 OA 
HETATM   24  H   UNL     2     -10.691  11.185  69.898  1.00  0.00     0.000 HD 
HETATM   25  O   UNL     2     -11.508   9.956  67.464  1.00  0.00    -0.462 OA 
HETATM   26  C   UNL     2      -9.481  11.003  68.228  1.00  0.00    -0.172 C  
HETATM   27  H   UNL     2     -12.028  10.164  68.232  1.00  0.00     0.000 HD 
ENDBRANCH   4  18
TORSDOF 3
ENDMDL
MODEL       99
REMARK 921   NORMALIZED FREE ENERGY PREDICTED BY IDOCK:   -4.08 KCAL/MOL
REMARK 922        TOTAL FREE ENERGY PREDICTED BY IDOCK:   -5.91 KCAL/MOL
REMARK 923 INTER-LIGAND FREE ENERGY PREDICTED BY IDOCK:   -4.90 KCAL/MOL
REMARK 924 INTRA-LIGAND FREE ENERGY PREDICTED BY IDOCK:   -1.01 KCAL/MOL
REMARK 927      BINDING AFFINITY PREDICTED BY RF-SCORE:    0.00 PKD
ROOT
HETATM    1  N   UNL     1      -8.748  20.515  66.339  1.00  0.00    -0.547 N  
HETATM    2  H2  UNL     1      -9.202  20.462  65.428  1.00  0.00     0.000 HD 
HETATM    3  C   UNL     1      -7.422  20.202  66.465  1.00  0.00    -0.277 C  
HETATM    4  C   UNL     2      -9.561  16.796  65.705  1.00  0.00     0.065 C  
HETATM    5  H1  UNL     1      -9.281  20.801  67.161  1.00  0.00     0.000 HD 
HETATM    6  O   UNL     2     -10.719  17.662  65.758  1.00  0.00    -0.408 OA 
HETATM    7  H   UNL     2     -10.421  18.553  65.899  1.00  0.00     0.000 HD 
HETATM    8  O   UNL     1      -6.782  19.859  65.478  1.00  0.00    -0.256 OA 
ENDROOT
BRANCH   4   9
HETATM    9  C   UNL     2     -10.039  15.363  65.478  1.00  0.00    -0.373 C  
HETATM   10  O   UNL     2     -11.234  15.145  66.235  1.00  0.00    -0.337 OA 
HETATM   11  H   UNL     2     -11.532  14.254  66.094  1.00  0.00     0.000 HD 
ENDBRANCH   4   9
BRANCH   3  12
HETATM   12  C   UNL     1      -6.809  20.226  67.816  1.00  0.00    -0.323 A  
HETATM   13  C   UNL     1      -7.470  19.567  68.848  1.00  0.00    -0.357 A  
HETATM   14  C   UNL     1      -5.127  20.832  69.434  1.00  0.00    -0.355 A  
HETATM   15  C   UNL     1      -5.618  20.884  68.129  1.00  0.00    -0.359 A  
HETATM   16  C   UNL     1      -5.849  20.130  70.386  1.00  0.00    -0.343 A  
HETATM   17  N   UNL     1      -7.016  19.506  70.126  1.00  0.00     0.019 NA 
ENDBRANCH   3  12
BRANCH   4  18
HETATM   18  C   UNL     2      -8.732  16.999  66.976  1.00  0.00    -0.221 C  
HETATM   19  O   UNL     2      -8.175  15.519  70.037  1.00  0.00     0.011 OA 
HETATM   20  C   UNL     2      -8.151  15.930  68.893  1.00  0.00    -0.214 C  
HETATM   21  C   UNL     2      -7.297  16.639  66.942  1.00  0.00    -0.225 C  
HETATM   22  O   UNL     2      -5.666  15.744  68.477  1.00  0.00    -0.096 OA 
HETATM   23  O   UNL     2      -9.225  16.297  68.131  1.00  0.00    -0.194 OA 
HETATM   24  H   UNL     2      -4.878  15.840  67.956  1.00  0.00     0.000 HD 
HETATM   25  O   UNL     2      -6.487  16.962  65.893  1.00  0.00     0.014 OA 
HETATM   26  C   UNL     2      -6.931  16.080  68.086  1.00  0.00    -0.122 C  
HETATM   27  H   UNL     2      -5.565  16.730  65.872  1.00  0.00     0.000 HD 
ENDBRANCH   4  18
TORSDOF 3
ENDMDL
MODEL      100
REMARK 921   NORMALIZED FREE ENERGY PREDICTED BY IDOCK:   -4.08 KCAL/MOL
REMARK 922        TOTAL FREE ENERGY PREDICTED BY IDOCK:   -5.91 KCAL/MOL
REMARK 923 INTER-LIGAND FREE ENERGY PREDICTED BY IDOCK:   -5.44 KCAL/MOL
REMARK 924 INTRA-LIGAND FREE ENERGY PREDICTED BY IDOCK:   -0.47 KCAL/MOL
REMARK 927      BINDING AFFINITY PREDICTED BY RF-SCORE:    0.00 PKD
ROOT
HETATM    1  N   UNL     1      -7.649  13.209  69.104  1.00  0.00    -0.323 N  
HETATM    2  H2  UNL     1      -6.683  13.259  69.425  1.00  0.00     0.000 HD 
HETATM    3  C   UNL     1      -7.923  12.973  67.785  1.00  0.00    -0.164 C  
HETATM    4  C   UNL     2      -6.348  16.728  68.201  1.00  0.00    -0.139 C  
HETATM    5  H1  UNL     1      -8.415  13.334  69.766  1.00  0.00     0.000 HD 
HETATM    6  O   UNL     2      -6.357  16.438  69.619  1.00  0.00    -0.204 OA 
HETATM    7  H   UNL     2      -6.673  15.550  69.742  1.00  0.00     0.000 HD 
HETATM    8  O   UNL     1      -7.003  12.822  66.990  1.00  0.00    -0.052 OA 
ENDROOT
BRANCH   4   9
HETATM    9  C   UNL     2      -5.839  18.155  68.003  1.00  0.00    -0.164 C  
HETATM   10  O   UNL     2      -5.185  18.245  66.734  1.00  0.00    -0.131 OA 
HETATM   11  H   UNL     2      -4.868  19.133  66.611  1.00  0.00     0.000 HD 
ENDBRANCH   4   9
BRANCH   3  12
HETATM   12  C   UNL     1      -9.339  12.972  67.340  1.00  0.00    -0.209 A  
HETATM   13  C   UNL     1     -10.224  12.104  67.971  1.00  0.00    -0.201 A  
HETATM   14  C   UNL     1     -11.197  13.698  65.984  1.00  0.00    -0.302 A  
HETATM   15  C   UNL     1      -9.843  13.773  66.313  1.00  0.00    -0.314 A  
HETATM   16  C   UNL     1     -12.001  12.816  66.688  1.00  0.00    -0.341 A  
HETATM   17  N   UNL     1     -11.544  12.008  67.666  1.00  0.00    -0.415 NA 
ENDBRANCH   3  12
BRANCH   4  18
HETATM   18  C   UNL     2      -7.745  16.463  67.633  1.00  0.00    -0.144 C  
HETATM   19  O   UNL     2     -11.059  16.694  68.544  1.00  0.00    -0.349 OA 
HETATM   20  C   UNL     2      -9.937  16.830  68.097  1.00  0.00    -0.270 C  
HETATM   21  C   UNL     2      -8.310  17.441  66.678  1.00  0.00    -0.263 C  
HETATM   22  O   UNL     2     -10.489  18.320  66.134  1.00  0.00    -0.420 OA 
HETATM   23  O   UNL     2      -8.779  16.329  68.624  1.00  0.00    -0.204 OA 
HETATM   24  H   UNL     2     -10.276  18.822  65.357  1.00  0.00     0.000 HD 
HETATM   25  O   UNL     2      -7.574  17.984  65.665  1.00  0.00    -0.545 OA 
HETATM   26  C   UNL     2      -9.607  17.608  66.894  1.00  0.00    -0.286 C  
HETATM   27  H   UNL     2      -7.937  18.612  65.051  1.00  0.00     0.000 HD 
ENDBRANCH   4  18
TORSDOF 3
ENDMDL
MODEL      101
REMARK 921   NORMALIZED FREE ENERGY PREDICTED BY IDOCK:   -4.08 KCAL/MOL
REMARK 922        TOTAL FREE ENERGY PREDICTED BY IDOCK:   -5.91 KCAL/MOL
REMARK 923 INTER-LIGAND FREE ENERGY PREDICTED BY IDOCK:   -5.19 KCAL/MOL
REMARK 924 INTRA-LIGAND FREE ENERGY PREDICTED BY IDOCK:   -0.72 KCAL/MOL
REMARK 927      BINDING AFFINITY PREDICTED BY RF-SCORE:    0.00 PKD
ROOT
HETATM    1  N   UNL     1     -10.795  13.804  64.170  1.00  0.00    -0.568 N  
HETATM    2  H2  UNL     1     -11.422  14.596  64.301  1.00  0.00     0.000 HD 
HETATM    3  C   UNL     1     -11.022  12.630  64.835  1.00  0.00    -0.293 C  
HETATM    4  C   UNL     2      -9.791  15.488  67.494  1.00  0.00    -0.220 C  
HETATM    5  H1  UNL     1      -9.995  13.883  63.542  1.00  0.00     0.000 HD 
HETATM    6  O   UNL     2      -9.655  16.335  66.328  1.00  0.00    -0.268 OA 
HETATM    7  H   UNL     2      -9.940  15.844  65.565  1.00  0.00     0.000 HD 
HETATM    8  O   UNL     1     -11.983  12.535  65.589  1.00  0.00    -0.423 OA 
ENDROOT
BRANCH   4   9
HETATM    9  C   UNL     2      -9.333  16.277  68.720  1.00  0.00    -0.235 C  
HETATM   10  O   UNL     2      -9.443  17.677  68.441  1.00  0.00    -0.278 OA 
HETATM   11  H   UNL     2      -9.159  18.168  69.204  1.00  0.00     0.000 HD 
ENDBRANCH   4   9
BRANCH   3  12
HETATM   12  C   UNL     1     -10.053  11.519  64.671  1.00  0.00    -0.318 A  
HETATM   13  C   UNL     1      -9.764  10.732  65.781  1.00  0.00    -0.228 A  
HETATM   14  C   UNL     1      -8.508  10.140  63.434  1.00  0.00    -0.185 A  
HETATM   15  C   UNL     1      -9.393  11.218  63.477  1.00  0.00    -0.217 A  
HETATM   16  C   UNL     1      -8.304   9.404  64.590  1.00  0.00    -0.157 A  
HETATM   17  N   UNL     1      -8.903   9.682  65.766  1.00  0.00    -0.149 NA 
ENDBRANCH   3  12
BRANCH   4  18
HETATM   18  C   UNL     2      -9.027  14.184  67.251  1.00  0.00    -0.214 C  
HETATM   19  O   UNL     2      -5.816  12.939  67.365  1.00  0.00    -0.248 OA 
HETATM   20  C   UNL     2      -6.974  13.261  67.550  1.00  0.00    -0.144 C  
HETATM   21  C   UNL     2      -9.089  13.132  68.288  1.00  0.00    -0.181 C  
HETATM   22  O   UNL     2      -7.620  11.436  69.172  1.00  0.00    -0.245 OA 
HETATM   23  O   UNL     2      -7.615  14.351  67.029  1.00  0.00    -0.069 OA 
HETATM   24  H   UNL     2      -8.226  10.967  69.734  1.00  0.00     0.000 HD 
HETATM   25  O   UNL     2     -10.252  12.790  68.914  1.00  0.00    -0.409 OA 
HETATM   26  C   UNL     2      -7.913  12.536  68.419  1.00  0.00    -0.139 C  
HETATM   27  H   UNL     2     -10.292  12.114  69.581  1.00  0.00     0.000 HD 
ENDBRANCH   4  18
TORSDOF 3
ENDMDL
MODEL      102
REMARK 921   NORMALIZED FREE ENERGY PREDICTED BY IDOCK:   -4.07 KCAL/MOL
REMARK 922        TOTAL FREE ENERGY PREDICTED BY IDOCK:   -5.90 KCAL/MOL
REMARK 923 INTER-LIGAND FREE ENERGY PREDICTED BY IDOCK:   -4.93 KCAL/MOL
REMARK 924 INTRA-LIGAND FREE ENERGY PREDICTED BY IDOCK:   -0.98 KCAL/MOL
REMARK 927      BINDING AFFINITY PREDICTED BY RF-SCORE:    0.00 PKD
ROOT
HETATM    1  N   UNL     1     -11.391   8.278  69.590  1.00  0.00    -0.437 N  
HETATM    2  H2  UNL     1     -11.687   8.834  70.391  1.00  0.00     0.000 HD 
HETATM    3  C   UNL     1     -10.061   8.042  69.373  1.00  0.00    -0.197 C  
HETATM    4  C   UNL     2     -10.886  11.982  68.631  1.00  0.00    -0.237 C  
HETATM    5  H1  UNL     1     -12.084   7.895  68.947  1.00  0.00     0.000 HD 
HETATM    6  O   UNL     2     -12.257  11.618  68.915  1.00  0.00    -0.377 OA 
HETATM    7  H   UNL     2     -12.281  10.699  69.157  1.00  0.00     0.000 HD 
HETATM    8  O   UNL     1      -9.227   8.501  70.144  1.00  0.00    -0.151 OA 
ENDROOT
BRANCH   4   9
HETATM    9  C   UNL     2     -10.849  13.459  68.242  1.00  0.00    -0.256 C  
HETATM   10  O   UNL     2     -12.038  13.780  67.514  1.00  0.00    -0.384 OA 
HETATM   11  H   UNL     2     -12.016  14.698  67.272  1.00  0.00     0.000 HD 
ENDBRANCH   4   9
BRANCH   3  12
HETATM   12  C   UNL     1      -9.661   7.284  68.162  1.00  0.00    -0.145 A  
HETATM   13  C   UNL     1     -10.537   6.321  67.670  1.00  0.00    -0.271 A  
HETATM   14  C   UNL     1      -8.181   6.695  66.350  1.00  0.00    -0.117 A  
HETATM   15  C   UNL     1      -8.449   7.457  67.488  1.00  0.00    -0.116 A  
HETATM   16  C   UNL     1      -9.129   5.777  65.928  1.00  0.00    -0.137 A  
HETATM   17  N   UNL     1     -10.296   5.564  66.569  1.00  0.00    -0.245 NA 
ENDBRANCH   3  12
BRANCH   4  18
HETATM   18  C   UNL     2     -10.330  11.028  67.571  1.00  0.00    -0.198 C  
HETATM   19  O   UNL     2     -10.243  10.636  64.149  1.00  0.00    -0.347 OA 
HETATM   20  C   UNL     2     -10.037  10.863  65.325  1.00  0.00    -0.280 C  
HETATM   21  C   UNL     2      -8.891  11.111  67.238  1.00  0.00    -0.144 C  
HETATM   22  O   UNL     2      -7.512  10.820  65.281  1.00  0.00    -0.337 OA 
HETATM   23  O   UNL     2     -10.974  11.118  66.287  1.00  0.00    -0.251 OA 
HETATM   24  H   UNL     2      -6.650  10.871  65.676  1.00  0.00     0.000 HD 
HETATM   25  O   UNL     2      -7.925  11.236  68.194  1.00  0.00    -0.118 OA 
HETATM   26  C   UNL     2      -8.703  10.943  65.937  1.00  0.00    -0.183 C  
HETATM   27  H   UNL     2      -7.001  11.289  67.981  1.00  0.00     0.000 HD 
ENDBRANCH   4  18
TORSDOF 3
ENDMDL
MODEL      103
REMARK 921   NORMALIZED FREE ENERGY PREDICTED BY IDOCK:   -4.04 KCAL/MOL
REMARK 922        TOTAL FREE ENERGY PREDICTED BY IDOCK:   -5.87 KCAL/MOL
REMARK 923 INTER-LIGAND FREE ENERGY PREDICTED BY IDOCK:   -4.85 KCAL/MOL
REMARK 924 INTRA-LIGAND FREE ENERGY PREDICTED BY IDOCK:   -1.02 KCAL/MOL
REMARK 927      BINDING AFFINITY PREDICTED BY RF-SCORE:    0.00 PKD
ROOT
HETATM    1  N   UNL     1      -9.754   8.402  65.845  1.00  0.00    -0.465 N  
HETATM    2  H2  UNL     1      -9.278   7.608  65.417  1.00  0.00     0.000 HD 
HETATM    3  C   UNL     1      -9.078   9.227  66.701  1.00  0.00    -0.143 C  
HETATM    4  C   UNL     2      -9.666   5.591  68.488  1.00  0.00    -0.134 C  
HETATM    5  H1  UNL     1     -10.735   8.584  65.635  1.00  0.00     0.000 HD 
HETATM    6  O   UNL     2     -10.395   5.259  67.283  1.00  0.00    -0.206 OA 
HETATM    7  H   UNL     2     -10.348   5.999  66.689  1.00  0.00     0.000 HD 
HETATM    8  O   UNL     1      -7.899   9.009  66.954  1.00  0.00    -0.100 OA 
ENDROOT
BRANCH   4   9
HETATM    9  C   UNL     2      -9.743   4.401  69.443  1.00  0.00    -0.197 C  
HETATM   10  O   UNL     2      -8.428   4.099  69.919  1.00  0.00    -0.060 OA 
HETATM   11  H   UNL     2      -8.476   3.359  70.513  1.00  0.00     0.000 HD 
ENDBRANCH   4   9
BRANCH   3  12
HETATM   12  C   UNL     1      -9.818  10.334  67.357  1.00  0.00    -0.214 A  
HETATM   13  C   UNL     1     -11.128  10.098  67.761  1.00  0.00    -0.227 A  
HETATM   14  C   UNL     1     -10.077  12.572  68.216  1.00  0.00    -0.228 A  
HETATM   15  C   UNL     1      -9.293  11.609  67.580  1.00  0.00    -0.178 A  
HETATM   16  C   UNL     1     -11.364  12.232  68.600  1.00  0.00    -0.291 A  
HETATM   17  N   UNL     1     -11.913  11.021  68.376  1.00  0.00    -0.581 NA 
ENDBRANCH   3  12
BRANCH   4  18
HETATM   18  C   UNL     2     -10.217   6.903  69.054  1.00  0.00    -0.181 C  
HETATM   19  O   UNL     2     -12.460   8.029  71.414  1.00  0.00    -0.311 OA 
HETATM   20  C   UNL     2     -11.494   7.689  70.759  1.00  0.00    -0.277 C  
HETATM   21  C   UNL     2      -9.379   7.660  70.009  1.00  0.00    -0.154 C  
HETATM   22  O   UNL     2      -9.732   9.055  71.945  1.00  0.00    -0.299 OA 
HETATM   23  O   UNL     2     -11.475   6.776  69.741  1.00  0.00    -0.304 OA 
HETATM   24  H   UNL     2      -8.848   9.377  72.081  1.00  0.00     0.000 HD 
HETATM   25  O   UNL     2      -8.042   7.851  69.817  1.00  0.00    -0.112 OA 
HETATM   26  C   UNL     2     -10.127   8.185  70.970  1.00  0.00    -0.187 C  
HETATM   27  H   UNL     2      -7.504   8.338  70.431  1.00  0.00     0.000 HD 
ENDBRANCH   4  18
TORSDOF 3
ENDMDL
MODEL      104
REMARK 921   NORMALIZED FREE ENERGY PREDICTED BY IDOCK:   -4.04 KCAL/MOL
REMARK 922        TOTAL FREE ENERGY PREDICTED BY IDOCK:   -5.87 KCAL/MOL
REMARK 923 INTER-LIGAND FREE ENERGY PREDICTED BY IDOCK:   -5.20 KCAL/MOL
REMARK 924 INTRA-LIGAND FREE ENERGY PREDICTED BY IDOCK:   -0.67 KCAL/MOL
REMARK 927      BINDING AFFINITY PREDICTED BY RF-SCORE:    0.00 PKD
ROOT
HETATM    1  N   UNL     1      -8.842   8.330  70.429  1.00  0.00    -0.138 N  
HETATM    2  H2  UNL     1      -8.090   7.753  70.053  1.00  0.00     0.000 HD 
HETATM    3  C   UNL     1     -10.127   8.150  69.996  1.00  0.00    -0.196 C  
HETATM    4  C   UNL     2      -7.897   9.821  66.998  1.00  0.00    -0.102 C  
HETATM    5  H1  UNL     1      -8.640   9.042  71.130  1.00  0.00     0.000 HD 
HETATM    6  O   UNL     2      -6.827   9.832  67.971  1.00  0.00    -0.071 OA 
HETATM    7  H   UNL     2      -7.145   9.432  68.772  1.00  0.00     0.000 HD 
HETATM    8  O   UNL     1     -10.372   7.294  69.154  1.00  0.00    -0.195 OA 
ENDROOT
BRANCH   4   9
HETATM    9  C   UNL     2      -7.385  10.464  65.709  1.00  0.00    -0.147 C  
HETATM   10  O   UNL     2      -6.508  11.543  66.044  1.00  0.00    -0.367 OA 
HETATM   11  H   UNL     2      -6.189  11.943  65.243  1.00  0.00     0.000 HD 
ENDBRANCH   4   9
BRANCH   3  12
HETATM   12  C   UNL     1     -11.187   9.049  70.516  1.00  0.00    -0.301 A  
HETATM   13  C   UNL     1     -12.237   8.482  71.230  1.00  0.00    -0.277 A  
HETATM   14  C   UNL     1     -12.255  11.183  70.865  1.00  0.00    -0.468 A  
HETATM   15  C   UNL     1     -11.213  10.432  70.320  1.00  0.00    -0.395 A  
HETATM   16  C   UNL     1     -13.243  10.525  71.579  1.00  0.00    -0.371 A  
HETATM   17  N   UNL     1     -13.265   9.190  71.765  1.00  0.00    -0.370 NA 
ENDBRANCH   3  12
BRANCH   4  18
HETATM   18  C   UNL     2      -9.127  10.500  67.606  1.00  0.00    -0.142 C  
HETATM   19  O   UNL     2     -10.251  13.634  68.493  1.00  0.00    -0.237 OA 
HETATM   20  C   UNL     2     -10.002  12.562  67.974  1.00  0.00    -0.219 C  
HETATM   21  C   UNL     2     -10.309  10.713  66.742  1.00  0.00    -0.245 C  
HETATM   22  O   UNL     2     -12.048  12.367  66.507  1.00  0.00    -0.599 OA 
HETATM   23  O   UNL     2      -8.878  11.805  68.158  1.00  0.00    -0.157 OA 
HETATM   24  H   UNL     2     -12.610  11.930  65.879  1.00  0.00     0.000 HD 
HETATM   25  O   UNL     2     -10.775   9.754  65.891  1.00  0.00     0.053 OA 
HETATM   26  C   UNL     2     -10.871  11.885  67.001  1.00  0.00    -0.259 C  
HETATM   27  H   UNL     2     -11.535   9.891  65.336  1.00  0.00     0.000 HD 
ENDBRANCH   4  18
TORSDOF 3
ENDMDL
MODEL      105
REMARK 921   NORMALIZED FREE ENERGY PREDICTED BY IDOCK:   -4.02 KCAL/MOL
REMARK 922        TOTAL FREE ENERGY PREDICTED BY IDOCK:   -5.84 KCAL/MOL
REMARK 923 INTER-LIGAND FREE ENERGY PREDICTED BY IDOCK:   -5.35 KCAL/MOL
REMARK 924 INTRA-LIGAND FREE ENERGY PREDICTED BY IDOCK:   -0.49 KCAL/MOL
REMARK 927      BINDING AFFINITY PREDICTED BY RF-SCORE:    0.00 PKD
ROOT
HETATM    1  N   UNL     1      -6.916  13.045  66.987  1.00  0.00    -0.305 N  
HETATM    2  H2  UNL     1      -6.736  12.042  67.024  1.00  0.00     0.000 HD 
HETATM    3  C   UNL     1      -6.732  13.816  68.101  1.00  0.00    -0.124 C  
HETATM    4  C   UNL     2     -10.001  11.410  68.634  1.00  0.00    -0.202 C  
HETATM    5  H1  UNL     1      -7.235  13.476  66.120  1.00  0.00     0.000 HD 
HETATM    6  O   UNL     2      -9.744  10.976  67.278  1.00  0.00    -0.164 OA 
HETATM    7  H   UNL     2      -8.962  11.415  66.964  1.00  0.00     0.000 HD 
HETATM    8  O   UNL     1      -6.350  13.299  69.144  1.00  0.00    -0.092 OA 
ENDROOT
BRANCH   4   9
HETATM    9  C   UNL     2     -11.259  10.704  69.138  1.00  0.00    -0.265 C  
HETATM   10  O   UNL     2     -12.152  10.503  68.038  1.00  0.00    -0.697 OA 
HETATM   11  H   UNL     2     -12.935  10.063  68.351  1.00  0.00     0.000 HD 
ENDBRANCH   4   9
BRANCH   3  12
HETATM   12  C   UNL     1      -7.067  15.260  68.031  1.00  0.00    -0.139 A  
HETATM   13  C   UNL     1      -7.711  15.838  69.121  1.00  0.00    -0.220 A  
HETATM   14  C   UNL     1      -7.145  17.430  66.981  1.00  0.00    -0.216 A  
HETATM   15  C   UNL     1      -6.795  16.080  66.933  1.00  0.00    -0.089 A  
HETATM   16  C   UNL     1      -7.764  17.915  68.122  1.00  0.00    -0.256 A  
HETATM   17  N   UNL     1      -8.066  17.147  69.189  1.00  0.00    -0.101 NA 
ENDBRANCH   3  12
BRANCH   4  18
HETATM   18  C   UNL     2     -10.072  12.939  68.659  1.00  0.00    -0.128 C  
HETATM   19  O   UNL     2     -10.700  15.593  66.553  1.00  0.00    -0.307 OA 
HETATM   20  C   UNL     2     -10.718  14.696  67.374  1.00  0.00    -0.280 C  
HETATM   21  C   UNL     2     -11.277  13.575  69.235  1.00  0.00    -0.231 C  
HETATM   22  O   UNL     2     -12.587  15.561  68.837  1.00  0.00    -0.491 OA 
HETATM   23  O   UNL     2      -9.950  13.565  67.369  1.00  0.00    -0.228 OA 
HETATM   24  H   UNL     2     -13.170  15.528  69.586  1.00  0.00     0.000 HD 
HETATM   25  O   UNL     2     -11.850  13.139  70.395  1.00  0.00    -0.501 OA 
HETATM   26  C   UNL     2     -11.620  14.646  68.534  1.00  0.00    -0.317 C  
HETATM   27  H   UNL     2     -12.624  13.548  70.765  1.00  0.00     0.000 HD 
ENDBRANCH   4  18
TORSDOF 3
ENDMDL
MODEL      106
REMARK 921   NORMALIZED FREE ENERGY PREDICTED BY IDOCK:   -4.02 KCAL/MOL
REMARK 922        TOTAL FREE ENERGY PREDICTED BY IDOCK:   -5.84 KCAL/MOL
REMARK 923 INTER-LIGAND FREE ENERGY PREDICTED BY IDOCK:   -5.16 KCAL/MOL
REMARK 924 INTRA-LIGAND FREE ENERGY PREDICTED BY IDOCK:   -0.68 KCAL/MOL
REMARK 927      BINDING AFFINITY PREDICTED BY RF-SCORE:    0.00 PKD
ROOT
HETATM    1  N   UNL     1     -10.263  11.550  69.492  1.00  0.00    -0.396 N  
HETATM    2  H2  UNL     1     -10.624  11.759  70.423  1.00  0.00     0.000 HD 
HETATM    3  C   UNL     1     -11.090  11.024  68.538  1.00  0.00    -0.243 C  
HETATM    4  C   UNL     2     -10.380   8.212  71.426  1.00  0.00    -0.208 C  
HETATM    5  H1  UNL     1      -9.284  11.732  69.270  1.00  0.00     0.000 HD 
HETATM    6  O   UNL     2      -9.506   9.210  72.005  1.00  0.00    -0.323 OA 
HETATM    7  H   UNL     2      -9.556   9.997  71.475  1.00  0.00     0.000 HD 
HETATM    8  O   UNL     1     -12.266  10.805  68.804  1.00  0.00    -0.460 OA 
ENDROOT
BRANCH   4   9
HETATM    9  C   UNL     2     -10.299   6.946  72.279  1.00  0.00    -0.196 C  
HETATM   10  O   UNL     2      -8.940   6.502  72.326  1.00  0.00    -0.138 OA 
HETATM   11  H   UNL     2      -8.890   5.715  72.857  1.00  0.00     0.000 HD 
ENDBRANCH   4   9
BRANCH   3  12
HETATM   12  C   UNL     1     -10.517  10.671  67.216  1.00  0.00    -0.293 A  
HETATM   13  C   UNL     1     -10.244  11.701  66.322  1.00  0.00    -0.227 A  
HETATM   14  C   UNL     1      -9.699   9.150  65.532  1.00  0.00    -0.171 A  
HETATM   15  C   UNL     1     -10.249   9.365  66.796  1.00  0.00    -0.320 A  
HETATM   16  C   UNL     1      -9.443  10.246  64.724  1.00  0.00    -0.283 A  
HETATM   17  N   UNL     1      -9.715  11.517  65.085  1.00  0.00    -0.239 NA 
ENDBRANCH   3  12
BRANCH   4  18
HETATM   18  C   UNL     2     -10.003   8.017  69.955  1.00  0.00    -0.191 C  
HETATM   19  O   UNL     2      -7.384   6.886  68.024  1.00  0.00    -0.092 OA 
HETATM   20  C   UNL     2      -8.408   7.056  68.656  1.00  0.00    -0.122 C  
HETATM   21  C   UNL     2     -10.566   6.854  69.236  1.00  0.00    -0.226 C  
HETATM   22  O   UNL     2      -9.856   5.340  67.498  1.00  0.00    -0.138 OA 
HETATM   23  O   UNL     2      -8.589   7.908  69.709  1.00  0.00    -0.130 OA 
HETATM   24  H   UNL     2     -10.667   4.871  67.344  1.00  0.00     0.000 HD 
HETATM   25  O   UNL     2     -11.875   6.484  69.354  1.00  0.00    -0.636 OA 
HETATM   26  C   UNL     2      -9.664   6.329  68.419  1.00  0.00    -0.124 C  
HETATM   27  H   UNL     2     -12.237   5.737  68.892  1.00  0.00     0.000 HD 
ENDBRANCH   4  18
TORSDOF 3
ENDMDL
MODEL      107
REMARK 921   NORMALIZED FREE ENERGY PREDICTED BY IDOCK:   -4.01 KCAL/MOL
REMARK 922        TOTAL FREE ENERGY PREDICTED BY IDOCK:   -5.82 KCAL/MOL
REMARK 923 INTER-LIGAND FREE ENERGY PREDICTED BY IDOCK:   -4.62 KCAL/MOL
REMARK 924 INTRA-LIGAND FREE ENERGY PREDICTED BY IDOCK:   -1.20 KCAL/MOL
REMARK 927      BINDING AFFINITY PREDICTED BY RF-SCORE:    0.00 PKD
ROOT
HETATM    1  N   UNL     1      -6.496  11.605  66.136  1.00  0.00    -0.326 N  
HETATM    2  H2  UNL     1      -6.603  12.199  65.315  1.00  0.00     0.000 HD 
HETATM    3  C   UNL     1      -6.715  10.258  66.041  1.00  0.00    -0.114 C  
HETATM    4  C   UNL     2     -10.277  12.247  65.699  1.00  0.00    -0.261 C  
HETATM    5  H1  UNL     1      -6.226  12.012  67.031  1.00  0.00     0.000 HD 
HETATM    6  O   UNL     2      -9.490  13.438  65.934  1.00  0.00    -0.474 OA 
HETATM    7  H   UNL     2      -8.577  13.185  66.011  1.00  0.00     0.000 HD 
HETATM    8  O   UNL     1      -7.040   9.768  64.966  1.00  0.00    -0.107 OA 
ENDROOT
BRANCH   4   9
HETATM    9  C   UNL     2     -11.744  12.654  65.576  1.00  0.00    -0.402 C  
HETATM   10  O   UNL     2     -12.079  13.525  66.661  1.00  0.00    -0.399 OA 
HETATM   11  H   UNL     2     -12.992  13.778  66.584  1.00  0.00     0.000 HD 
ENDBRANCH   4   9
BRANCH   3  12
HETATM   12  C   UNL     1      -6.616   9.432  67.269  1.00  0.00    -0.071 A  
HETATM   13  C   UNL     1      -7.005  10.002  68.477  1.00  0.00    -0.066 A  
HETATM   14  C   UNL     1      -6.098   7.431  68.513  1.00  0.00    -0.028 A  
HETATM   15  C   UNL     1      -6.138   8.119  67.300  1.00  0.00    -0.054 A  
HETATM   16  C   UNL     1      -6.529   8.080  69.658  1.00  0.00    -0.037 A  
HETATM   17  N   UNL     1      -6.970   9.355  69.671  1.00  0.00    -0.055 NA 
ENDBRANCH   3  12
BRANCH   4  18
HETATM   18  C   UNL     2      -9.985  11.234  66.810  1.00  0.00    -0.206 C  
HETATM   19  O   UNL     2     -11.326  10.099  69.774  1.00  0.00    -0.248 OA 
HETATM   20  C   UNL     2     -10.954  10.286  68.631  1.00  0.00    -0.244 C  
HETATM   21  C   UNL     2     -10.271   9.806  66.549  1.00  0.00    -0.219 C  
HETATM   22  O   UNL     2     -11.025   7.897  67.815  1.00  0.00    -0.491 OA 
HETATM   23  O   UNL     2     -10.671  11.490  68.048  1.00  0.00    -0.186 OA 
HETATM   24  H   UNL     2     -10.906   7.211  67.168  1.00  0.00     0.000 HD 
HETATM   25  O   UNL     2      -9.944   9.198  65.372  1.00  0.00    -0.428 OA 
HETATM   26  C   UNL     2     -10.770   9.225  67.630  1.00  0.00    -0.209 C  
HETATM   27  H   UNL     2     -10.127   8.281  65.204  1.00  0.00     0.000 HD 
ENDBRANCH   4  18
TORSDOF 3
ENDMDL
MODEL      108
REMARK 921   NORMALIZED FREE ENERGY PREDICTED BY IDOCK:   -4.00 KCAL/MOL
REMARK 922        TOTAL FREE ENERGY PREDICTED BY IDOCK:   -5.82 KCAL/MOL
REMARK 923 INTER-LIGAND FREE ENERGY PREDICTED BY IDOCK:   -5.04 KCAL/MOL
REMARK 924 INTRA-LIGAND FREE ENERGY PREDICTED BY IDOCK:   -0.78 KCAL/MOL
REMARK 927      BINDING AFFINITY PREDICTED BY RF-SCORE:    0.00 PKD
ROOT
HETATM    1  N   UNL     1     -11.208   9.749  67.732  1.00  0.00    -0.476 N  
HETATM    2  H2  UNL     1     -10.671   9.944  66.887  1.00  0.00     0.000 HD 
HETATM    3  C   UNL     1     -11.022  10.509  68.853  1.00  0.00    -0.246 C  
HETATM    4  C   UNL     2      -7.721   8.171  68.229  1.00  0.00    -0.114 C  
HETATM    5  H1  UNL     1     -11.885   8.986  67.743  1.00  0.00     0.000 HD 
HETATM    6  O   UNL     2      -8.470   7.629  67.116  1.00  0.00    -0.119 OA 
HETATM    7  H   UNL     2      -9.301   8.087  67.062  1.00  0.00     0.000 HD 
HETATM    8  O   UNL     1     -10.209  11.425  68.840  1.00  0.00    -0.207 OA 
ENDROOT
BRANCH   4   9
HETATM    9  C   UNL     2      -6.385   7.434  68.316  1.00  0.00    -0.040 C  
HETATM   10  O   UNL     2      -5.576   7.801  67.194  1.00  0.00    -0.030 OA 
HETATM   11  H   UNL     2      -4.745   7.343  67.249  1.00  0.00     0.000 HD 
ENDBRANCH   4   9
BRANCH   3  12
HETATM   12  C   UNL     1     -11.771  10.157  70.085  1.00  0.00    -0.330 A  
HETATM   13  C   UNL     1     -11.763   8.829  70.501  1.00  0.00    -0.094 A  
HETATM   14  C   UNL     1     -13.163  10.627  71.998  1.00  0.00    -0.473 A  
HETATM   15  C   UNL     1     -12.505  11.068  70.849  1.00  0.00    -0.509 A  
HETATM   16  C   UNL     1     -13.075   9.287  72.339  1.00  0.00    -0.406 A  
HETATM   17  N   UNL     1     -12.400   8.375  71.611  1.00  0.00    -0.307 NA 
ENDBRANCH   3  12
BRANCH   4  18
HETATM   18  C   UNL     2      -8.580   8.087  69.493  1.00  0.00    -0.136 C  
HETATM   19  O   UNL     2      -9.193   5.969  72.140  1.00  0.00    -0.146 OA 
HETATM   20  C   UNL     2      -8.833   6.843  71.375  1.00  0.00    -0.133 C  
HETATM   21  C   UNL     2      -8.162   8.867  70.678  1.00  0.00    -0.162 C  
HETATM   22  O   UNL     2      -8.242   8.615  73.075  1.00  0.00    -0.402 OA 
HETATM   23  O   UNL     2      -8.752   6.757  70.013  1.00  0.00    -0.139 OA 
HETATM   24  H   UNL     2      -7.946   9.476  73.343  1.00  0.00     0.000 HD 
HETATM   25  O   UNL     2      -7.727  10.158  70.588  1.00  0.00    -0.428 OA 
HETATM   26  C   UNL     2      -8.374   8.177  71.789  1.00  0.00    -0.142 C  
HETATM   27  H   UNL     2      -7.459  10.659  71.350  1.00  0.00     0.000 HD 
ENDBRANCH   4  18
TORSDOF 3
ENDMDL
MODEL      109
REMARK 921   NORMALIZED FREE ENERGY PREDICTED BY IDOCK:   -3.99 KCAL/MOL
REMARK 922        TOTAL FREE ENERGY PREDICTED BY IDOCK:   -5.80 KCAL/MOL
REMARK 923 INTER-LIGAND FREE ENERGY PREDICTED BY IDOCK:   -5.51 KCAL/MOL
REMARK 924 INTRA-LIGAND FREE ENERGY PREDICTED BY IDOCK:   -0.29 KCAL/MOL
REMARK 927      BINDING AFFINITY PREDICTED BY RF-SCORE:    0.00 PKD
ROOT
HETATM    1  N   UNL     1      -9.381   7.126  70.015  1.00  0.00    -0.155 N  
HETATM    2  H2  UNL     1      -9.766   6.519  70.738  1.00  0.00     0.000 HD 
HETATM    3  C   UNL     1      -8.504   8.121  70.350  1.00  0.00    -0.129 C  
HETATM    4  C   UNL     2     -12.240   9.081  71.717  1.00  0.00    -0.364 C  
HETATM    5  H1  UNL     1      -9.649   6.994  69.040  1.00  0.00     0.000 HD 
HETATM    6  O   UNL     2     -12.656   7.857  71.066  1.00  0.00    -0.487 OA 
HETATM    7  H   UNL     2     -11.888   7.439  70.693  1.00  0.00     0.000 HD 
HETATM    8  O   UNL     1      -8.182   8.279  71.521  1.00  0.00    -0.109 OA 
ENDROOT
BRANCH   4   9
HETATM    9  C   UNL     2     -13.476   9.753  72.315  1.00  0.00    -0.349 C  
HETATM   10  O   UNL     2     -14.071   8.869  73.269  1.00  0.00    -1.211 OA 
HETATM   11  H   UNL     2     -14.840   9.287  73.642  1.00  0.00     0.000 HD 
ENDBRANCH   4   9
BRANCH   3  12
HETATM   12  C   UNL     1      -8.014   9.027  69.283  1.00  0.00    -0.096 A  
HETATM   13  C   UNL     1      -7.562   8.460  68.096  1.00  0.00    -0.098 A  
HETATM   14  C   UNL     1      -7.487  11.176  68.321  1.00  0.00    -0.094 A  
HETATM   15  C   UNL     1      -7.957  10.419  69.395  1.00  0.00    -0.161 A  
HETATM   16  C   UNL     1      -7.080  10.517  67.173  1.00  0.00    -0.091 A  
HETATM   17  N   UNL     1      -7.094   9.175  67.039  1.00  0.00    -0.085 NA 
ENDBRANCH   3  12
BRANCH   4  18
HETATM   18  C   UNL     2     -11.469   9.940  70.712  1.00  0.00    -0.354 C  
HETATM   19  O   UNL     2     -11.028  10.280  67.312  1.00  0.00    -0.275 OA 
HETATM   20  C   UNL     2     -11.339  10.360  68.484  1.00  0.00    -0.220 C  
HETATM   21  C   UNL     2     -11.972  11.300  70.421  1.00  0.00    -0.380 C  
HETATM   22  O   UNL     2     -12.056  12.782  68.520  1.00  0.00    -0.270 OA 
HETATM   23  O   UNL     2     -11.326   9.351  69.407  1.00  0.00    -0.065 OA 
HETATM   24  H   UNL     2     -12.375  13.572  68.939  1.00  0.00     0.000 HD 
HETATM   25  O   UNL     2     -12.408  12.144  71.401  1.00  0.00    -0.182 OA 
HETATM   26  C   UNL     2     -11.833  11.583  69.133  1.00  0.00    -0.340 C  
HETATM   27  H   UNL     2     -12.731  13.018  71.214  1.00  0.00     0.000 HD 
ENDBRANCH   4  18
TORSDOF 3
ENDMDL
MODEL      110
REMARK 921   NORMALIZED FREE ENERGY PREDICTED BY IDOCK:   -3.98 KCAL/MOL
REMARK 922        TOTAL FREE ENERGY PREDICTED BY IDOCK:   -5.79 KCAL/MOL
REMARK 923 INTER-LIGAND FREE ENERGY PREDICTED BY IDOCK:   -5.15 KCAL/MOL
REMARK 924 INTRA-LIGAND FREE ENERGY PREDICTED BY IDOCK:   -0.64 KCAL/MOL
REMARK 927      BINDING AFFINITY PREDICTED BY RF-SCORE:    0.00 PKD
ROOT
HETATM    1  N   UNL     1     -10.380   8.914  72.120  1.00  0.00    -0.312 N  
HETATM    2  H2  UNL     1     -10.384   8.043  72.651  1.00  0.00     0.000 HD 
HETATM    3  C   UNL     1     -11.441   9.233  71.318  1.00  0.00    -0.347 C  
HETATM    4  C   UNL     2      -9.380   6.104  69.671  1.00  0.00    -0.146 C  
HETATM    5  H1  UNL     1      -9.585   9.549  72.186  1.00  0.00     0.000 HD 
HETATM    6  O   UNL     2      -8.472   6.281  70.783  1.00  0.00    -0.131 OA 
HETATM    7  H   UNL     2      -8.806   6.977  71.337  1.00  0.00     0.000 HD 
HETATM    8  O   UNL     1     -12.396   8.470  71.239  1.00  0.00    -0.307 OA 
ENDROOT
BRANCH   4   9
HETATM    9  C   UNL     2      -8.841   4.985  68.781  1.00  0.00    -0.093 C  
HETATM   10  O   UNL     2      -7.613   5.414  68.185  1.00  0.00    -0.079 OA 
HETATM   11  H   UNL     2      -7.278   4.718  67.631  1.00  0.00     0.000 HD 
ENDBRANCH   4   9
BRANCH   3  12
HETATM   12  C   UNL     1     -11.374  10.475  70.510  1.00  0.00    -0.400 A  
HETATM   13  C   UNL     1     -12.304  11.478  70.768  1.00  0.00    -0.375 A  
HETATM   14  C   UNL     1     -10.470  11.915  68.798  1.00  0.00    -0.207 A  
HETATM   15  C   UNL     1     -10.448  10.703  69.488  1.00  0.00    -0.236 A  
HETATM   16  C   UNL     1     -11.424  12.859  69.146  1.00  0.00    -0.306 A  
HETATM   17  N   UNL     1     -12.349  12.663  70.107  1.00  0.00    -0.208 NA 
ENDBRANCH   3  12
BRANCH   4  18
HETATM   18  C   UNL     2      -9.567   7.449  68.965  1.00  0.00    -0.148 C  
HETATM   19  O   UNL     2      -7.785   9.717  67.081  1.00  0.00    -0.092 OA 
HETATM   20  C   UNL     2      -8.508   8.844  67.520  1.00  0.00    -0.116 C  
HETATM   21  C   UNL     2     -10.273   7.466  67.665  1.00  0.00    -0.201 C  
HETATM   22  O   UNL     2     -10.156   8.722  65.609  1.00  0.00    -0.370 OA 
HETATM   23  O   UNL     2      -8.343   8.155  68.689  1.00  0.00    -0.124 OA 
HETATM   24  H   UNL     2     -10.930   8.391  65.169  1.00  0.00     0.000 HD 
HETATM   25  O   UNL     2     -11.412   6.748  67.442  1.00  0.00    -0.723 OA 
HETATM   26  C   UNL     2      -9.706   8.332  66.838  1.00  0.00    -0.225 C  
HETATM   27  H   UNL     2     -11.865   6.759  66.607  1.00  0.00     0.000 HD 
ENDBRANCH   4  18
TORSDOF 3
ENDMDL
MODEL      111
REMARK 921   NORMALIZED FREE ENERGY PREDICTED BY IDOCK:   -3.94 KCAL/MOL
REMARK 922        TOTAL FREE ENERGY PREDICTED BY IDOCK:   -5.75 KCAL/MOL
REMARK 923 INTER-LIGAND FREE ENERGY PREDICTED BY IDOCK:   -4.86 KCAL/MOL
REMARK 924 INTRA-LIGAND FREE ENERGY PREDICTED BY IDOCK:   -0.89 KCAL/MOL
REMARK 927      BINDING AFFINITY PREDICTED BY RF-SCORE:    0.00 PKD
ROOT
HETATM    1  N   UNL     1      -6.933  12.125  68.666  1.00  0.00    -0.091 N  
HETATM    2  H2  UNL     1      -6.117  12.598  68.279  1.00  0.00     0.000 HD 
HETATM    3  C   UNL     1      -7.984  11.797  67.854  1.00  0.00    -0.141 C  
HETATM    4  C   UNL     2      -7.850  15.859  68.336  1.00  0.00    -0.145 C  
HETATM    5  H1  UNL     1      -6.969  11.895  69.659  1.00  0.00     0.000 HD 
HETATM    6  O   UNL     2      -6.743  15.591  69.228  1.00  0.00    -0.132 OA 
HETATM    7  H   UNL     2      -6.580  14.654  69.232  1.00  0.00     0.000 HD 
HETATM    8  O   UNL     1      -7.941  12.073  66.661  1.00  0.00    -0.106 OA 
ENDROOT
BRANCH   4   9
HETATM    9  C   UNL     2      -8.112  17.365  68.332  1.00  0.00    -0.264 C  
HETATM   10  O   UNL     2      -6.871  18.054  68.155  1.00  0.00    -0.201 OA 
HETATM   11  H   UNL     2      -7.033  18.990  68.152  1.00  0.00     0.000 HD 
ENDBRANCH   4   9
BRANCH   3  12
HETATM   12  C   UNL     1      -9.184  11.169  68.461  1.00  0.00    -0.183 A  
HETATM   13  C   UNL     1      -9.004  10.341  69.564  1.00  0.00    -0.157 A  
HETATM   14  C   UNL     1     -11.544  10.707  68.644  1.00  0.00    -0.297 A  
HETATM   15  C   UNL     1     -10.487  11.338  67.987  1.00  0.00    -0.215 A  
HETATM   16  C   UNL     1     -11.262   9.918  69.748  1.00  0.00    -0.235 A  
HETATM   17  N   UNL     1     -10.015   9.711  70.217  1.00  0.00    -0.257 NA 
ENDBRANCH   3  12
BRANCH   4  18
HETATM   18  C   UNL     2      -9.047  15.004  68.760  1.00  0.00    -0.197 C  
HETATM   19  O   UNL     2     -11.933  15.233  70.627  1.00  0.00    -0.289 OA 
HETATM   20  C   UNL     2     -11.073  15.181  69.770  1.00  0.00    -0.278 C  
HETATM   21  C   UNL     2     -10.128  14.773  67.777  1.00  0.00    -0.224 C  
HETATM   22  O   UNL     2     -12.523  14.499  67.818  1.00  0.00    -0.597 OA 
HETATM   23  O   UNL     2      -9.749  15.489  69.919  1.00  0.00    -0.290 OA 
HETATM   24  H   UNL     2     -12.678  14.254  66.914  1.00  0.00     0.000 HD 
HETATM   25  O   UNL     2      -9.875  14.469  66.471  1.00  0.00    -0.262 OA 
HETATM   26  C   UNL     2     -11.312  14.803  68.370  1.00  0.00    -0.299 C  
HETATM   27  H   UNL     2     -10.569  14.321  65.839  1.00  0.00     0.000 HD 
ENDBRANCH   4  18
TORSDOF 3
ENDMDL
MODEL      112
REMARK 921   NORMALIZED FREE ENERGY PREDICTED BY IDOCK:   -3.91 KCAL/MOL
REMARK 922        TOTAL FREE ENERGY PREDICTED BY IDOCK:   -5.72 KCAL/MOL
REMARK 923 INTER-LIGAND FREE ENERGY PREDICTED BY IDOCK:   -4.83 KCAL/MOL
REMARK 924 INTRA-LIGAND FREE ENERGY PREDICTED BY IDOCK:   -0.88 KCAL/MOL
REMARK 927      BINDING AFFINITY PREDICTED BY RF-SCORE:    0.00 PKD
ROOT
HETATM    1  N   UNL     1      -7.018  13.022  70.047  1.00  0.00    -0.111 N  
HETATM    2  H2  UNL     1      -6.884  13.890  70.566  1.00  0.00     0.000 HD 
HETATM    3  C   UNL     1      -6.562  12.913  68.762  1.00  0.00    -0.090 C  
HETATM    4  C   UNL     2      -9.756  15.470  68.864  1.00  0.00    -0.223 C  
HETATM    5  H1  UNL     1      -7.492  12.232  70.484  1.00  0.00     0.000 HD 
HETATM    6  O   UNL     2      -9.818  15.137  70.270  1.00  0.00    -0.491 OA 
HETATM    7  H   UNL     2      -9.100  14.548  70.471  1.00  0.00     0.000 HD 
HETATM    8  O   UNL     1      -5.992  13.862  68.236  1.00  0.00    -0.095 OA 
ENDROOT
BRANCH   4   9
HETATM    9  C   UNL     2     -10.911  16.417  68.541  1.00  0.00    -0.350 C  
HETATM   10  O   UNL     2     -11.965  16.207  69.486  1.00  0.00    -0.242 OA 
HETATM   11  H   UNL     2     -12.684  16.796  69.285  1.00  0.00     0.000 HD 
ENDBRANCH   4   9
BRANCH   3  12
HETATM   12  C   UNL     1      -6.831  11.661  68.014  1.00  0.00    -0.072 A  
HETATM   13  C   UNL     1      -6.777  10.457  68.709  1.00  0.00    -0.053 A  
HETATM   14  C   UNL     1      -7.366  10.369  66.048  1.00  0.00    -0.134 A  
HETATM   15  C   UNL     1      -7.118  11.604  66.648  1.00  0.00    -0.025 A  
HETATM   16  C   UNL     1      -7.310   9.228  66.833  1.00  0.00    -0.090 A  
HETATM   17  N   UNL     1      -7.009   9.242  68.147  1.00  0.00    -0.075 NA 
ENDBRANCH   3  12
BRANCH   4  18
HETATM   18  C   UNL     2      -9.745  14.175  68.047  1.00  0.00    -0.226 C  
HETATM   19  O   UNL     2     -11.928  11.850  66.745  1.00  0.00    -0.613 OA 
HETATM   20  C   UNL     2     -11.152  12.760  66.965  1.00  0.00    -0.278 C  
HETATM   21  C   UNL     2      -9.536  14.269  66.586  1.00  0.00    -0.289 C  
HETATM   22  O   UNL     2     -10.285  13.095  64.617  1.00  0.00    -0.471 OA 
HETATM   23  O   UNL     2     -10.941  13.384  68.163  1.00  0.00    -0.239 OA 
HETATM   24  H   UNL     2      -9.735  13.505  63.960  1.00  0.00     0.000 HD 
HETATM   25  O   UNL     2      -8.593  15.086  66.033  1.00  0.00    -0.375 OA 
HETATM   26  C   UNL     2     -10.301  13.395  65.949  1.00  0.00    -0.290 C  
HETATM   27  H   UNL     2      -8.459  15.147  65.094  1.00  0.00     0.000 HD 
ENDBRANCH   4  18
TORSDOF 3
ENDMDL
MODEL      113
REMARK 921   NORMALIZED FREE ENERGY PREDICTED BY IDOCK:   -3.82 KCAL/MOL
REMARK 922        TOTAL FREE ENERGY PREDICTED BY IDOCK:   -5.61 KCAL/MOL
REMARK 923 INTER-LIGAND FREE ENERGY PREDICTED BY IDOCK:   -4.87 KCAL/MOL
REMARK 924 INTRA-LIGAND FREE ENERGY PREDICTED BY IDOCK:   -0.74 KCAL/MOL
REMARK 927      BINDING AFFINITY PREDICTED BY RF-SCORE:    0.00 PKD
ROOT
HETATM    1  N   UNL     1      -9.776  12.453  68.217  1.00  0.00    -0.220 N  
HETATM    2  H2  UNL     1     -10.035  12.605  69.191  1.00  0.00     0.000 HD 
HETATM    3  C   UNL     1     -10.632  11.802  67.372  1.00  0.00    -0.224 C  
HETATM    4  C   UNL     2      -9.111   9.142  70.085  1.00  0.00    -0.206 C  
HETATM    5  H1  UNL     1      -8.877  12.785  67.869  1.00  0.00     0.000 HD 
HETATM    6  O   UNL     2      -8.332  10.265  70.560  1.00  0.00    -0.335 OA 
HETATM    7  H   UNL     2      -8.574  11.033  70.057  1.00  0.00     0.000 HD 
HETATM    8  O   UNL     1     -11.713  11.403  67.790  1.00  0.00    -0.533 OA 
ENDROOT
BRANCH   4   9
HETATM    9  C   UNL     2      -8.720   7.906  70.894  1.00  0.00    -0.137 C  
HETATM   10  O   UNL     2      -7.325   7.975  71.207  1.00  0.00    -0.060 OA 
HETATM   11  H   UNL     2      -7.082   7.206  71.711  1.00  0.00     0.000 HD 
ENDBRANCH   4   9
BRANCH   3  12
HETATM   12  C   UNL     1     -10.197  11.540  65.979  1.00  0.00    -0.283 A  
HETATM   13  C   UNL     1      -8.991  10.874  65.782  1.00  0.00    -0.193 A  
HETATM   14  C   UNL     1     -10.408  11.624  63.577  1.00  0.00    -0.488 A  
HETATM   15  C   UNL     1     -10.908  11.934  64.842  1.00  0.00    -0.356 A  
HETATM   16  C   UNL     1      -9.208  10.938  63.489  1.00  0.00    -0.245 A  
HETATM   17  N   UNL     1      -8.481  10.566  64.562  1.00  0.00    -0.161 NA 
ENDBRANCH   3  12
BRANCH   4  18
HETATM   18  C   UNL     2      -8.911   9.005  68.573  1.00  0.00    -0.134 C  
HETATM   19  O   UNL     2      -6.647   7.732  66.309  1.00  0.00    -0.048 OA 
HETATM   20  C   UNL     2      -7.576   7.967  67.057  1.00  0.00    -0.096 C  
HETATM   21  C   UNL     2      -9.672   7.958  67.857  1.00  0.00    -0.155 C  
HETATM   22  O   UNL     2      -9.318   6.495  65.973  1.00  0.00    -0.321 OA 
HETATM   23  O   UNL     2      -7.551   8.763  68.169  1.00  0.00    -0.094 OA 
HETATM   24  H   UNL     2     -10.189   6.126  65.883  1.00  0.00     0.000 HD 
HETATM   25  O   UNL     2     -10.995   7.722  68.098  1.00  0.00    -0.443 OA 
HETATM   26  C   UNL     2      -8.923   7.396  66.920  1.00  0.00    -0.135 C  
HETATM   27  H   UNL     2     -11.484   7.050  67.638  1.00  0.00     0.000 HD 
ENDBRANCH   4  18
TORSDOF 3
ENDMDL
MODEL      114
REMARK 921   NORMALIZED FREE ENERGY PREDICTED BY IDOCK:   -3.77 KCAL/MOL
REMARK 922        TOTAL FREE ENERGY PREDICTED BY IDOCK:   -5.54 KCAL/MOL
REMARK 923 INTER-LIGAND FREE ENERGY PREDICTED BY IDOCK:   -4.46 KCAL/MOL
REMARK 924 INTRA-LIGAND FREE ENERGY PREDICTED BY IDOCK:   -1.08 KCAL/MOL
REMARK 927      BINDING AFFINITY PREDICTED BY RF-SCORE:    0.00 PKD
ROOT
HETATM    1  N   UNL     1     -10.976   7.337  67.435  1.00  0.00    -0.548 N  
HETATM    2  H2  UNL     1     -10.546   6.626  66.845  1.00  0.00     0.000 HD 
HETATM    3  C   UNL     1     -10.256   8.434  67.822  1.00  0.00    -0.224 C  
HETATM    4  C   UNL     2      -8.825   5.116  69.745  1.00  0.00    -0.106 C  
HETATM    5  H1  UNL     1     -11.944   7.234  67.739  1.00  0.00     0.000 HD 
HETATM    6  O   UNL     2      -9.899   4.418  69.072  1.00  0.00    -0.173 OA 
HETATM    7  H   UNL     2     -10.359   5.037  68.517  1.00  0.00     0.000 HD 
HETATM    8  O   UNL     1      -9.093   8.559  67.458  1.00  0.00    -0.133 OA 
ENDROOT
BRANCH   4   9
HETATM    9  C   UNL     2      -8.086   4.121  70.639  1.00  0.00    -0.059 C  
HETATM   10  O   UNL     2      -9.043   3.387  71.410  1.00  0.00    -0.095 OA 
HETATM   11  H   UNL     2      -8.584   2.768  71.965  1.00  0.00     0.000 HD 
ENDBRANCH   4   9
BRANCH   3  12
HETATM   12  C   UNL     1     -10.891   9.418  68.734  1.00  0.00    -0.147 A  
HETATM   13  C   UNL     1     -10.916  10.753  68.344  1.00  0.00    -0.248 A  
HETATM   14  C   UNL     1     -12.034  10.103  70.744  1.00  0.00    -0.442 A  
HETATM   15  C   UNL     1     -11.453   9.097  69.972  1.00  0.00    -0.034 A  
HETATM   16  C   UNL     1     -12.027  11.400  70.257  1.00  0.00    -0.373 A  
HETATM   17  N   UNL     1     -11.470  11.751  69.080  1.00  0.00    -0.270 NA 
ENDBRANCH   3  12
BRANCH   4  18
HETATM   18  C   UNL     2      -9.406   6.327  70.481  1.00  0.00    -0.162 C  
HETATM   19  O   UNL     2     -10.529   7.231  73.610  1.00  0.00    -0.365 OA 
HETATM   20  C   UNL     2      -9.921   7.037  72.575  1.00  0.00    -0.170 C  
HETATM   21  C   UNL     2      -8.482   7.406  70.894  1.00  0.00    -0.123 C  
HETATM   22  O   UNL     2      -8.290   8.960  72.728  1.00  0.00    -0.385 OA 
HETATM   23  O   UNL     2     -10.109   6.008  71.695  1.00  0.00    -0.184 OA 
HETATM   24  H   UNL     2      -7.578   9.503  72.411  1.00  0.00     0.000 HD 
HETATM   25  O   UNL     2      -7.502   7.883  70.073  1.00  0.00    -0.075 OA 
HETATM   26  C   UNL     2      -8.819   7.878  72.085  1.00  0.00    -0.146 C  
HETATM   27  H   UNL     2      -6.908   8.576  70.338  1.00  0.00     0.000 HD 
ENDBRANCH   4  18
TORSDOF 3
ENDMDL
MODEL      115
REMARK 921   NORMALIZED FREE ENERGY PREDICTED BY IDOCK:   -3.73 KCAL/MOL
REMARK 922        TOTAL FREE ENERGY PREDICTED BY IDOCK:   -5.50 KCAL/MOL
REMARK 923 INTER-LIGAND FREE ENERGY PREDICTED BY IDOCK:   -4.84 KCAL/MOL
REMARK 924 INTRA-LIGAND FREE ENERGY PREDICTED BY IDOCK:   -0.65 KCAL/MOL
REMARK 927      BINDING AFFINITY PREDICTED BY RF-SCORE:    0.00 PKD
ROOT
HETATM    1  N   UNL     1     -10.855  10.865  70.199  1.00  0.00    -0.462 N  
HETATM    2  H2  UNL     1     -10.804   9.874  69.968  1.00  0.00     0.000 HD 
HETATM    3  C   UNL     1     -11.837  11.647  69.655  1.00  0.00    -0.352 C  
HETATM    4  C   UNL     2      -9.154  10.605  66.744  1.00  0.00    -0.152 C  
HETATM    5  H1  UNL     1     -10.174  11.278  70.836  1.00  0.00     0.000 HD 
HETATM    6  O   UNL     2      -8.433   9.956  67.817  1.00  0.00    -0.117 OA 
HETATM    7  H   UNL     2      -8.933  10.057  68.619  1.00  0.00     0.000 HD 
HETATM    8  O   UNL     1     -12.655  11.151  68.889  1.00  0.00    -0.358 OA 
ENDROOT
BRANCH   4   9
HETATM    9  C   UNL     2      -8.350  10.443  65.454  1.00  0.00    -0.165 C  
HETATM   10  O   UNL     2      -9.256  10.312  64.354  1.00  0.00    -0.207 OA 
HETATM   11  H   UNL     2      -8.756  10.212  63.552  1.00  0.00     0.000 HD 
ENDBRANCH   4   9
BRANCH   3  12
HETATM   12  C   UNL     1     -11.843  13.099  69.960  1.00  0.00    -0.360 A  
HETATM   13  C   UNL     1     -10.656  13.807  69.803  1.00  0.00     0.448 A  
HETATM   14  C   UNL     1     -12.854  15.173  70.661  1.00  0.00    -0.440 A  
HETATM   15  C   UNL     1     -12.959  13.804  70.415  1.00  0.00    -0.048 A  
HETATM   16  C   UNL     1     -11.631  15.792  70.453  1.00  0.00    -0.360 A  
HETATM   17  N   UNL     1     -10.526  15.138  70.041  1.00  0.00    -0.224 NA 
ENDBRANCH   3  12
BRANCH   4  18
HETATM   18  C   UNL     2      -9.437  12.055  67.143  1.00  0.00    -0.187 C  
HETATM   19  O   UNL     2      -8.312  15.246  66.490  1.00  0.00    -0.235 OA 
HETATM   20  C   UNL     2      -8.897  14.182  66.559  1.00  0.00    -0.041 C  
HETATM   21  C   UNL     2     -10.609  12.731  66.544  1.00  0.00    -0.254 C  
HETATM   22  O   UNL     2     -11.188  14.963  65.837  1.00  0.00    -0.335 OA 
HETATM   23  O   UNL     2      -8.356  12.969  66.883  1.00  0.00    -0.136 OA 
HETATM   24  H   UNL     2     -12.111  14.843  65.647  1.00  0.00     0.000 HD 
HETATM   25  O   UNL     2     -11.822  12.119  66.418  1.00  0.00    -0.563 OA 
HETATM   26  C   UNL     2     -10.326  13.996  66.266  1.00  0.00    -0.293 C  
HETATM   27  H   UNL     2     -12.574  12.553  66.034  1.00  0.00     0.000 HD 
ENDBRANCH   4  18
TORSDOF 3
ENDMDL
MODEL      116
REMARK 921   NORMALIZED FREE ENERGY PREDICTED BY IDOCK:   -3.72 KCAL/MOL
REMARK 922        TOTAL FREE ENERGY PREDICTED BY IDOCK:   -5.49 KCAL/MOL
REMARK 923 INTER-LIGAND FREE ENERGY PREDICTED BY IDOCK:   -5.08 KCAL/MOL
REMARK 924 INTRA-LIGAND FREE ENERGY PREDICTED BY IDOCK:   -0.40 KCAL/MOL
REMARK 927      BINDING AFFINITY PREDICTED BY RF-SCORE:    0.00 PKD
ROOT
HETATM    1  N   UNL     1     -12.051   8.142  71.102  1.00  0.00    -0.370 N  
HETATM    2  H2  UNL     1     -12.583   8.929  71.473  1.00  0.00     0.000 HD 
HETATM    3  C   UNL     1     -10.714   8.031  71.368  1.00  0.00    -0.229 C  
HETATM    4  C   UNL     2     -11.339  11.158  68.802  1.00  0.00    -0.277 C  
HETATM    5  H1  UNL     1     -12.514   7.435  70.532  1.00  0.00     0.000 HD 
HETATM    6  O   UNL     2     -12.727  10.751  68.843  1.00  0.00    -0.647 OA 
HETATM    7  H   UNL     2     -12.807  10.018  69.444  1.00  0.00     0.000 HD 
HETATM    8  O   UNL     1     -10.157   8.881  72.054  1.00  0.00    -0.332 OA 
ENDROOT
BRANCH   4   9
HETATM    9  C   UNL     2     -11.210  12.335  67.836  1.00  0.00    -0.274 C  
HETATM   10  O   UNL     2     -11.850  11.997  66.601  1.00  0.00    -0.583 OA 
HETATM   11  H   UNL     2     -11.770  12.729  66.000  1.00  0.00     0.000 HD 
ENDBRANCH   4   9
BRANCH   3  12
HETATM   12  C   UNL     1      -9.957   6.910  70.760  1.00  0.00    -0.201 A  
HETATM   13  C   UNL     1     -10.671   5.802  70.314  1.00  0.00    -0.309 A  
HETATM   14  C   UNL     1      -7.961   5.776  70.021  1.00  0.00    -0.099 A  
HETATM   15  C   UNL     1      -8.568   6.881  70.619  1.00  0.00    -0.141 A  
HETATM   16  C   UNL     1      -8.762   4.731  69.590  1.00  0.00    -0.085 A  
HETATM   17  N   UNL     1     -10.103   4.713  69.734  1.00  0.00    -0.228 NA 
ENDBRANCH   3  12
BRANCH   4  18
HETATM   18  C   UNL     2     -10.476   9.944  68.449  1.00  0.00    -0.208 C  
HETATM   19  O   UNL     2     -10.741   6.861  66.935  1.00  0.00    -0.318 OA 
HETATM   20  C   UNL     2     -10.546   8.020  67.246  1.00  0.00    -0.290 C  
HETATM   21  C   UNL     2      -9.573  10.041  67.282  1.00  0.00    -0.156 C  
HETATM   22  O   UNL     2      -8.737   8.563  65.569  1.00  0.00    -0.171 OA 
HETATM   23  O   UNL     2     -11.217   8.736  68.198  1.00  0.00     0.198 OA 
HETATM   24  H   UNL     2      -8.094   9.130  65.160  1.00  0.00     0.000 HD 
HETATM   25  O   UNL     2      -8.809  11.145  67.039  1.00  0.00    -0.144 OA 
HETATM   26  C   UNL     2      -9.550   8.897  66.613  1.00  0.00    -0.219 C  
HETATM   27  H   UNL     2      -8.228  11.208  66.289  1.00  0.00     0.000 HD 
ENDBRANCH   4  18
TORSDOF 3
ENDMDL
MODEL      117
REMARK 921   NORMALIZED FREE ENERGY PREDICTED BY IDOCK:   -3.68 KCAL/MOL
REMARK 922        TOTAL FREE ENERGY PREDICTED BY IDOCK:   -5.44 KCAL/MOL
REMARK 923 INTER-LIGAND FREE ENERGY PREDICTED BY IDOCK:   -4.38 KCAL/MOL
REMARK 924 INTRA-LIGAND FREE ENERGY PREDICTED BY IDOCK:   -1.06 KCAL/MOL
REMARK 927      BINDING AFFINITY PREDICTED BY RF-SCORE:    0.00 PKD
ROOT
HETATM    1  N   UNL     1     -11.184   7.276  67.308  1.00  0.00    -0.545 N  
HETATM    2  H2  UNL     1     -10.936   7.191  66.323  1.00  0.00     0.000 HD 
HETATM    3  C   UNL     1     -10.286   7.795  68.200  1.00  0.00    -0.202 C  
HETATM    4  C   UNL     2      -9.008   4.107  66.969  1.00  0.00    -0.127 C  
HETATM    5  H1  UNL     1     -12.102   6.974  67.633  1.00  0.00     0.000 HD 
HETATM    6  O   UNL     2     -10.246   4.066  66.222  1.00  0.00    -0.413 OA 
HETATM    7  H   UNL     2     -10.703   4.889  66.351  1.00  0.00     0.000 HD 
HETATM    8  O   UNL     1      -9.182   8.159  67.810  1.00  0.00    -0.134 OA 
ENDROOT
BRANCH   4   9
HETATM    9  C   UNL     2      -8.274   2.782  66.761  1.00  0.00    -0.087 C  
HETATM   10  O   UNL     2      -9.040   1.728  67.351  1.00  0.00    -0.131 OA 
HETATM   11  H   UNL     2      -8.584   0.904  67.221  1.00  0.00     0.000 HD 
ENDBRANCH   4   9
BRANCH   3  12
HETATM   12  C   UNL     1     -10.655   7.844  69.636  1.00  0.00    -0.234 A  
HETATM   13  C   UNL     1     -11.438   6.814  70.148  1.00  0.00    -0.349 A  
HETATM   14  C   UNL     1     -10.678   8.806  71.848  1.00  0.00    -0.429 A  
HETATM   15  C   UNL     1     -10.283   8.868  70.511  1.00  0.00    -0.247 A  
HETATM   16  C   UNL     1     -11.440   7.726  72.265  1.00  0.00    -0.332 A  
HETATM   17  N   UNL     1     -11.839   6.734  71.443  1.00  0.00    -0.319 NA 
ENDBRANCH   3  12
BRANCH   4  18
HETATM   18  C   UNL     2      -9.321   4.441  68.430  1.00  0.00    -0.147 C  
HETATM   19  O   UNL     2      -9.846   2.868  71.449  1.00  0.00    -0.163 OA 
HETATM   20  C   UNL     2      -9.427   3.468  70.478  1.00  0.00    -0.179 C  
HETATM   21  C   UNL     2      -8.222   4.937  69.286  1.00  0.00    -0.081 C  
HETATM   22  O   UNL     2      -7.571   4.760  71.602  1.00  0.00    -0.084 OA 
HETATM   23  O   UNL     2      -9.869   3.349  69.189  1.00  0.00    -0.023 OA 
HETATM   24  H   UNL     2      -6.854   5.382  71.621  1.00  0.00     0.000 HD 
HETATM   25  O   UNL     2      -7.324   5.871  68.857  1.00  0.00    -0.080 OA 
HETATM   26  C   UNL     2      -8.317   4.431  70.507  1.00  0.00    -0.073 C  
HETATM   27  H   UNL     2      -6.618   6.190  69.407  1.00  0.00     0.000 HD 
ENDBRANCH   4  18
TORSDOF 3
ENDMDL
MODEL      118
REMARK 921   NORMALIZED FREE ENERGY PREDICTED BY IDOCK:   -3.68 KCAL/MOL
REMARK 922        TOTAL FREE ENERGY PREDICTED BY IDOCK:   -5.44 KCAL/MOL
REMARK 923 INTER-LIGAND FREE ENERGY PREDICTED BY IDOCK:   -4.73 KCAL/MOL
REMARK 924 INTRA-LIGAND FREE ENERGY PREDICTED BY IDOCK:   -0.71 KCAL/MOL
REMARK 927      BINDING AFFINITY PREDICTED BY RF-SCORE:    0.00 PKD
ROOT
HETATM    1  N   UNL     1     -11.052   9.500  71.087  1.00  0.00    -0.352 N  
HETATM    2  H2  UNL     1     -11.106  10.503  70.915  1.00  0.00     0.000 HD 
HETATM    3  C   UNL     1      -9.834   8.893  71.228  1.00  0.00    -0.291 C  
HETATM    4  C   UNL     2     -10.347  10.033  67.330  1.00  0.00    -0.238 C  
HETATM    5  H1  UNL     1     -11.905   8.945  71.155  1.00  0.00     0.000 HD 
HETATM    6  O   UNL     2     -11.658  10.466  67.761  1.00  0.00    -0.654 OA 
HETATM    7  H   UNL     2     -11.734  10.313  68.696  1.00  0.00     0.000 HD 
HETATM    8  O   UNL     1      -8.809   9.559  71.147  1.00  0.00    -0.249 OA 
ENDROOT
BRANCH   4   9
HETATM    9  C   UNL     2     -10.227  10.279  65.827  1.00  0.00    -0.219 C  
HETATM   10  O   UNL     2      -8.904   9.936  65.403  1.00  0.00    -0.149 OA 
HETATM   11  H   UNL     2      -8.829  10.088  64.468  1.00  0.00     0.000 HD 
ENDBRANCH   4   9
BRANCH   3  12
HETATM   12  C   UNL     1      -9.788   7.421  71.412  1.00  0.00    -0.194 A  
HETATM   13  C   UNL     1     -10.869   6.804  72.033  1.00  0.00    -0.227 A  
HETATM   14  C   UNL     1      -8.790   5.233  71.233  1.00  0.00    -0.148 A  
HETATM   15  C   UNL     1      -8.721   6.610  71.020  1.00  0.00    -0.138 A  
HETATM   16  C   UNL     1      -9.920   4.712  71.841  1.00  0.00    -0.189 A  
HETATM   17  N   UNL     1     -10.957   5.467  72.257  1.00  0.00    -0.241 NA 
ENDBRANCH   3  12
BRANCH   4  18
HETATM   18  C   UNL     2     -10.141   8.577  67.758  1.00  0.00    -0.211 C  
HETATM   19  O   UNL     2     -10.712   5.378  66.614  1.00  0.00    -0.295 OA 
HETATM   20  C   UNL     2     -10.271   6.463  66.940  1.00  0.00    -0.215 C  
HETATM   21  C   UNL     2      -8.786   7.995  67.634  1.00  0.00    -0.125 C  
HETATM   22  O   UNL     2      -7.831   5.839  67.130  1.00  0.00    -0.100 OA 
HETATM   23  O   UNL     2     -10.976   7.628  67.071  1.00  0.00    -0.277 OA 
HETATM   24  H   UNL     2      -6.916   6.015  67.315  1.00  0.00     0.000 HD 
HETATM   25  O   UNL     2      -7.662   8.674  68.007  1.00  0.00    -0.099 OA 
HETATM   26  C   UNL     2      -8.855   6.736  67.227  1.00  0.00    -0.118 C  
HETATM   27  H   UNL     2      -6.792   8.300  67.927  1.00  0.00     0.000 HD 
ENDBRANCH   4  18
TORSDOF 3
ENDMDL
MODEL      119
REMARK 921   NORMALIZED FREE ENERGY PREDICTED BY IDOCK:   -3.64 KCAL/MOL
REMARK 922        TOTAL FREE ENERGY PREDICTED BY IDOCK:   -5.40 KCAL/MOL
REMARK 923 INTER-LIGAND FREE ENERGY PREDICTED BY IDOCK:   -4.49 KCAL/MOL
REMARK 924 INTRA-LIGAND FREE ENERGY PREDICTED BY IDOCK:   -0.91 KCAL/MOL
REMARK 927      BINDING AFFINITY PREDICTED BY RF-SCORE:    0.00 PKD
ROOT
HETATM    1  N   UNL     1     -12.274  10.815  69.520  1.00  0.00    -0.505 N  
HETATM    2  H2  UNL     1     -12.689   9.894  69.386  1.00  0.00     0.000 HD 
HETATM    3  C   UNL     1     -11.707  11.474  68.464  1.00  0.00    -0.313 C  
HETATM    4  C   UNL     2      -9.372   8.272  69.487  1.00  0.00    -0.158 C  
HETATM    5  H1  UNL     1     -12.280  11.250  70.443  1.00  0.00     0.000 HD 
HETATM    6  O   UNL     2     -10.327   8.077  70.557  1.00  0.00    -0.198 OA 
HETATM    7  H   UNL     2     -11.009   8.734  70.474  1.00  0.00     0.000 HD 
HETATM    8  O   UNL     1     -11.700  10.953  67.355  1.00  0.00    -0.510 OA 
ENDROOT
BRANCH   4   9
HETATM    9  C   UNL     2      -8.275   7.216  69.621  1.00  0.00    -0.131 C  
HETATM   10  O   UNL     2      -8.707   6.011  68.981  1.00  0.00    -0.121 OA 
HETATM   11  H   UNL     2      -8.025   5.354  69.064  1.00  0.00     0.000 HD 
ENDBRANCH   4   9
BRANCH   3  12
HETATM   12  C   UNL     1     -11.054  12.783  68.708  1.00  0.00    -0.303 A  
HETATM   13  C   UNL     1     -11.528  13.568  69.754  1.00  0.00    -0.175 A  
HETATM   14  C   UNL     1      -9.455  14.535  68.271  1.00  0.00    -0.207 A  
HETATM   15  C   UNL     1     -10.002  13.294  67.944  1.00  0.00    -0.233 A  
HETATM   16  C   UNL     1      -9.985  15.231  69.346  1.00  0.00    -0.255 A  
HETATM   17  N   UNL     1     -11.017  14.782  70.088  1.00  0.00    -0.176 NA 
ENDBRANCH   3  12
BRANCH   4  18
HETATM   18  C   UNL     2      -8.874   9.719  69.526  1.00  0.00    -0.193 C  
HETATM   19  O   UNL     2      -6.210  11.569  70.687  1.00  0.00    -0.322 OA 
HETATM   20  C   UNL     2      -7.031  10.936  70.052  1.00  0.00    -0.029 C  
HETATM   21  C   UNL     2      -8.271  10.285  68.299  1.00  0.00    -0.115 C  
HETATM   22  O   UNL     2      -6.522  11.853  67.754  1.00  0.00    -0.068 OA 
HETATM   23  O   UNL     2      -7.885   9.984  70.536  1.00  0.00    -0.247 OA 
HETATM   24  H   UNL     2      -6.655  11.932  66.817  1.00  0.00     0.000 HD 
HETATM   25  O   UNL     2      -8.814  10.093  67.062  1.00  0.00    -0.135 OA 
HETATM   26  C   UNL     2      -7.238  11.057  68.601  1.00  0.00    -0.091 C  
HETATM   27  H   UNL     2      -8.427  10.457  66.274  1.00  0.00     0.000 HD 
ENDBRANCH   4  18
TORSDOF 3
ENDMDL
MODEL      120
REMARK 921   NORMALIZED FREE ENERGY PREDICTED BY IDOCK:   -3.57 KCAL/MOL
REMARK 922        TOTAL FREE ENERGY PREDICTED BY IDOCK:   -5.31 KCAL/MOL
REMARK 923 INTER-LIGAND FREE ENERGY PREDICTED BY IDOCK:   -4.34 KCAL/MOL
REMARK 924 INTRA-LIGAND FREE ENERGY PREDICTED BY IDOCK:   -0.98 KCAL/MOL
REMARK 927      BINDING AFFINITY PREDICTED BY RF-SCORE:    0.00 PKD
ROOT
HETATM    1  N   UNL     1      -9.361   6.131  66.557  1.00  0.00    -0.151 N  
HETATM    2  H2  UNL     1      -9.584   5.358  67.182  1.00  0.00     0.000 HD 
HETATM    3  C   UNL     1      -8.202   6.837  66.725  1.00  0.00    -0.114 C  
HETATM    4  C   UNL     2     -10.769   7.680  69.799  1.00  0.00    -0.240 C  
HETATM    5  H1  UNL     1     -10.002   6.382  65.804  1.00  0.00     0.000 HD 
HETATM    6  O   UNL     2     -11.695   6.819  69.095  1.00  0.00    -0.601 OA 
HETATM    7  H   UNL     2     -11.258   6.473  68.326  1.00  0.00     0.000 HD 
HETATM    8  O   UNL     1      -7.432   6.536  67.629  1.00  0.00    -0.092 OA 
ENDROOT
BRANCH   4   9
HETATM    9  C   UNL     2     -11.472   8.237  71.036  1.00  0.00    -0.275 C  
HETATM   10  O   UNL     2     -12.553   9.077  70.619  1.00  0.00    -0.491 OA 
HETATM   11  H   UNL     2     -12.991   9.423  71.389  1.00  0.00     0.000 HD 
ENDBRANCH   4   9
BRANCH   3  12
HETATM   12  C   UNL     1      -7.940   7.998  65.839  1.00  0.00    -0.107 A  
HETATM   13  C   UNL     1      -7.285   9.101  66.379  1.00  0.00    -0.091 A  
HETATM   14  C   UNL     1      -8.014   9.209  63.754  1.00  0.00    -0.146 A  
HETATM   15  C   UNL     1      -8.323   8.069  64.497  1.00  0.00    -0.048 A  
HETATM   16  C   UNL     1      -7.340  10.245  64.379  1.00  0.00    -0.075 A  
HETATM   17  N   UNL     1      -6.978  10.223  65.678  1.00  0.00    -0.128 NA 
ENDBRANCH   3  12
BRANCH   4  18
HETATM   18  C   UNL     2     -10.245   8.742  68.830  1.00  0.00    -0.206 C  
HETATM   19  O   UNL     2     -11.290  11.607  67.227  1.00  0.00    -0.293 OA 
HETATM   20  C   UNL     2     -10.806  10.759  67.952  1.00  0.00    -0.264 C  
HETATM   21  C   UNL     2      -9.350   9.794  69.360  1.00  0.00    -0.202 C  
HETATM   22  O   UNL     2      -8.924  12.129  68.931  1.00  0.00    -0.380 OA 
HETATM   23  O   UNL     2     -11.269   9.488  68.148  1.00  0.00    -0.073 OA 
HETATM   24  H   UNL     2      -8.158  12.261  69.478  1.00  0.00     0.000 HD 
HETATM   25  O   UNL     2      -8.331   9.520  70.225  1.00  0.00    -0.168 OA 
HETATM   26  C   UNL     2      -9.622  10.964  68.798  1.00  0.00    -0.189 C  
HETATM   27  H   UNL     2      -7.756  10.196  70.565  1.00  0.00     0.000 HD 
ENDBRANCH   4  18
TORSDOF 3
ENDMDL
MODEL      121
REMARK 921   NORMALIZED FREE ENERGY PREDICTED BY IDOCK:   -3.54 KCAL/MOL
REMARK 922        TOTAL FREE ENERGY PREDICTED BY IDOCK:   -5.28 KCAL/MOL
REMARK 923 INTER-LIGAND FREE ENERGY PREDICTED BY IDOCK:   -4.06 KCAL/MOL
REMARK 924 INTRA-LIGAND FREE ENERGY PREDICTED BY IDOCK:   -1.21 KCAL/MOL
REMARK 927      BINDING AFFINITY PREDICTED BY RF-SCORE:    0.00 PKD
ROOT
HETATM    1  N   UNL     1     -11.483   7.135  68.907  1.00  0.00    -0.357 N  
HETATM    2  H2  UNL     1     -12.278   7.481  69.443  1.00  0.00     0.000 HD 
HETATM    3  C   UNL     1     -10.267   6.973  69.512  1.00  0.00    -0.199 C  
HETATM    4  C   UNL     2     -11.091  10.966  69.151  1.00  0.00    -0.245 C  
HETATM    5  H1  UNL     1     -11.591   6.908  67.919  1.00  0.00     0.000 HD 
HETATM    6  O   UNL     2     -12.286  10.529  68.463  1.00  0.00    -0.765 OA 
HETATM    7  H   UNL     2     -12.305   9.579  68.468  1.00  0.00     0.000 HD 
HETATM    8  O   UNL     1     -10.136   7.245  70.700  1.00  0.00    -0.194 OA 
ENDROOT
BRANCH   4   9
HETATM    9  C   UNL     2     -11.060  12.494  69.142  1.00  0.00    -0.196 C  
HETATM   10  O   UNL     2     -11.249  12.956  67.801  1.00  0.00    -0.253 OA 
HETATM   11  H   UNL     2     -11.230  13.907  67.795  1.00  0.00     0.000 HD 
ENDBRANCH   4   9
BRANCH   3  12
HETATM   12  C   UNL     1      -9.115   6.531  68.689  1.00  0.00    -0.128 A  
HETATM   13  C   UNL     1      -9.378   5.888  67.483  1.00  0.00    -0.110 A  
HETATM   14  C   UNL     1      -6.771   6.252  68.192  1.00  0.00    -0.068 A  
HETATM   15  C   UNL     1      -7.776   6.699  69.050  1.00  0.00    -0.109 A  
HETATM   16  C   UNL     1      -7.137   5.643  67.003  1.00  0.00    -0.070 A  
HETATM   17  N   UNL     1      -8.418   5.439  66.633  1.00  0.00    -0.108 NA 
ENDBRANCH   3  12
BRANCH   4  18
HETATM   18  C   UNL     2      -9.875  10.299  68.503  1.00  0.00    -0.164 C  
HETATM   19  O   UNL     2      -7.401  10.973  66.201  1.00  0.00    -0.129 OA 
HETATM   20  C   UNL     2      -8.091  10.784  67.184  1.00  0.00    -0.124 C  
HETATM   21  C   UNL     2      -8.623  10.209  69.287  1.00  0.00    -0.174 C  
HETATM   22  O   UNL     2      -6.254  10.282  68.844  1.00  0.00    -0.046 OA 
HETATM   23  O   UNL     2      -9.450  10.900  67.266  1.00  0.00    -0.158 OA 
HETATM   24  H   UNL     2      -5.918  10.046  69.700  1.00  0.00     0.000 HD 
HETATM   25  O   UNL     2      -8.610   9.849  70.603  1.00  0.00    -0.368 OA 
HETATM   26  C   UNL     2      -7.570  10.418  68.510  1.00  0.00    -0.095 C  
HETATM   27  H   UNL     2      -7.806   9.790  71.106  1.00  0.00     0.000 HD 
ENDBRANCH   4  18
TORSDOF 3
ENDMDL
MODEL      122
REMARK 921   NORMALIZED FREE ENERGY PREDICTED BY IDOCK:   -3.49 KCAL/MOL
REMARK 922        TOTAL FREE ENERGY PREDICTED BY IDOCK:   -5.22 KCAL/MOL
REMARK 923 INTER-LIGAND FREE ENERGY PREDICTED BY IDOCK:   -4.27 KCAL/MOL
REMARK 924 INTRA-LIGAND FREE ENERGY PREDICTED BY IDOCK:   -0.95 KCAL/MOL
REMARK 927      BINDING AFFINITY PREDICTED BY RF-SCORE:    0.00 PKD
ROOT
HETATM    1  N   UNL     1     -11.054   9.440  68.131  1.00  0.00    -0.502 N  
HETATM    2  H2  UNL     1     -10.986   8.425  68.200  1.00  0.00     0.000 HD 
HETATM    3  C   UNL     1     -10.622  10.082  67.004  1.00  0.00    -0.212 C  
HETATM    4  C   UNL     2      -7.399   8.623  69.062  1.00  0.00    -0.077 C  
HETATM    5  H1  UNL     1     -11.445   9.979  68.903  1.00  0.00     0.000 HD 
HETATM    6  O   UNL     2      -8.376   8.197  70.040  1.00  0.00    -0.118 OA 
HETATM    7  H   UNL     2      -9.241   8.423  69.719  1.00  0.00     0.000 HD 
HETATM    8  O   UNL     1     -10.153   9.434  66.076  1.00  0.00    -0.300 OA 
ENDROOT
BRANCH   4   9
HETATM    9  C   UNL     2      -6.007   8.260  69.578  1.00  0.00    -0.033 C  
HETATM   10  O   UNL     2      -5.756   6.877  69.309  1.00  0.00    -0.017 OA 
HETATM   11  H   UNL     2      -4.891   6.651  69.630  1.00  0.00     0.000 HD 
ENDBRANCH   4   9
BRANCH   3  12
HETATM   12  C   UNL     1     -10.676  11.564  66.964  1.00  0.00    -0.300 A  
HETATM   13  C   UNL     1      -9.914  12.223  66.004  1.00  0.00    -0.252 A  
HETATM   14  C   UNL     1     -11.414  13.739  67.703  1.00  0.00    -0.354 A  
HETATM   15  C   UNL     1     -11.429  12.350  67.839  1.00  0.00    -0.385 A  
HETATM   16  C   UNL     1     -10.637  14.297  66.700  1.00  0.00    -0.278 A  
HETATM   17  N   UNL     1      -9.877  13.572  65.855  1.00  0.00    -0.272 NA 
ENDBRANCH   3  12
BRANCH   4  18
HETATM   18  C   UNL     2      -7.604  10.112  68.772  1.00  0.00    -0.089 C  
HETATM   19  O   UNL     2      -6.330  13.184  69.675  1.00  0.00    -0.116 OA 
HETATM   20  C   UNL     2      -6.638  12.132  69.147  1.00  0.00    -0.106 C  
HETATM   21  C   UNL     2      -7.067  10.661  67.508  1.00  0.00    -0.089 C  
HETATM   22  O   UNL     2      -6.109  12.742  66.754  1.00  0.00    -0.446 OA 
HETATM   23  O   UNL     2      -7.069  10.996  69.774  1.00  0.00    -0.129 OA 
HETATM   24  H   UNL     2      -6.062  12.575  65.820  1.00  0.00     0.000 HD 
HETATM   25  O   UNL     2      -7.196  10.011  66.315  1.00  0.00    -0.098 OA 
HETATM   26  C   UNL     2      -6.565  11.872  67.702  1.00  0.00    -0.099 C  
HETATM   27  H   UNL     2      -6.851  10.364  65.503  1.00  0.00     0.000 HD 
ENDBRANCH   4  18
TORSDOF 3
ENDMDL
MODEL      123
REMARK 921   NORMALIZED FREE ENERGY PREDICTED BY IDOCK:   -3.48 KCAL/MOL
REMARK 922        TOTAL FREE ENERGY PREDICTED BY IDOCK:   -5.21 KCAL/MOL
REMARK 923 INTER-LIGAND FREE ENERGY PREDICTED BY IDOCK:   -4.45 KCAL/MOL
REMARK 924 INTRA-LIGAND FREE ENERGY PREDICTED BY IDOCK:   -0.76 KCAL/MOL
REMARK 927      BINDING AFFINITY PREDICTED BY RF-SCORE:    0.00 PKD
ROOT
HETATM    1  N   UNL     1     -11.137   6.421  66.761  1.00  0.00    -0.720 N  
HETATM    2  H2  UNL     1     -11.067   5.404  66.783  1.00  0.00     0.000 HD 
HETATM    3  C   UNL     1     -10.062   7.175  66.375  1.00  0.00     0.020 C  
HETATM    4  C   UNL     2      -9.308   5.495  70.030  1.00  0.00    -0.148 C  
HETATM    5  H1  UNL     1     -12.008   6.880  67.026  1.00  0.00     0.000 HD 
HETATM    6  O   UNL     2     -10.654   4.975  69.929  1.00  0.00    -0.237 OA 
HETATM    7  H   UNL     2     -11.016   5.237  69.090  1.00  0.00     0.000 HD 
HETATM    8  O   UNL     1      -9.015   6.623  66.056  1.00  0.00    -0.154 OA 
ENDROOT
BRANCH   4   9
HETATM    9  C   UNL     2      -8.728   5.073  71.380  1.00  0.00    -0.131 C  
HETATM   10  O   UNL     2      -7.371   4.658  71.195  1.00  0.00    -0.059 OA 
HETATM   11  H   UNL     2      -7.009   4.396  72.034  1.00  0.00     0.000 HD 
ENDBRANCH   4   9
BRANCH   3  12
HETATM   12  C   UNL     1     -10.177   8.653  66.416  1.00  0.00    -0.224 A  
HETATM   13  C   UNL     1      -9.667   9.381  65.347  1.00  0.00    -0.178 A  
HETATM   14  C   UNL     1     -10.814  10.762  67.398  1.00  0.00    -0.345 A  
HETATM   15  C   UNL     1     -10.749   9.370  67.470  1.00  0.00    -0.290 A  
HETATM   16  C   UNL     1     -10.296  11.393  66.279  1.00  0.00    -0.243 A  
HETATM   17  N   UNL     1      -9.712  10.736  65.256  1.00  0.00    -0.235 NA 
ENDBRANCH   3  12
BRANCH   4  18
HETATM   18  C   UNL     2      -9.341   7.007  69.793  1.00  0.00    -0.146 C  
HETATM   19  O   UNL     2     -10.640   9.875  71.191  1.00  0.00    -0.250 OA 
HETATM   20  C   UNL     2      -9.965   8.938  70.811  1.00  0.00    -0.226 C  
HETATM   21  C   UNL     2      -8.146   7.800  70.156  1.00  0.00    -0.117 C  
HETATM   22  O   UNL     2      -7.686  10.007  71.012  1.00  0.00    -0.317 OA 
HETATM   23  O   UNL     2     -10.413   7.694  70.463  1.00  0.00    -0.214 OA 
HETATM   24  H   UNL     2      -6.740  10.023  70.931  1.00  0.00     0.000 HD 
HETATM   25  O   UNL     2      -6.879   7.388  69.863  1.00  0.00    -0.052 OA 
HETATM   26  C   UNL     2      -8.501   8.962  70.685  1.00  0.00    -0.184 C  
HETATM   27  H   UNL     2      -6.111   7.897  70.096  1.00  0.00     0.000 HD 
ENDBRANCH   4  18
TORSDOF 3
ENDMDL
MODEL      124
REMARK 921   NORMALIZED FREE ENERGY PREDICTED BY IDOCK:   -3.48 KCAL/MOL
REMARK 922        TOTAL FREE ENERGY PREDICTED BY IDOCK:   -5.20 KCAL/MOL
REMARK 923 INTER-LIGAND FREE ENERGY PREDICTED BY IDOCK:   -4.24 KCAL/MOL
REMARK 924 INTRA-LIGAND FREE ENERGY PREDICTED BY IDOCK:   -0.96 KCAL/MOL
REMARK 927      BINDING AFFINITY PREDICTED BY RF-SCORE:    0.00 PKD
ROOT
HETATM    1  N   UNL     1     -11.536   6.680  66.723  1.00  0.00    -0.727 N  
HETATM    2  H2  UNL     1     -11.672   6.770  65.717  1.00  0.00     0.000 HD 
HETATM    3  C   UNL     1     -10.395   7.157  67.307  1.00  0.00    -0.272 C  
HETATM    4  C   UNL     2      -9.498   3.857  65.059  1.00  0.00    -0.170 C  
HETATM    5  H1  UNL     1     -12.250   6.233  67.298  1.00  0.00     0.000 HD 
HETATM    6  O   UNL     2     -10.922   3.790  64.816  1.00  0.00    -0.529 OA 
HETATM    7  H   UNL     2     -11.336   4.530  65.247  1.00  0.00     0.000 HD 
HETATM    8  O   UNL     1      -9.537   7.694  66.617  1.00  0.00    -0.189 OA 
ENDROOT
BRANCH   4   9
HETATM    9  C   UNL     2      -8.833   2.667  64.366  1.00  0.00    -0.106 C  
HETATM   10  O   UNL     2      -9.465   2.453  63.100  1.00  0.00    -0.091 OA 
HETATM   11  H   UNL     2      -9.052   1.713  62.669  1.00  0.00     0.000 HD 
ENDBRANCH   4   9
BRANCH   3  12
HETATM   12  C   UNL     1     -10.200   6.951  68.764  1.00  0.00    -0.179 A  
HETATM   13  C   UNL     1      -8.992   7.350  69.327  1.00  0.00    -0.136 A  
HETATM   14  C   UNL     1     -10.857   6.228  70.969  1.00  0.00    -0.326 A  
HETATM   15  C   UNL     1     -11.143   6.363  69.610  1.00  0.00    -0.465 A  
HETATM   16  C   UNL     1      -9.633   6.678  71.436  1.00  0.00    -0.168 A  
HETATM   17  N   UNL     1      -8.688   7.225  70.645  1.00  0.00    -0.146 NA 
ENDBRANCH   3  12
BRANCH   4  18
HETATM   18  C   UNL     2      -9.255   3.934  66.568  1.00  0.00    -0.166 C  
HETATM   19  O   UNL     2      -8.459   1.893  69.227  1.00  0.00    -0.048 OA 
HETATM   20  C   UNL     2      -8.493   2.677  68.299  1.00  0.00    -0.073 C  
HETATM   21  C   UNL     2      -7.957   4.458  67.044  1.00  0.00    -0.101 C  
HETATM   22  O   UNL     2      -6.460   4.053  68.891  1.00  0.00    -0.038 OA 
HETATM   23  O   UNL     2      -9.381   2.678  67.259  1.00  0.00    -0.167 OA 
HETATM   24  H   UNL     2      -5.843   4.764  68.764  1.00  0.00     0.000 HD 
HETATM   25  O   UNL     2      -7.370   5.563  66.499  1.00  0.00    -0.079 OA 
HETATM   26  C   UNL     2      -7.538   3.777  68.101  1.00  0.00    -0.065 C  
HETATM   27  H   UNL     2      -6.536   5.900  66.805  1.00  0.00     0.000 HD 
ENDBRANCH   4  18
TORSDOF 3
ENDMDL
MODEL      125
REMARK 921   NORMALIZED FREE ENERGY PREDICTED BY IDOCK:   -3.46 KCAL/MOL
REMARK 922        TOTAL FREE ENERGY PREDICTED BY IDOCK:   -5.18 KCAL/MOL
REMARK 923 INTER-LIGAND FREE ENERGY PREDICTED BY IDOCK:   -4.85 KCAL/MOL
REMARK 924 INTRA-LIGAND FREE ENERGY PREDICTED BY IDOCK:   -0.34 KCAL/MOL
REMARK 927      BINDING AFFINITY PREDICTED BY RF-SCORE:    0.00 PKD
ROOT
HETATM    1  N   UNL     1      -5.465  16.533  69.378  1.00  0.00    -0.136 N  
HETATM    2  H2  UNL     1      -5.576  15.812  70.091  1.00  0.00     0.000 HD 
HETATM    3  C   UNL     1      -5.757  17.837  69.669  1.00  0.00    -0.234 C  
HETATM    4  C   UNL     2      -9.222  15.663  69.514  1.00  0.00    -0.259 C  
HETATM    5  H1  UNL     1      -5.134  16.284  68.446  1.00  0.00     0.000 HD 
HETATM    6  O   UNL     2      -8.365  14.560  69.139  1.00  0.00    -0.312 OA 
HETATM    7  H   UNL     2      -7.464  14.862  69.149  1.00  0.00     0.000 HD 
HETATM    8  O   UNL     1      -6.154  18.137  70.789  1.00  0.00     0.188 OA 
ENDROOT
BRANCH   4   9
HETATM    9  C   UNL     2     -10.671  15.177  69.496  1.00  0.00    -0.266 C  
HETATM   10  O   UNL     2     -10.683  13.751  69.382  1.00  0.00    -0.428 OA 
HETATM   11  H   UNL     2     -11.584  13.448  69.371  1.00  0.00     0.000 HD 
ENDBRANCH   4   9
BRANCH   3  12
HETATM   12  C   UNL     1      -5.646  18.850  68.590  1.00  0.00    -0.202 A  
HETATM   13  C   UNL     1      -6.005  20.162  68.883  1.00  0.00    -0.294 A  
HETATM   14  C   UNL     1      -5.146  19.607  66.355  1.00  0.00    -0.162 A  
HETATM   15  C   UNL     1      -5.222  18.572  67.288  1.00  0.00    -0.138 A  
HETATM   16  C   UNL     1      -5.505  20.885  66.752  1.00  0.00    -0.196 A  
HETATM   17  N   UNL     1      -5.944  21.185  67.991  1.00  0.00    -0.345 NA 
ENDBRANCH   3  12
BRANCH   4  18
HETATM   18  C   UNL     2      -8.935  16.850  68.590  1.00  0.00    -0.266 C  
HETATM   19  O   UNL     2      -7.792  17.509  65.407  1.00  0.00    -0.083 OA 
HETATM   20  C   UNL     2      -8.425  17.319  66.428  1.00  0.00    -0.269 C  
HETATM   21  C   UNL     2     -10.078  17.519  67.932  1.00  0.00    -0.330 C  
HETATM   22  O   UNL     2     -10.509  18.613  65.826  1.00  0.00    -0.586 OA 
HETATM   23  O   UNL     2      -8.046  16.556  67.497  1.00  0.00    -0.149 OA 
HETATM   24  H   UNL     2     -11.375  18.964  65.996  1.00  0.00     0.000 HD 
HETATM   25  O   UNL     2     -11.234  17.812  68.595  1.00  0.00    -0.058 OA 
HETATM   26  C   UNL     2      -9.766  17.862  66.691  1.00  0.00    -0.319 C  
HETATM   27  H   UNL     2     -11.969  18.242  68.172  1.00  0.00     0.000 HD 
ENDBRANCH   4  18
TORSDOF 3
ENDMDL
MODEL      126
REMARK 921   NORMALIZED FREE ENERGY PREDICTED BY IDOCK:   -3.40 KCAL/MOL
REMARK 922        TOTAL FREE ENERGY PREDICTED BY IDOCK:   -5.12 KCAL/MOL
REMARK 923 INTER-LIGAND FREE ENERGY PREDICTED BY IDOCK:   -4.30 KCAL/MOL
REMARK 924 INTRA-LIGAND FREE ENERGY PREDICTED BY IDOCK:   -0.82 KCAL/MOL
REMARK 927      BINDING AFFINITY PREDICTED BY RF-SCORE:    0.00 PKD
ROOT
HETATM    1  N   UNL     1     -11.729  11.448  71.007  1.00  0.00    -0.177 N  
HETATM    2  H2  UNL     1     -11.917  10.876  71.830  1.00  0.00     0.000 HD 
HETATM    3  C   UNL     1     -12.357  11.175  69.823  1.00  0.00    -0.246 C  
HETATM    4  C   UNL     2      -9.633   8.230  70.634  1.00  0.00    -0.171 C  
HETATM    5  H1  UNL     1     -11.073  12.227  71.064  1.00  0.00     0.000 HD 
HETATM    6  O   UNL     2      -9.300   9.031  71.793  1.00  0.00    -0.303 OA 
HETATM    7  H   UNL     2      -9.875   9.787  71.810  1.00  0.00     0.000 HD 
HETATM    8  O   UNL     1     -13.146  10.239  69.754  1.00  0.00     0.060 OA 
ENDROOT
BRANCH   4   9
HETATM    9  C   UNL     2      -8.707   7.014  70.606  1.00  0.00    -0.149 C  
HETATM   10  O   UNL     2      -9.443   5.879  70.138  1.00  0.00    -0.156 OA 
HETATM   11  H   UNL     2      -8.867   5.123  70.120  1.00  0.00     0.000 HD 
ENDBRANCH   4   9
BRANCH   3  12
HETATM   12  C   UNL     1     -12.013  11.986  68.630  1.00  0.00    -0.290 A  
HETATM   13  C   UNL     1     -11.777  11.322  67.430  1.00  0.00    -0.027 A  
HETATM   14  C   UNL     1     -11.570  14.040  67.445  1.00  0.00    -0.397 A  
HETATM   15  C   UNL     1     -11.889  13.378  68.631  1.00  0.00    -0.397 A  
HETATM   16  C   UNL     1     -11.376  13.289  66.298  1.00  0.00    -0.309 A  
HETATM   17  N   UNL     1     -11.461  11.943  66.265  1.00  0.00    -0.420 NA 
ENDBRANCH   3  12
BRANCH   4  18
HETATM   18  C   UNL     2      -9.566   9.113  69.386  1.00  0.00    -0.165 C  
HETATM   19  O   UNL     2      -7.246  10.650  67.354  1.00  0.00    -0.088 OA 
HETATM   20  C   UNL     2      -8.074   9.934  67.884  1.00  0.00    -0.109 C  
HETATM   21  C   UNL     2      -9.771   8.477  68.066  1.00  0.00    -0.154 C  
HETATM   22  O   UNL     2      -8.945   8.770  65.819  1.00  0.00    -0.184 OA 
HETATM   23  O   UNL     2      -8.327   9.827  69.223  1.00  0.00    -0.120 OA 
HETATM   24  H   UNL     2      -9.513   8.168  65.353  1.00  0.00     0.000 HD 
HETATM   25  O   UNL     2     -10.755   7.559  67.841  1.00  0.00    -0.370 OA 
HETATM   26  C   UNL     2      -8.953   9.002  67.164  1.00  0.00    -0.130 C  
HETATM   27  H   UNL     2     -10.887   7.151  66.993  1.00  0.00     0.000 HD 
ENDBRANCH   4  18
TORSDOF 3
ENDMDL
MODEL      127
REMARK 921   NORMALIZED FREE ENERGY PREDICTED BY IDOCK:   -3.36 KCAL/MOL
REMARK 922        TOTAL FREE ENERGY PREDICTED BY IDOCK:   -5.07 KCAL/MOL
REMARK 923 INTER-LIGAND FREE ENERGY PREDICTED BY IDOCK:   -4.02 KCAL/MOL
REMARK 924 INTRA-LIGAND FREE ENERGY PREDICTED BY IDOCK:   -1.05 KCAL/MOL
REMARK 927      BINDING AFFINITY PREDICTED BY RF-SCORE:    0.00 PKD
ROOT
HETATM    1  N   UNL     1     -11.110   8.472  67.297  1.00  0.00    -0.301 N  
HETATM    2  H2  UNL     1     -11.806   7.736  67.192  1.00  0.00     0.000 HD 
HETATM    3  C   UNL     1      -9.791   8.212  67.041  1.00  0.00    -0.232 C  
HETATM    4  C   UNL     2     -10.920   6.290  70.474  1.00  0.00    -0.312 C  
HETATM    5  H1  UNL     1     -11.393   9.406  67.592  1.00  0.00     0.000 HD 
HETATM    6  O   UNL     2     -12.196   6.940  70.269  1.00  0.00    -0.624 OA 
HETATM    7  H   UNL     2     -12.154   7.437  69.459  1.00  0.00     0.000 HD 
HETATM    8  O   UNL     1      -9.451   7.090  66.685  1.00  0.00    -0.158 OA 
ENDROOT
BRANCH   4   9
HETATM    9  C   UNL     2     -10.988   5.492  71.775  1.00  0.00    -0.182 C  
HETATM   10  O   UNL     2     -12.022   6.035  72.602  1.00  0.00    -0.509 OA 
HETATM   11  H   UNL     2     -12.065   5.538  73.411  1.00  0.00     0.000 HD 
ENDBRANCH   4   9
BRANCH   3  12
HETATM   12  C   UNL     1      -8.796   9.288  67.266  1.00  0.00    -0.132 A  
HETATM   13  C   UNL     1      -7.481   9.059  66.873  1.00  0.00    -0.090 A  
HETATM   14  C   UNL     1      -8.069  11.462  68.019  1.00  0.00    -0.134 A  
HETATM   15  C   UNL     1      -9.084  10.516  67.867  1.00  0.00    -0.136 A  
HETATM   16  C   UNL     1      -6.796  11.145  67.574  1.00  0.00    -0.086 A  
HETATM   17  N   UNL     1      -6.475   9.960  67.015  1.00  0.00    -0.068 NA 
ENDBRANCH   3  12
BRANCH   4  18
HETATM   18  C   UNL     2      -9.813   7.347  70.430  1.00  0.00    -0.183 C  
HETATM   19  O   UNL     2      -7.850   9.212  72.560  1.00  0.00    -0.192 OA 
HETATM   20  C   UNL     2      -8.333   8.409  71.785  1.00  0.00    -0.160 C  
HETATM   21  C   UNL     2      -8.435   6.906  70.122  1.00  0.00    -0.140 C  
HETATM   22  O   UNL     2      -6.196   7.540  70.757  1.00  0.00    -0.035 OA 
HETATM   23  O   UNL     2      -9.658   8.102  71.645  1.00  0.00    -0.157 OA 
HETATM   24  H   UNL     2      -5.695   7.001  70.158  1.00  0.00     0.000 HD 
HETATM   25  O   UNL     2      -8.158   6.011  69.131  1.00  0.00    -0.108 OA 
HETATM   26  C   UNL     2      -7.557   7.573  70.858  1.00  0.00    -0.081 C  
HETATM   27  H   UNL     2      -7.272   5.728  68.933  1.00  0.00     0.000 HD 
ENDBRANCH   4  18
TORSDOF 3
ENDMDL
MODEL      128
REMARK 921   NORMALIZED FREE ENERGY PREDICTED BY IDOCK:   -3.34 KCAL/MOL
REMARK 922        TOTAL FREE ENERGY PREDICTED BY IDOCK:   -5.05 KCAL/MOL
REMARK 923 INTER-LIGAND FREE ENERGY PREDICTED BY IDOCK:   -4.44 KCAL/MOL
REMARK 924 INTRA-LIGAND FREE ENERGY PREDICTED BY IDOCK:   -0.61 KCAL/MOL
REMARK 927      BINDING AFFINITY PREDICTED BY RF-SCORE:    0.00 PKD
ROOT
HETATM    1  N   UNL     1      -8.120   6.241  67.141  1.00  0.00    -0.109 N  
HETATM    2  H2  UNL     1      -7.939   6.738  66.270  1.00  0.00     0.000 HD 
HETATM    3  C   UNL     1      -9.404   5.954  67.514  1.00  0.00    -0.110 C  
HETATM    4  C   UNL     2      -8.761   9.984  67.830  1.00  0.00    -0.125 C  
HETATM    5  H1  UNL     1      -7.344   5.956  67.739  1.00  0.00     0.000 HD 
HETATM    6  O   UNL     2      -7.404   9.671  67.438  1.00  0.00    -0.086 OA 
HETATM    7  H   UNL     2      -7.346   8.736  67.274  1.00  0.00     0.000 HD 
HETATM    8  O   UNL     1     -10.337   6.296  66.796  1.00  0.00    -0.204 OA 
ENDROOT
BRANCH   4   9
HETATM    9  C   UNL     2      -8.852  11.487  68.094  1.00  0.00    -0.165 C  
HETATM   10  O   UNL     2      -7.935  11.833  69.137  1.00  0.00    -0.347 OA 
HETATM   11  H   UNL     2      -7.992  12.768  69.301  1.00  0.00     0.000 HD 
ENDBRANCH   4   9
BRANCH   3  12
HETATM   12  C   UNL     1      -9.636   5.289  68.819  1.00  0.00    -0.187 A  
HETATM   13  C   UNL     1     -10.263   6.017  69.825  1.00  0.00    -0.205 A  
HETATM   14  C   UNL     1      -9.528   3.450  70.377  1.00  0.00    -0.245 A  
HETATM   15  C   UNL     1      -9.250   3.980  69.116  1.00  0.00    -0.217 A  
HETATM   16  C   UNL     1     -10.177   4.251  71.303  1.00  0.00    -0.035 A  
HETATM   17  N   UNL     1     -10.540   5.527  71.061  1.00  0.00    -0.242 NA 
ENDBRANCH   3  12
BRANCH   4  18
HETATM   18  C   UNL     2      -9.149   9.101  69.019  1.00  0.00    -0.143 C  
HETATM   19  O   UNL     2      -8.336   8.618  72.332  1.00  0.00    -0.340 OA 
HETATM   20  C   UNL     2      -8.823   8.915  71.258  1.00  0.00    -0.231 C  
HETATM   21  C   UNL     2     -10.401   9.411  69.743  1.00  0.00    -0.223 C  
HETATM   22  O   UNL     2     -11.204   9.289  72.014  1.00  0.00    -0.343 OA 
HETATM   23  O   UNL     2      -8.164   9.042  70.067  1.00  0.00    -0.105 OA 
HETATM   24  H   UNL     2     -12.121   9.495  71.877  1.00  0.00     0.000 HD 
HETATM   25  O   UNL     2     -11.561   9.725  69.096  1.00  0.00    -0.463 OA 
HETATM   26  C   UNL     2     -10.242   9.235  71.046  1.00  0.00    -0.314 C  
HETATM   27  H   UNL     2     -12.366   9.924  69.561  1.00  0.00     0.000 HD 
ENDBRANCH   4  18
TORSDOF 3
ENDMDL
MODEL      129
REMARK 921   NORMALIZED FREE ENERGY PREDICTED BY IDOCK:   -3.34 KCAL/MOL
REMARK 922        TOTAL FREE ENERGY PREDICTED BY IDOCK:   -5.04 KCAL/MOL
REMARK 923 INTER-LIGAND FREE ENERGY PREDICTED BY IDOCK:   -4.62 KCAL/MOL
REMARK 924 INTRA-LIGAND FREE ENERGY PREDICTED BY IDOCK:   -0.42 KCAL/MOL
REMARK 927      BINDING AFFINITY PREDICTED BY RF-SCORE:    0.00 PKD
ROOT
HETATM    1  N   UNL     1      -6.962   8.160  69.346  1.00  0.00    -0.050 N  
HETATM    2  H2  UNL     1      -6.200   7.888  69.967  1.00  0.00     0.000 HD 
HETATM    3  C   UNL     1      -7.702   9.278  69.617  1.00  0.00    -0.087 C  
HETATM    4  C   UNL     2      -8.564   6.371  72.366  1.00  0.00    -0.120 C  
HETATM    5  H1  UNL     1      -7.174   7.601  68.520  1.00  0.00     0.000 HD 
HETATM    6  O   UNL     2      -7.660   5.548  71.593  1.00  0.00    -0.093 OA 
HETATM    7  H   UNL     2      -7.304   6.074  70.886  1.00  0.00     0.000 HD 
HETATM    8  O   UNL     1      -7.447   9.951  70.609  1.00  0.00    -0.284 OA 
ENDROOT
BRANCH   4   9
HETATM    9  C   UNL     2      -9.137   5.523  73.502  1.00  0.00    -0.128 C  
HETATM   10  O   UNL     2      -9.751   4.356  72.948  1.00  0.00    -0.132 OA 
HETATM   11  H   UNL     2     -10.107   3.829  73.653  1.00  0.00     0.000 HD 
ENDBRANCH   4   9
BRANCH   3  12
HETATM   12  C   UNL     1      -8.844   9.609  68.730  1.00  0.00    -0.130 A  
HETATM   13  C   UNL     1      -9.016   8.856  67.573  1.00  0.00    -0.133 A  
HETATM   14  C   UNL     1     -10.798  10.859  68.068  1.00  0.00    -0.293 A  
HETATM   15  C   UNL     1      -9.753  10.643  68.967  1.00  0.00    -0.214 A  
HETATM   16  C   UNL     1     -10.895  10.039  66.955  1.00  0.00    -0.126 A  
HETATM   17  N   UNL     1     -10.021   9.050  66.680  1.00  0.00    -0.256 NA 
ENDBRANCH   3  12
BRANCH   4  18
HETATM   18  C   UNL     2      -9.612   6.974  71.427  1.00  0.00    -0.162 C  
HETATM   19  O   UNL     2     -11.492   6.124  68.668  1.00  0.00    -0.223 OA 
HETATM   20  C   UNL     2     -11.045   6.379  69.770  1.00  0.00    -0.396 C  
HETATM   21  C   UNL     2     -11.009   7.069  71.905  1.00  0.00    -0.233 C  
HETATM   22  O   UNL     2     -13.216   6.912  70.945  1.00  0.00    -0.442 OA 
HETATM   23  O   UNL     2      -9.737   6.302  70.161  1.00  0.00    -0.161 OA 
HETATM   24  H   UNL     2     -13.740   7.181  71.691  1.00  0.00     0.000 HD 
HETATM   25  O   UNL     2     -11.324   7.492  73.163  1.00  0.00    -0.571 OA 
HETATM   26  C   UNL     2     -11.856   6.794  70.923  1.00  0.00    -0.385 C  
HETATM   27  H   UNL     2     -12.222   7.553  73.469  1.00  0.00     0.000 HD 
ENDBRANCH   4  18
TORSDOF 3
ENDMDL
MODEL      130
REMARK 921   NORMALIZED FREE ENERGY PREDICTED BY IDOCK:   -3.31 KCAL/MOL
REMARK 922        TOTAL FREE ENERGY PREDICTED BY IDOCK:   -5.01 KCAL/MOL
REMARK 923 INTER-LIGAND FREE ENERGY PREDICTED BY IDOCK:   -3.98 KCAL/MOL
REMARK 924 INTRA-LIGAND FREE ENERGY PREDICTED BY IDOCK:   -1.03 KCAL/MOL
REMARK 927      BINDING AFFINITY PREDICTED BY RF-SCORE:    0.00 PKD
ROOT
HETATM    1  N   UNL     1     -11.160   9.010  68.007  1.00  0.00    -0.477 N  
HETATM    2  H2  UNL     1     -10.968   9.590  67.190  1.00  0.00     0.000 HD 
HETATM    3  C   UNL     1     -10.491   9.232  69.179  1.00  0.00    -0.217 C  
HETATM    4  C   UNL     2      -7.914   7.662  66.413  1.00  0.00    -0.107 C  
HETATM    5  H1  UNL     1     -11.852   8.263  67.952  1.00  0.00     0.000 HD 
HETATM    6  O   UNL     2      -9.077   7.587  65.557  1.00  0.00    -0.381 OA 
HETATM    7  H   UNL     2      -9.819   7.955  66.024  1.00  0.00     0.000 HD 
HETATM    8  O   UNL     1      -9.659  10.130  69.244  1.00  0.00    -0.201 OA 
ENDROOT
BRANCH   4   9
HETATM    9  C   UNL     2      -6.722   7.070  65.662  1.00  0.00    -0.052 C  
HETATM   10  O   UNL     2      -5.551   7.831  65.972  1.00  0.00    -0.031 OA 
HETATM   11  H   UNL     2      -4.809   7.463  65.505  1.00  0.00     0.000 HD 
ENDBRANCH   4   9
BRANCH   3  12
HETATM   12  C   UNL     1     -10.747   8.329  70.327  1.00  0.00    -0.237 A  
HETATM   13  C   UNL     1     -11.094   7.009  70.059  1.00  0.00    -0.278 A  
HETATM   14  C   UNL     1     -10.932   7.781  72.669  1.00  0.00    -0.422 A  
HETATM   15  C   UNL     1     -10.682   8.719  71.667  1.00  0.00    -0.397 A  
HETATM   16  C   UNL     1     -11.249   6.484  72.299  1.00  0.00    -0.273 A  
HETATM   17  N   UNL     1     -11.347   6.079  71.016  1.00  0.00    -0.273 NA 
ENDBRANCH   3  12
BRANCH   4  18
HETATM   18  C   UNL     2      -8.233   6.978  67.745  1.00  0.00    -0.114 C  
HETATM   19  O   UNL     2      -7.754   3.970  69.355  1.00  0.00    -0.053 OA 
HETATM   20  C   UNL     2      -7.730   5.110  68.934  1.00  0.00    -0.081 C  
HETATM   21  C   UNL     2      -7.420   7.332  68.928  1.00  0.00    -0.101 C  
HETATM   22  O   UNL     2      -6.588   6.215  70.897  1.00  0.00    -0.049 OA 
HETATM   23  O   UNL     2      -8.164   5.541  67.711  1.00  0.00    -0.101 OA 
HETATM   24  H   UNL     2      -6.234   6.957  71.372  1.00  0.00     0.000 HD 
HETATM   25  O   UNL     2      -7.083   8.621  69.224  1.00  0.00    -0.060 OA 
HETATM   26  C   UNL     2      -7.182   6.259  69.669  1.00  0.00    -0.078 C  
HETATM   27  H   UNL     2      -6.560   8.849  69.985  1.00  0.00     0.000 HD 
ENDBRANCH   4  18
TORSDOF 3
ENDMDL
MODEL      131
REMARK 921   NORMALIZED FREE ENERGY PREDICTED BY IDOCK:   -3.28 KCAL/MOL
REMARK 922        TOTAL FREE ENERGY PREDICTED BY IDOCK:   -4.98 KCAL/MOL
REMARK 923 INTER-LIGAND FREE ENERGY PREDICTED BY IDOCK:   -3.83 KCAL/MOL
REMARK 924 INTRA-LIGAND FREE ENERGY PREDICTED BY IDOCK:   -1.15 KCAL/MOL
REMARK 927      BINDING AFFINITY PREDICTED BY RF-SCORE:    0.00 PKD
ROOT
HETATM    1  N   UNL     1      -6.819   8.343  69.913  1.00  0.00    -0.042 N  
HETATM    2  H2  UNL     1      -7.125   7.541  70.462  1.00  0.00     0.000 HD 
HETATM    3  C   UNL     1      -7.409   9.564  70.094  1.00  0.00    -0.124 C  
HETATM    4  C   UNL     2     -10.056   7.029  68.273  1.00  0.00    -0.167 C  
HETATM    5  H1  UNL     1      -6.073   8.239  69.226  1.00  0.00     0.000 HD 
HETATM    6  O   UNL     2      -8.963   6.081  68.284  1.00  0.00    -0.115 OA 
HETATM    7  H   UNL     2      -8.221   6.484  68.720  1.00  0.00     0.000 HD 
HETATM    8  O   UNL     1      -8.306   9.691  70.919  1.00  0.00    -0.272 OA 
ENDROOT
BRANCH   4   9
HETATM    9  C   UNL     2     -11.250   6.381  67.572  1.00  0.00    -0.179 C  
HETATM   10  O   UNL     2     -10.805   5.788  66.347  1.00  0.00    -0.575 OA 
HETATM   11  H   UNL     2     -11.547   5.385  65.911  1.00  0.00     0.000 HD 
ENDBRANCH   4   9
BRANCH   3  12
HETATM   12  C   UNL     1      -6.985  10.695  69.232  1.00  0.00    -0.096 A  
HETATM   13  C   UNL     1      -5.687  10.687  68.730  1.00  0.00    -0.040 A  
HETATM   14  C   UNL     1      -7.297  12.787  68.072  1.00  0.00    -0.117 A  
HETATM   15  C   UNL     1      -7.797  11.783  68.902  1.00  0.00    -0.013 A  
HETATM   16  C   UNL     1      -5.997  12.676  67.606  1.00  0.00    -0.142 A  
HETATM   17  N   UNL     1      -5.176  11.655  67.926  1.00  0.00    -0.046 NA 
ENDBRANCH   3  12
BRANCH   4  18
HETATM   18  C   UNL     2      -9.573   8.335  67.636  1.00  0.00    -0.152 C  
HETATM   19  O   UNL     2      -9.446   9.893  64.566  1.00  0.00    -0.283 OA 
HETATM   20  C   UNL     2      -9.690   9.497  65.690  1.00  0.00    -0.290 C  
HETATM   21  C   UNL     2     -10.397   9.550  67.818  1.00  0.00    -0.239 C  
HETATM   22  O   UNL     2     -10.947  11.518  66.537  1.00  0.00    -0.282 OA 
HETATM   23  O   UNL     2      -9.382   8.272  66.212  1.00  0.00    -0.191 OA 
HETATM   24  H   UNL     2     -11.413  12.020  67.195  1.00  0.00     0.000 HD 
HETATM   25  O   UNL     2     -10.952   9.884  69.020  1.00  0.00    -0.246 OA 
HETATM   26  C   UNL     2     -10.412  10.274  66.708  1.00  0.00    -0.214 C  
HETATM   27  H   UNL     2     -11.481  10.665  69.136  1.00  0.00     0.000 HD 
ENDBRANCH   4  18
TORSDOF 3
ENDMDL
MODEL      132
REMARK 921   NORMALIZED FREE ENERGY PREDICTED BY IDOCK:   -3.25 KCAL/MOL
REMARK 922        TOTAL FREE ENERGY PREDICTED BY IDOCK:   -4.93 KCAL/MOL
REMARK 923 INTER-LIGAND FREE ENERGY PREDICTED BY IDOCK:   -3.89 KCAL/MOL
REMARK 924 INTRA-LIGAND FREE ENERGY PREDICTED BY IDOCK:   -1.04 KCAL/MOL
REMARK 927      BINDING AFFINITY PREDICTED BY RF-SCORE:    0.00 PKD
ROOT
HETATM    1  N   UNL     1      -9.286  12.313  68.622  1.00  0.00    -0.394 N  
HETATM    2  H2  UNL     1      -9.650  13.151  68.170  1.00  0.00     0.000 HD 
HETATM    3  C   UNL     1      -7.955  12.010  68.537  1.00  0.00    -0.132 C  
HETATM    4  C   UNL     2      -9.714  11.472  64.880  1.00  0.00    -0.234 C  
HETATM    5  H1  UNL     1      -9.913  11.697  69.140  1.00  0.00     0.000 HD 
HETATM    6  O   UNL     2     -10.942  11.821  65.560  1.00  0.00    -0.291 OA 
HETATM    7  H   UNL     2     -10.737  12.027  66.465  1.00  0.00     0.000 HD 
HETATM    8  O   UNL     1      -7.201  12.750  67.915  1.00  0.00    -0.094 OA 
ENDROOT
BRANCH   4   9
HETATM    9  C   UNL     2     -10.044  11.140  63.426  1.00  0.00    -0.390 C  
HETATM   10  O   UNL     2      -9.020  11.675  62.581  1.00  0.00    -0.577 OA 
HETATM   11  H   UNL     2      -9.225  11.468  61.676  1.00  0.00     0.000 HD 
ENDBRANCH   4   9
BRANCH   3  12
HETATM   12  C   UNL     1      -7.470  10.749  69.150  1.00  0.00    -0.123 A  
HETATM   13  C   UNL     1      -8.318  10.077  70.024  1.00  0.00    -0.111 A  
HETATM   14  C   UNL     1      -5.859   8.999  69.548  1.00  0.00    -0.033 A  
HETATM   15  C   UNL     1      -6.206  10.198  68.925  1.00  0.00    -0.043 A  
HETATM   16  C   UNL     1      -6.784   8.395  70.385  1.00  0.00    -0.036 A  
HETATM   17  N   UNL     1      -8.001   8.912  70.647  1.00  0.00    -0.113 NA 
ENDBRANCH   3  12
BRANCH   4  18
HETATM   18  C   UNL     2      -9.023  10.345  65.652  1.00  0.00    -0.176 C  
HETATM   19  O   UNL     2      -8.721   6.913  65.617  1.00  0.00    -0.145 OA 
HETATM   20  C   UNL     2      -8.598   8.119  65.519  1.00  0.00    -0.149 C  
HETATM   21  C   UNL     2      -7.580  10.116  65.417  1.00  0.00    -0.144 C  
HETATM   22  O   UNL     2      -6.079   8.229  65.360  1.00  0.00    -0.045 OA 
HETATM   23  O   UNL     2      -9.603   9.043  65.457  1.00  0.00    -0.224 OA 
HETATM   24  H   UNL     2      -5.247   8.681  65.290  1.00  0.00     0.000 HD 
HETATM   25  O   UNL     2      -6.681  11.139  65.335  1.00  0.00    -0.354 OA 
HETATM   26  C   UNL     2      -7.310   8.819  65.410  1.00  0.00    -0.085 C  
HETATM   27  H   UNL     2      -5.755  10.992  65.184  1.00  0.00     0.000 HD 
ENDBRANCH   4  18
TORSDOF 3
ENDMDL
MODEL      133
REMARK 921   NORMALIZED FREE ENERGY PREDICTED BY IDOCK:   -3.23 KCAL/MOL
REMARK 922        TOTAL FREE ENERGY PREDICTED BY IDOCK:   -4.91 KCAL/MOL
REMARK 923 INTER-LIGAND FREE ENERGY PREDICTED BY IDOCK:   -3.95 KCAL/MOL
REMARK 924 INTRA-LIGAND FREE ENERGY PREDICTED BY IDOCK:   -0.96 KCAL/MOL
REMARK 927      BINDING AFFINITY PREDICTED BY RF-SCORE:    0.00 PKD
ROOT
HETATM    1  N   UNL     1      -9.288   6.811  67.334  1.00  0.00    -0.128 N  
HETATM    2  H2  UNL     1      -9.094   6.498  66.383  1.00  0.00     0.000 HD 
HETATM    3  C   UNL     1     -10.198   7.808  67.557  1.00  0.00    -0.235 C  
HETATM    4  C   UNL     2      -6.861   9.379  65.781  1.00  0.00    -0.085 C  
HETATM    5  H1  UNL     1      -8.804   6.382  68.123  1.00  0.00     0.000 HD 
HETATM    6  O   UNL     2      -6.332   8.035  65.876  1.00  0.00    -0.044 OA 
HETATM    7  H   UNL     2      -7.001   7.474  66.252  1.00  0.00     0.000 HD 
HETATM    8  O   UNL     1     -10.780   8.323  66.610  1.00  0.00    -0.202 OA 
ENDROOT
BRANCH   4   9
HETATM    9  C   UNL     2      -5.785  10.280  65.178  1.00  0.00    -0.124 C  
HETATM   10  O   UNL     2      -6.282  10.852  63.964  1.00  0.00    -0.357 OA 
HETATM   11  H   UNL     2      -5.612  11.413  63.589  1.00  0.00     0.000 HD 
ENDBRANCH   4   9
BRANCH   3  12
HETATM   12  C   UNL     1     -10.407   8.284  68.946  1.00  0.00    -0.230 A  
HETATM   13  C   UNL     1     -10.229   7.376  69.985  1.00  0.00    -0.209 A  
HETATM   14  C   UNL     1     -10.951   9.925  70.628  1.00  0.00    -0.405 A  
HETATM   15  C   UNL     1     -10.792   9.583  69.285  1.00  0.00    -0.211 A  
HETATM   16  C   UNL     1     -10.728   8.953  71.590  1.00  0.00    -0.347 A  
HETATM   17  N   UNL     1     -10.382   7.682  71.299  1.00  0.00    -0.199 NA 
ENDBRANCH   3  12
BRANCH   4  18
HETATM   18  C   UNL     2      -7.360   9.814  67.162  1.00  0.00    -0.087 C  
HETATM   19  O   UNL     2      -6.289  11.561  69.931  1.00  0.00    -0.133 OA 
HETATM   20  C   UNL     2      -6.791  11.161  68.898  1.00  0.00    -0.086 C  
HETATM   21  C   UNL     2      -8.290  10.961  67.241  1.00  0.00    -0.123 C  
HETATM   22  O   UNL     2      -8.731  12.773  68.771  1.00  0.00    -0.372 OA 
HETATM   23  O   UNL     2      -6.318  10.164  68.091  1.00  0.00    -0.053 OA 
HETATM   24  H   UNL     2      -9.520  13.131  68.381  1.00  0.00     0.000 HD 
HETATM   25  O   UNL     2      -9.340  11.112  66.383  1.00  0.00    -0.178 OA 
HETATM   26  C   UNL     2      -8.012  11.714  68.295  1.00  0.00    -0.143 C  
HETATM   27  H   UNL     2      -9.938  11.849  66.434  1.00  0.00     0.000 HD 
ENDBRANCH   4  18
TORSDOF 3
ENDMDL
MODEL      134
REMARK 921   NORMALIZED FREE ENERGY PREDICTED BY IDOCK:   -3.22 KCAL/MOL
REMARK 922        TOTAL FREE ENERGY PREDICTED BY IDOCK:   -4.90 KCAL/MOL
REMARK 923 INTER-LIGAND FREE ENERGY PREDICTED BY IDOCK:   -3.94 KCAL/MOL
REMARK 924 INTRA-LIGAND FREE ENERGY PREDICTED BY IDOCK:   -0.96 KCAL/MOL
REMARK 927      BINDING AFFINITY PREDICTED BY RF-SCORE:    0.00 PKD
ROOT
HETATM    1  N   UNL     1      -6.692  10.732  68.389  1.00  0.00    -0.058 N  
HETATM    2  H2  UNL     1      -6.727  11.265  67.521  1.00  0.00     0.000 HD 
HETATM    3  C   UNL     1      -6.925   9.384  68.377  1.00  0.00    -0.067 C  
HETATM    4  C   UNL     2     -10.418  11.379  67.622  1.00  0.00    -0.194 C  
HETATM    5  H1  UNL     1      -6.482  11.201  69.270  1.00  0.00     0.000 HD 
HETATM    6  O   UNL     2      -9.632  12.576  67.827  1.00  0.00    -0.191 OA 
HETATM    7  H   UNL     2      -8.732  12.320  67.991  1.00  0.00     0.000 HD 
HETATM    8  O   UNL     1      -7.176   8.819  67.319  1.00  0.00    -0.078 OA 
ENDROOT
BRANCH   4   9
HETATM    9  C   UNL     2     -11.866  11.791  67.358  1.00  0.00    -0.135 C  
HETATM   10  O   UNL     2     -11.994  12.196  65.992  1.00  0.00    -0.578 OA 
HETATM   11  H   UNL     2     -12.895  12.452  65.828  1.00  0.00     0.000 HD 
ENDBRANCH   4   9
BRANCH   3  12
HETATM   12  C   UNL     1      -6.930   8.650  69.666  1.00  0.00    -0.050 A  
HETATM   13  C   UNL     1      -7.404   9.311  70.795  1.00  0.00    -0.123 A  
HETATM   14  C   UNL     1      -6.535   6.743  71.089  1.00  0.00    -0.045 A  
HETATM   15  C   UNL     1      -6.473   7.340  69.830  1.00  0.00    -0.036 A  
HETATM   16  C   UNL     1      -7.044   7.479  72.147  1.00  0.00    -0.067 A  
HETATM   17  N   UNL     1      -7.469   8.754  72.032  1.00  0.00    -0.311 NA 
ENDBRANCH   3  12
BRANCH   4  18
HETATM   18  C   UNL     2     -10.227  10.448  68.822  1.00  0.00    -0.187 C  
HETATM   19  O   UNL     2     -11.734   9.647  71.815  1.00  0.00    -0.388 OA 
HETATM   20  C   UNL     2     -11.313   9.715  70.676  1.00  0.00    -0.312 C  
HETATM   21  C   UNL     2     -10.589   9.022  68.669  1.00  0.00    -0.160 C  
HETATM   22  O   UNL     2     -11.501   7.273  70.057  1.00  0.00    -0.443 OA 
HETATM   23  O   UNL     2     -10.938  10.847  70.008  1.00  0.00    -0.248 OA 
HETATM   24  H   UNL     2     -11.401   6.530  69.474  1.00  0.00     0.000 HD 
HETATM   25  O   UNL     2     -10.259   8.299  67.559  1.00  0.00    -0.205 OA 
HETATM   26  C   UNL     2     -11.159   8.565  69.774  1.00  0.00    -0.062 C  
HETATM   27  H   UNL     2     -10.492   7.383  67.461  1.00  0.00     0.000 HD 
ENDBRANCH   4  18
TORSDOF 3
ENDMDL
MODEL      135
REMARK 921   NORMALIZED FREE ENERGY PREDICTED BY IDOCK:   -3.19 KCAL/MOL
REMARK 922        TOTAL FREE ENERGY PREDICTED BY IDOCK:   -4.86 KCAL/MOL
REMARK 923 INTER-LIGAND FREE ENERGY PREDICTED BY IDOCK:   -3.95 KCAL/MOL
REMARK 924 INTRA-LIGAND FREE ENERGY PREDICTED BY IDOCK:   -0.91 KCAL/MOL
REMARK 927      BINDING AFFINITY PREDICTED BY RF-SCORE:    0.00 PKD
ROOT
HETATM    1  N   UNL     1     -10.410   6.266  66.608  1.00  0.00    -0.365 N  
HETATM    2  H2  UNL     1     -11.160   6.593  66.000  1.00  0.00     0.000 HD 
HETATM    3  C   UNL     1     -10.582   6.256  67.965  1.00  0.00    -0.262 C  
HETATM    4  C   UNL     2     -10.289  10.123  66.656  1.00  0.00    -0.208 C  
HETATM    5  H1  UNL     1      -9.529   5.944  66.207  1.00  0.00     0.000 HD 
HETATM    6  O   UNL     2     -10.066   9.532  65.354  1.00  0.00    -0.383 OA 
HETATM    7  H   UNL     2     -10.132   8.588  65.437  1.00  0.00     0.000 HD 
HETATM    8  O   UNL     1     -11.640   6.641  68.447  1.00  0.00     0.004 OA 
ENDROOT
BRANCH   4   9
HETATM    9  C   UNL     2     -10.183  11.641  66.522  1.00  0.00    -0.214 C  
HETATM   10  O   UNL     2      -8.878  11.977  66.040  1.00  0.00    -0.387 OA 
HETATM   11  H   UNL     2      -8.812  12.922  65.957  1.00  0.00     0.000 HD 
ENDBRANCH   4   9
BRANCH   3  12
HETATM   12  C   UNL     1      -9.448   5.835  68.824  1.00  0.00    -0.147 A  
HETATM   13  C   UNL     1      -9.120   6.633  69.915  1.00  0.00    -0.143 A  
HETATM   14  C   UNL     1      -7.632   4.390  69.482  1.00  0.00    -0.054 A  
HETATM   15  C   UNL     1      -8.670   4.696  68.601  1.00  0.00    -0.115 A  
HETATM   16  C   UNL     1      -7.399   5.239  70.552  1.00  0.00    -0.070 A  
HETATM   17  N   UNL     1      -8.111   6.360  70.783  1.00  0.00    -0.118 NA 
ENDBRANCH   3  12
BRANCH   4  18
HETATM   18  C   UNL     2      -9.311   9.500  67.656  1.00  0.00    -0.123 C  
HETATM   19  O   UNL     2      -5.924   9.233  68.229  1.00  0.00    -0.044 OA 
HETATM   20  C   UNL     2      -7.109   9.507  68.208  1.00  0.00    -0.075 C  
HETATM   21  C   UNL     2      -9.115  10.174  68.958  1.00  0.00    -0.173 C  
HETATM   22  O   UNL     2      -7.306  10.509  70.518  1.00  0.00    -0.456 OA 
HETATM   23  O   UNL     2      -7.970   9.337  67.160  1.00  0.00    -0.105 OA 
HETATM   24  H   UNL     2      -7.780  10.905  71.239  1.00  0.00     0.000 HD 
HETATM   25  O   UNL     2     -10.155  10.671  69.688  1.00  0.00    -0.380 OA 
HETATM   26  C   UNL     2      -7.843  10.120  69.324  1.00  0.00    -0.134 C  
HETATM   27  H   UNL     2     -10.029  11.104  70.525  1.00  0.00     0.000 HD 
ENDBRANCH   4  18
TORSDOF 3
ENDMDL
MODEL      136
REMARK 921   NORMALIZED FREE ENERGY PREDICTED BY IDOCK:   -3.17 KCAL/MOL
REMARK 922        TOTAL FREE ENERGY PREDICTED BY IDOCK:   -4.84 KCAL/MOL
REMARK 923 INTER-LIGAND FREE ENERGY PREDICTED BY IDOCK:   -4.38 KCAL/MOL
REMARK 924 INTRA-LIGAND FREE ENERGY PREDICTED BY IDOCK:   -0.46 KCAL/MOL
REMARK 927      BINDING AFFINITY PREDICTED BY RF-SCORE:    0.00 PKD
ROOT
HETATM    1  N   UNL     1     -11.126  17.672  68.890  1.00  0.00    -0.042 N  
HETATM    2  H2  UNL     1     -10.881  18.561  69.324  1.00  0.00     0.000 HD 
HETATM    3  C   UNL     1     -11.145  16.526  69.637  1.00  0.00    -0.235 C  
HETATM    4  C   UNL     2      -7.276  17.772  69.147  1.00  0.00    -0.147 C  
HETATM    5  H1  UNL     1     -11.358  17.633  67.898  1.00  0.00     0.000 HD 
HETATM    6  O   UNL     2      -7.849  18.816  68.326  1.00  0.00    -0.284 OA 
HETATM    7  H   UNL     2      -8.795  18.722  68.337  1.00  0.00     0.000 HD 
HETATM    8  O   UNL     1     -10.866  16.572  70.830  1.00  0.00    -0.067 OA 
ENDROOT
BRANCH   4   9
HETATM    9  C   UNL     2      -5.756  17.923  69.130  1.00  0.00    -0.206 C  
HETATM   10  O   UNL     2      -5.265  17.857  70.473  1.00  0.00    -0.242 OA 
HETATM   11  H   UNL     2      -4.320  17.951  70.462  1.00  0.00     0.000 HD 
ENDBRANCH   4   9
BRANCH   3  12
HETATM   12  C   UNL     1     -11.441  15.240  68.960  1.00  0.00    -0.338 A  
HETATM   13  C   UNL     1     -11.575  15.242  67.576  1.00  0.00    -0.214 A  
HETATM   14  C   UNL     1     -11.880  12.869  68.883  1.00  0.00    -0.352 A  
HETATM   15  C   UNL     1     -11.615  14.022  69.623  1.00  0.00    -0.348 A  
HETATM   16  C   UNL     1     -11.974  12.973  67.505  1.00  0.00    -0.306 A  
HETATM   17  N   UNL     1     -11.839  14.135  66.834  1.00  0.00    -0.412 NA 
ENDBRANCH   3  12
BRANCH   4  18
HETATM   18  C   UNL     2      -7.789  16.416  68.654  1.00  0.00    -0.211 C  
HETATM   19  O   UNL     2      -8.817  14.874  65.750  1.00  0.00     0.154 OA 
HETATM   20  C   UNL     2      -8.236  15.292  66.733  1.00  0.00    -0.180 C  
HETATM   21  C   UNL     2      -6.811  15.323  68.466  1.00  0.00    -0.112 C  
HETATM   22  O   UNL     2      -6.518  13.455  66.968  1.00  0.00    -0.443 OA 
HETATM   23  O   UNL     2      -8.486  16.462  67.396  1.00  0.00    -0.172 OA 
HETATM   24  H   UNL     2      -5.788  13.017  67.389  1.00  0.00     0.000 HD 
HETATM   25  O   UNL     2      -5.825  15.060  69.371  1.00  0.00    -0.098 OA 
HETATM   26  C   UNL     2      -7.106  14.615  67.385  1.00  0.00    -0.128 C  
HETATM   27  H   UNL     2      -5.196  14.357  69.250  1.00  0.00     0.000 HD 
ENDBRANCH   4  18
TORSDOF 3
ENDMDL
MODEL      137
REMARK 921   NORMALIZED FREE ENERGY PREDICTED BY IDOCK:   -3.16 KCAL/MOL
REMARK 922        TOTAL FREE ENERGY PREDICTED BY IDOCK:   -4.83 KCAL/MOL
REMARK 923 INTER-LIGAND FREE ENERGY PREDICTED BY IDOCK:   -3.64 KCAL/MOL
REMARK 924 INTRA-LIGAND FREE ENERGY PREDICTED BY IDOCK:   -1.19 KCAL/MOL
REMARK 927      BINDING AFFINITY PREDICTED BY RF-SCORE:    0.00 PKD
ROOT
HETATM    1  N   UNL     1      -9.752   4.358  68.265  1.00  0.00    -0.135 N  
HETATM    2  H2  UNL     1     -10.050   4.318  69.239  1.00  0.00     0.000 HD 
HETATM    3  C   UNL     1      -8.455   4.665  67.956  1.00  0.00    -0.102 C  
HETATM    4  C   UNL     2     -10.337   7.997  69.410  1.00  0.00    -0.217 C  
HETATM    5  H1  UNL     1     -10.419   4.169  67.517  1.00  0.00     0.000 HD 
HETATM    6  O   UNL     2     -11.514   7.157  69.459  1.00  0.00    -0.497 OA 
HETATM    7  H   UNL     2     -11.271   6.282  69.178  1.00  0.00     0.000 HD 
HETATM    8  O   UNL     1      -7.653   4.892  68.855  1.00  0.00    -0.067 OA 
ENDROOT
BRANCH   4   9
HETATM    9  C   UNL     2     -10.729   9.403  69.861  1.00  0.00    -0.234 C  
HETATM   10  O   UNL     2     -11.775   9.890  69.015  1.00  0.00    -0.476 OA 
HETATM   11  H   UNL     2     -12.019  10.765  69.295  1.00  0.00     0.000 HD 
ENDBRANCH   4   9
BRANCH   3  12
HETATM   12  C   UNL     1      -8.071   4.780  66.528  1.00  0.00    -0.107 A  
HETATM   13  C   UNL     1      -6.750   4.513  66.181  1.00  0.00    -0.053 A  
HETATM   14  C   UNL     1      -8.475   5.222  64.192  1.00  0.00    -0.108 A  
HETATM   15  C   UNL     1      -8.943   5.158  65.504  1.00  0.00    -0.156 A  
HETATM   16  C   UNL     1      -7.146   4.916  63.946  1.00  0.00    -0.049 A  
HETATM   17  N   UNL     1      -6.269   4.575  64.912  1.00  0.00    -0.032 NA 
ENDBRANCH   3  12
BRANCH   4  18
HETATM   18  C   UNL     2      -9.732   7.921  68.006  1.00  0.00    -0.159 C  
HETATM   19  O   UNL     2      -9.737   9.653  65.027  1.00  0.00    -0.289 OA 
HETATM   20  C   UNL     2      -9.509   9.155  66.113  1.00  0.00    -0.245 C  
HETATM   21  C   UNL     2      -8.321   8.329  67.828  1.00  0.00    -0.128 C  
HETATM   22  O   UNL     2      -6.995   9.397  66.121  1.00  0.00    -0.087 OA 
HETATM   23  O   UNL     2     -10.430   8.693  67.012  1.00  0.00    -0.295 OA 
HETATM   24  H   UNL     2      -6.128   9.289  66.492  1.00  0.00     0.000 HD 
HETATM   25  O   UNL     2      -7.337   7.955  68.697  1.00  0.00    -0.086 OA 
HETATM   26  C   UNL     2      -8.167   8.987  66.688  1.00  0.00    -0.118 C  
HETATM   27  H   UNL     2      -6.431   8.217  68.582  1.00  0.00     0.000 HD 
ENDBRANCH   4  18
TORSDOF 3
ENDMDL
MODEL      138
REMARK 921   NORMALIZED FREE ENERGY PREDICTED BY IDOCK:   -3.12 KCAL/MOL
REMARK 922        TOTAL FREE ENERGY PREDICTED BY IDOCK:   -4.79 KCAL/MOL
REMARK 923 INTER-LIGAND FREE ENERGY PREDICTED BY IDOCK:   -3.64 KCAL/MOL
REMARK 924 INTRA-LIGAND FREE ENERGY PREDICTED BY IDOCK:   -1.15 KCAL/MOL
REMARK 927      BINDING AFFINITY PREDICTED BY RF-SCORE:    0.00 PKD
ROOT
HETATM    1  N   UNL     1      -6.800  10.001  70.309  1.00  0.00    -0.135 N  
HETATM    2  H2  UNL     1      -7.130  10.229  71.246  1.00  0.00     0.000 HD 
HETATM    3  C   UNL     1      -6.389  10.995  69.465  1.00  0.00    -0.095 C  
HETATM    4  C   UNL     2     -10.447  11.210  69.951  1.00  0.00     0.318 C  
HETATM    5  H1  UNL     1      -6.775   9.030  69.997  1.00  0.00     0.000 HD 
HETATM    6  O   UNL     2     -10.287  10.020  70.758  1.00  0.00    -0.373 OA 
HETATM    7  H   UNL     2      -9.361   9.809  70.803  1.00  0.00     0.000 HD 
HETATM    8  O   UNL     1      -6.418  12.162  69.839  1.00  0.00    -0.110 OA 
ENDROOT
BRANCH   4   9
HETATM    9  C   UNL     2     -11.936  11.547  69.878  1.00  0.00    -0.351 C  
HETATM   10  O   UNL     2     -12.669  10.357  69.570  1.00  0.00    -0.663 OA 
HETATM   11  H   UNL     2     -13.595  10.567  69.525  1.00  0.00     0.000 HD 
ENDBRANCH   4   9
BRANCH   3  12
HETATM   12  C   UNL     1      -5.977  10.635  68.086  1.00  0.00    -0.046 A  
HETATM   13  C   UNL     1      -5.619   9.315  67.832  1.00  0.00    -0.038 A  
HETATM   14  C   UNL     1      -5.515  11.086  65.762  1.00  0.00    -0.119 A  
HETATM   15  C   UNL     1      -5.906  11.538  67.023  1.00  0.00    -0.120 A  
HETATM   16  C   UNL     1      -5.199   9.746  65.607  1.00  0.00    -0.043 A  
HETATM   17  N   UNL     1      -5.230   8.851  66.616  1.00  0.00    -0.037 NA 
ENDBRANCH   3  12
BRANCH   4  18
HETATM   18  C   UNL     2      -9.776  10.982  68.594  1.00  0.00    -0.195 C  
HETATM   19  O   UNL     2     -10.589  10.193  65.340  1.00  0.00    -0.108 OA 
HETATM   20  C   UNL     2     -10.286  10.710  66.398  1.00  0.00    -0.234 C  
HETATM   21  C   UNL     2      -9.340  12.165  67.820  1.00  0.00    -0.193 C  
HETATM   22  O   UNL     2      -9.177  12.792  65.497  1.00  0.00    -0.435 OA 
HETATM   23  O   UNL     2     -10.571  10.241  67.651  1.00  0.00    -0.223 OA 
HETATM   24  H   UNL     2      -8.712  13.616  65.580  1.00  0.00     0.000 HD 
HETATM   25  O   UNL     2      -8.700  13.222  68.399  1.00  0.00    -0.210 OA 
HETATM   26  C   UNL     2      -9.567  11.985  66.527  1.00  0.00    -0.224 C  
HETATM   27  H   UNL     2      -8.419  13.982  67.902  1.00  0.00     0.000 HD 
ENDBRANCH   4  18
TORSDOF 3
ENDMDL
MODEL      139
REMARK 921   NORMALIZED FREE ENERGY PREDICTED BY IDOCK:   -3.03 KCAL/MOL
REMARK 922        TOTAL FREE ENERGY PREDICTED BY IDOCK:   -4.67 KCAL/MOL
REMARK 923 INTER-LIGAND FREE ENERGY PREDICTED BY IDOCK:   -4.05 KCAL/MOL
REMARK 924 INTRA-LIGAND FREE ENERGY PREDICTED BY IDOCK:   -0.62 KCAL/MOL
REMARK 927      BINDING AFFINITY PREDICTED BY RF-SCORE:    0.00 PKD
ROOT
HETATM    1  N   UNL     1     -10.271   4.791  68.145  1.00  0.00    -0.047 N  
HETATM    2  H2  UNL     1     -10.914   4.293  68.759  1.00  0.00     0.000 HD 
HETATM    3  C   UNL     1      -8.952   4.912  68.485  1.00  0.00    -0.109 C  
HETATM    4  C   UNL     2     -11.224   7.226  70.984  1.00  0.00    -0.266 C  
HETATM    5  H1  UNL     1     -10.609   5.201  67.274  1.00  0.00     0.000 HD 
HETATM    6  O   UNL     2     -12.337   6.791  70.168  1.00  0.00    -0.614 OA 
HETATM    7  H   UNL     2     -12.011   6.185  69.512  1.00  0.00     0.000 HD 
HETATM    8  O   UNL     1      -8.546   4.420  69.531  1.00  0.00    -0.075 OA 
ENDROOT
BRANCH   4   9
HETATM    9  C   UNL     2     -11.748   8.200  72.038  1.00  0.00    -0.332 C  
HETATM   10  O   UNL     2     -13.107   7.870  72.343  1.00  0.00    -0.519 OA 
HETATM   11  H   UNL     2     -13.433   8.475  72.998  1.00  0.00     0.000 HD 
ENDBRANCH   4   9
BRANCH   3  12
HETATM   12  C   UNL     1      -8.057   5.699  67.602  1.00  0.00    -0.101 A  
HETATM   13  C   UNL     1      -8.075   5.425  66.238  1.00  0.00    -0.105 A  
HETATM   14  C   UNL     1      -6.390   7.377  67.126  1.00  0.00    -0.055 A  
HETATM   15  C   UNL     1      -7.180   6.690  68.049  1.00  0.00    -0.091 A  
HETATM   16  C   UNL     1      -6.497   7.043  65.785  1.00  0.00    -0.051 A  
HETATM   17  N   UNL     1      -7.312   6.075  65.321  1.00  0.00    -0.073 NA 
ENDBRANCH   3  12
BRANCH   4  18
HETATM   18  C   UNL     2     -10.135   7.797  70.071  1.00  0.00    -0.201 C  
HETATM   19  O   UNL     2      -9.672  10.303  67.753  1.00  0.00    -0.153 OA 
HETATM   20  C   UNL     2      -9.714   9.578  68.729  1.00  0.00    -0.159 C  
HETATM   21  C   UNL     2      -9.092   8.654  70.676  1.00  0.00    -0.171 C  
HETATM   22  O   UNL     2      -7.782  10.570  70.019  1.00  0.00    -0.341 OA 
HETATM   23  O   UNL     2     -10.627   8.591  68.977  1.00  0.00    -0.216 OA 
HETATM   24  H   UNL     2      -7.183  10.621  70.754  1.00  0.00     0.000 HD 
HETATM   25  O   UNL     2      -8.487   8.345  71.859  1.00  0.00    -0.148 OA 
HETATM   26  C   UNL     2      -8.787   9.658  69.867  1.00  0.00    -0.221 C  
HETATM   27  H   UNL     2      -7.817   8.896  72.248  1.00  0.00     0.000 HD 
ENDBRANCH   4  18
TORSDOF 3
ENDMDL
MODEL      140
REMARK 921   NORMALIZED FREE ENERGY PREDICTED BY IDOCK:   -3.00 KCAL/MOL
REMARK 922        TOTAL FREE ENERGY PREDICTED BY IDOCK:   -4.64 KCAL/MOL
REMARK 923 INTER-LIGAND FREE ENERGY PREDICTED BY IDOCK:   -3.44 KCAL/MOL
REMARK 924 INTRA-LIGAND FREE ENERGY PREDICTED BY IDOCK:   -1.20 KCAL/MOL
REMARK 927      BINDING AFFINITY PREDICTED BY RF-SCORE:    0.00 PKD
ROOT
HETATM    1  N   UNL     1     -11.369   6.464  67.787  1.00  0.00    -0.655 N  
HETATM    2  H2  UNL     1     -11.302   6.232  66.796  1.00  0.00     0.000 HD 
HETATM    3  C   UNL     1     -10.869   7.650  68.249  1.00  0.00     0.037 C  
HETATM    4  C   UNL     2      -7.776   5.195  67.171  1.00  0.00    -0.092 C  
HETATM    5  H1  UNL     1     -11.808   5.813  68.437  1.00  0.00     0.000 HD 
HETATM    6  O   UNL     2      -8.811   4.223  66.893  1.00  0.00    -0.111 OA 
HETATM    7  H   UNL     2      -9.655   4.628  67.055  1.00  0.00     0.000 HD 
HETATM    8  O   UNL     1     -10.341   8.434  67.469  1.00  0.00    -0.229 OA 
ENDROOT
BRANCH   4   9
HETATM    9  C   UNL     2      -6.419   4.544  66.911  1.00  0.00    -0.041 C  
HETATM   10  O   UNL     2      -6.396   3.251  67.525  1.00  0.00    -0.034 OA 
HETATM   11  H   UNL     2      -5.552   2.846  67.363  1.00  0.00     0.000 HD 
ENDBRANCH   4   9
BRANCH   3  12
HETATM   12  C   UNL     1     -10.923   7.927  69.706  1.00  0.00    -0.148 A  
HETATM   13  C   UNL     1     -11.616   7.035  70.518  1.00  0.00    -0.319 A  
HETATM   14  C   UNL     1     -10.445   9.193  71.702  1.00  0.00    -0.403 A  
HETATM   15  C   UNL     1     -10.340   9.038  70.320  1.00  0.00    -0.243 A  
HETATM   16  C   UNL     1     -11.138   8.237  72.426  1.00  0.00    -0.377 A  
HETATM   17  N   UNL     1     -11.737   7.167  71.864  1.00  0.00    -0.282 NA 
ENDBRANCH   3  12
BRANCH   4  18
HETATM   18  C   UNL     2      -7.967   5.728  68.594  1.00  0.00    -0.101 C  
HETATM   19  O   UNL     2      -6.765   5.239  71.786  1.00  0.00    -0.048 OA 
HETATM   20  C   UNL     2      -7.033   5.614  70.660  1.00  0.00    -0.057 C  
HETATM   21  C   UNL     2      -7.348   7.025  68.945  1.00  0.00    -0.093 C  
HETATM   22  O   UNL     2      -6.348   8.033  70.895  1.00  0.00    -0.036 OA 
HETATM   23  O   UNL     2      -7.502   4.846  69.631  1.00  0.00    -0.055 OA 
HETATM   24  H   UNL     2      -6.239   8.924  70.584  1.00  0.00     0.000 HD 
HETATM   25  O   UNL     2      -7.396   8.107  68.114  1.00  0.00    -0.091 OA 
HETATM   26  C   UNL     2      -6.864   6.992  70.178  1.00  0.00    -0.060 C  
HETATM   27  H   UNL     2      -6.999   8.940  68.340  1.00  0.00     0.000 HD 
ENDBRANCH   4  18
TORSDOF 3
ENDMDL
MODEL      141
REMARK 921   NORMALIZED FREE ENERGY PREDICTED BY IDOCK:   -2.98 KCAL/MOL
REMARK 922        TOTAL FREE ENERGY PREDICTED BY IDOCK:   -4.62 KCAL/MOL
REMARK 923 INTER-LIGAND FREE ENERGY PREDICTED BY IDOCK:   -3.68 KCAL/MOL
REMARK 924 INTRA-LIGAND FREE ENERGY PREDICTED BY IDOCK:   -0.94 KCAL/MOL
REMARK 927      BINDING AFFINITY PREDICTED BY RF-SCORE:    0.00 PKD
ROOT
HETATM    1  N   UNL     1      -6.609   8.539  67.657  1.00  0.00    -0.061 N  
HETATM    2  H2  UNL     1      -5.709   8.158  67.948  1.00  0.00     0.000 HD 
HETATM    3  C   UNL     1      -7.157   9.595  68.332  1.00  0.00    -0.070 C  
HETATM    4  C   UNL     2      -7.287   6.253  70.692  1.00  0.00    -0.082 C  
HETATM    5  H1  UNL     1      -7.104   8.135  66.863  1.00  0.00     0.000 HD 
HETATM    6  O   UNL     2      -6.723   5.575  69.545  1.00  0.00    -0.054 OA 
HETATM    7  H   UNL     2      -6.576   6.216  68.859  1.00  0.00     0.000 HD 
HETATM    8  O   UNL     1      -6.563  10.082  69.287  1.00  0.00    -0.047 OA 
ENDROOT
BRANCH   4   9
HETATM    9  C   UNL     2      -7.524   5.222  71.794  1.00  0.00    -0.091 C  
HETATM   10  O   UNL     2      -8.169   5.861  72.900  1.00  0.00    -0.117 OA 
HETATM   11  H   UNL     2      -8.317   5.220  73.586  1.00  0.00     0.000 HD 
ENDBRANCH   4   9
BRANCH   3  12
HETATM   12  C   UNL     1      -8.498  10.083  67.925  1.00  0.00    -0.118 A  
HETATM   13  C   UNL     1      -9.070  11.118  68.658  1.00  0.00    -0.166 A  
HETATM   14  C   UNL     1     -10.486  10.104  66.560  1.00  0.00    -0.236 A  
HETATM   15  C   UNL     1      -9.238   9.559  66.862  1.00  0.00    -0.174 A  
HETATM   16  C   UNL     1     -10.959  11.149  67.338  1.00  0.00    -0.290 A  
HETATM   17  N   UNL     1     -10.285  11.661  68.388  1.00  0.00    -0.202 NA 
ENDBRANCH   3  12
BRANCH   4  18
HETATM   18  C   UNL     2      -8.538   7.017  70.251  1.00  0.00    -0.140 C  
HETATM   19  O   UNL     2     -11.969   6.701  70.256  1.00  0.00    -0.387 OA 
HETATM   20  C   UNL     2     -10.798   6.966  70.454  1.00  0.00    -0.261 C  
HETATM   21  C   UNL     2      -8.999   8.148  71.086  1.00  0.00    -0.146 C  
HETATM   22  O   UNL     2     -11.109   9.136  71.709  1.00  0.00    -0.351 OA 
HETATM   23  O   UNL     2      -9.717   6.204  70.110  1.00  0.00    -0.160 OA 
HETATM   24  H   UNL     2     -10.802   9.914  72.159  1.00  0.00     0.000 HD 
HETATM   25  O   UNL     2      -8.140   9.073  71.602  1.00  0.00    -0.329 OA 
HETATM   26  C   UNL     2     -10.322   8.170  71.151  1.00  0.00    -0.198 C  
HETATM   27  H   UNL     2      -8.436   9.800  72.138  1.00  0.00     0.000 HD 
ENDBRANCH   4  18
TORSDOF 3
ENDMDL
MODEL      142
REMARK 921   NORMALIZED FREE ENERGY PREDICTED BY IDOCK:   -2.97 KCAL/MOL
REMARK 922        TOTAL FREE ENERGY PREDICTED BY IDOCK:   -4.60 KCAL/MOL
REMARK 923 INTER-LIGAND FREE ENERGY PREDICTED BY IDOCK:   -3.65 KCAL/MOL
REMARK 924 INTRA-LIGAND FREE ENERGY PREDICTED BY IDOCK:   -0.95 KCAL/MOL
REMARK 927      BINDING AFFINITY PREDICTED BY RF-SCORE:    0.00 PKD
ROOT
HETATM    1  N   UNL     1      -6.243   8.242  65.787  1.00  0.00    -0.051 N  
HETATM    2  H2  UNL     1      -6.512   7.979  64.839  1.00  0.00     0.000 HD 
HETATM    3  C   UNL     1      -6.913   7.722  66.859  1.00  0.00    -0.073 C  
HETATM    4  C   UNL     2      -9.345  10.349  64.876  1.00  0.00    -0.243 C  
HETATM    5  H1  UNL     1      -5.473   8.894  65.938  1.00  0.00     0.000 HD 
HETATM    6  O   UNL     2      -8.195  10.580  64.030  1.00  0.00    -0.262 OA 
HETATM    7  H   UNL     2      -7.491  10.009  64.317  1.00  0.00     0.000 HD 
HETATM    8  O   UNL     1      -7.838   6.938  66.678  1.00  0.00    -0.103 OA 
ENDROOT
BRANCH   4   9
HETATM    9  C   UNL     2     -10.476  11.268  64.415  1.00  0.00    -0.345 C  
HETATM   10  O   UNL     2     -10.004  12.619  64.402  1.00  0.00    -0.530 OA 
HETATM   11  H   UNL     2     -10.707  13.190  64.115  1.00  0.00     0.000 HD 
ENDBRANCH   4   9
BRANCH   3  12
HETATM   12  C   UNL     1      -6.540   8.175  68.221  1.00  0.00    -0.060 A  
HETATM   13  C   UNL     1      -6.630   7.260  69.265  1.00  0.00    -0.041 A  
HETATM   14  C   UNL     1      -5.782   9.784  69.851  1.00  0.00    -0.041 A  
HETATM   15  C   UNL     1      -6.119   9.470  68.534  1.00  0.00    -0.044 A  
HETATM   16  C   UNL     1      -5.885   8.795  70.815  1.00  0.00    -0.034 A  
HETATM   17  N   UNL     1      -6.312   7.542  70.556  1.00  0.00    -0.038 NA 
ENDBRANCH   3  12
BRANCH   4  18
HETATM   18  C   UNL     2      -8.930  10.532  66.338  1.00  0.00    -0.159 C  
HETATM   19  O   UNL     2      -7.845  12.991  68.493  1.00  0.00    -0.137 OA 
HETATM   20  C   UNL     2      -8.453  12.160  67.846  1.00  0.00    -0.163 C  
HETATM   21  C   UNL     2      -9.992  10.600  67.365  1.00  0.00    -0.181 C  
HETATM   22  O   UNL     2     -10.351  11.742  69.459  1.00  0.00    -0.414 OA 
HETATM   23  O   UNL     2      -8.142  11.708  66.594  1.00  0.00    -0.165 OA 
HETATM   24  H   UNL     2     -11.149  11.314  69.747  1.00  0.00     0.000 HD 
HETATM   25  O   UNL     2     -11.063   9.754  67.368  1.00  0.00    -0.370 OA 
HETATM   26  C   UNL     2      -9.688  11.498  68.291  1.00  0.00    -0.198 C  
HETATM   27  H   UNL     2     -11.745   9.798  68.028  1.00  0.00     0.000 HD 
ENDBRANCH   4  18
TORSDOF 3
ENDMDL
MODEL      143
REMARK 921   NORMALIZED FREE ENERGY PREDICTED BY IDOCK:   -2.93 KCAL/MOL
REMARK 922        TOTAL FREE ENERGY PREDICTED BY IDOCK:   -4.55 KCAL/MOL
REMARK 923 INTER-LIGAND FREE ENERGY PREDICTED BY IDOCK:   -4.06 KCAL/MOL
REMARK 924 INTRA-LIGAND FREE ENERGY PREDICTED BY IDOCK:   -0.50 KCAL/MOL
REMARK 927      BINDING AFFINITY PREDICTED BY RF-SCORE:    0.00 PKD
ROOT
HETATM    1  N   UNL     1      -9.443   5.541  66.696  1.00  0.00    -0.139 N  
HETATM    2  H2  UNL     1      -9.456   5.807  65.712  1.00  0.00     0.000 HD 
HETATM    3  C   UNL     1     -10.511   5.833  67.499  1.00  0.00    -0.245 C  
HETATM    4  C   UNL     2      -8.543   9.290  66.537  1.00  0.00    -0.130 C  
HETATM    5  H1  UNL     1      -8.635   5.056  67.085  1.00  0.00     0.000 HD 
HETATM    6  O   UNL     2      -7.611   8.421  65.851  1.00  0.00    -0.079 OA 
HETATM    7  H   UNL     2      -7.922   7.526  65.929  1.00  0.00     0.000 HD 
HETATM    8  O   UNL     1     -11.483   6.416  67.033  1.00  0.00    -0.196 OA 
ENDROOT
BRANCH   4   9
HETATM    9  C   UNL     2      -8.042  10.729  66.413  1.00  0.00    -0.153 C  
HETATM   10  O   UNL     2      -8.856  11.425  65.464  1.00  0.00    -0.349 OA 
HETATM   11  H   UNL     2      -8.545  12.320  65.386  1.00  0.00     0.000 HD 
ENDBRANCH   4   9
BRANCH   3  12
HETATM   12  C   UNL     1     -10.433   5.490  68.941  1.00  0.00    -0.282 A  
HETATM   13  C   UNL     1      -9.772   4.321  69.302  1.00  0.00    -0.170 A  
HETATM   14  C   UNL     1     -10.853   5.842  71.290  1.00  0.00    -0.313 A  
HETATM   15  C   UNL     1     -10.997   6.255  69.965  1.00  0.00    -0.422 A  
HETATM   16  C   UNL     1     -10.157   4.672  71.547  1.00  0.00    -0.185 A  
HETATM   17  N   UNL     1      -9.623   3.895  70.583  1.00  0.00    -0.178 NA 
ENDBRANCH   3  12
BRANCH   4  18
HETATM   18  C   UNL     2      -8.714   8.796  67.976  1.00  0.00    -0.141 C  
HETATM   19  O   UNL     2      -7.030   6.973  70.366  1.00  0.00    -0.059 OA 
HETATM   20  C   UNL     2      -7.542   7.817  69.657  1.00  0.00    -0.092 C  
HETATM   21  C   UNL     2      -8.505   9.760  69.078  1.00  0.00    -0.137 C  
HETATM   22  O   UNL     2      -7.645   9.706  71.331  1.00  0.00    -0.260 OA 
HETATM   23  O   UNL     2      -7.866   7.690  68.334  1.00  0.00    -0.117 OA 
HETATM   24  H   UNL     2      -7.866  10.585  71.615  1.00  0.00     0.000 HD 
HETATM   25  O   UNL     2      -9.000  11.031  69.042  1.00  0.00    -0.298 OA 
HETATM   26  C   UNL     2      -7.885   9.178  70.095  1.00  0.00    -0.113 C  
HETATM   27  H   UNL     2      -8.865  11.650  69.750  1.00  0.00     0.000 HD 
ENDBRANCH   4  18
TORSDOF 3
ENDMDL
MODEL      144
REMARK 921   NORMALIZED FREE ENERGY PREDICTED BY IDOCK:   -2.89 KCAL/MOL
REMARK 922        TOTAL FREE ENERGY PREDICTED BY IDOCK:   -4.51 KCAL/MOL
REMARK 923 INTER-LIGAND FREE ENERGY PREDICTED BY IDOCK:   -3.65 KCAL/MOL
REMARK 924 INTRA-LIGAND FREE ENERGY PREDICTED BY IDOCK:   -0.86 KCAL/MOL
REMARK 927      BINDING AFFINITY PREDICTED BY RF-SCORE:    0.00 PKD
ROOT
HETATM    1  N   UNL     1      -9.583   5.427  65.415  1.00  0.00    -0.364 N  
HETATM    2  H2  UNL     1      -9.277   4.507  65.099  1.00  0.00     0.000 HD 
HETATM    3  C   UNL     1      -8.664   6.356  65.817  1.00  0.00    -0.127 C  
HETATM    4  C   UNL     2      -8.855   3.341  68.579  1.00  0.00    -0.117 C  
HETATM    5  H1  UNL     1     -10.577   5.658  65.431  1.00  0.00     0.000 HD 
HETATM    6  O   UNL     2      -9.906   2.809  67.739  1.00  0.00    -0.277 OA 
HETATM    7  H   UNL     2     -10.002   3.375  66.982  1.00  0.00     0.000 HD 
HETATM    8  O   UNL     1      -7.470   6.080  65.797  1.00  0.00    -0.078 OA 
ENDROOT
BRANCH   4   9
HETATM    9  C   UNL     2      -8.702   2.431  69.797  1.00  0.00    -0.071 C  
HETATM   10  O   UNL     2      -7.311   2.280  70.095  1.00  0.00    -0.036 OA 
HETATM   11  H   UNL     2      -7.215   1.715  70.853  1.00  0.00     0.000 HD 
ENDBRANCH   4   9
BRANCH   3  12
HETATM   12  C   UNL     1      -9.147   7.661  66.332  1.00  0.00    -0.214 A  
HETATM   13  C   UNL     1      -8.323   8.772  66.182  1.00  0.00    -0.123 A  
HETATM   14  C   UNL     1     -10.731   9.125  67.413  1.00  0.00    -0.247 A  
HETATM   15  C   UNL     1     -10.372   7.849  66.978  1.00  0.00    -0.411 A  
HETATM   16  C   UNL     1      -9.848  10.171  67.196  1.00  0.00    -0.187 A  
HETATM   17  N   UNL     1      -8.647  10.022  66.602  1.00  0.00    -0.125 NA 
ENDBRANCH   3  12
BRANCH   4  18
HETATM   18  C   UNL     2      -9.175   4.802  68.908  1.00  0.00    -0.124 C  
HETATM   19  O   UNL     2     -11.324   6.665  70.854  1.00  0.00    -0.285 OA 
HETATM   20  C   UNL     2     -10.397   6.057  70.353  1.00  0.00    -0.223 C  
HETATM   21  C   UNL     2      -8.280   5.523  69.839  1.00  0.00    -0.105 C  
HETATM   22  O   UNL     2      -8.495   7.231  71.528  1.00  0.00    -0.113 OA 
HETATM   23  O   UNL     2     -10.482   5.015  69.471  1.00  0.00    -0.223 OA 
HETATM   24  H   UNL     2      -7.578   7.398  71.713  1.00  0.00     0.000 HD 
HETATM   25  O   UNL     2      -6.920   5.430  69.765  1.00  0.00    -0.057 OA 
HETATM   26  C   UNL     2      -8.979   6.315  70.639  1.00  0.00    -0.144 C  
HETATM   27  H   UNL     2      -6.345   5.894  70.362  1.00  0.00     0.000 HD 
ENDBRANCH   4  18
TORSDOF 3
ENDMDL
MODEL      145
REMARK 921   NORMALIZED FREE ENERGY PREDICTED BY IDOCK:   -2.81 KCAL/MOL
REMARK 922        TOTAL FREE ENERGY PREDICTED BY IDOCK:   -4.42 KCAL/MOL
REMARK 923 INTER-LIGAND FREE ENERGY PREDICTED BY IDOCK:   -3.64 KCAL/MOL
REMARK 924 INTRA-LIGAND FREE ENERGY PREDICTED BY IDOCK:   -0.78 KCAL/MOL
REMARK 927      BINDING AFFINITY PREDICTED BY RF-SCORE:    0.00 PKD
ROOT
HETATM    1  N   UNL     1      -9.856   8.164  70.934  1.00  0.00    -0.175 N  
HETATM    2  H2  UNL     1      -9.510   7.233  71.163  1.00  0.00     0.000 HD 
HETATM    3  C   UNL     1     -10.840   8.320  69.996  1.00  0.00    -0.232 C  
HETATM    4  C   UNL     2      -7.368   7.177  68.154  1.00  0.00    -0.097 C  
HETATM    5  H1  UNL     1      -9.470   8.983  71.403  1.00  0.00     0.000 HD 
HETATM    6  O   UNL     2      -6.788   7.254  69.477  1.00  0.00    -0.047 OA 
HETATM    7  H   UNL     2      -7.474   7.484  70.093  1.00  0.00     0.000 HD 
HETATM    8  O   UNL     1     -11.304   7.336  69.432  1.00  0.00    -0.061 OA 
ENDROOT
BRANCH   4   9
HETATM    9  C   UNL     2      -6.264   6.807  67.163  1.00  0.00    -0.033 C  
HETATM   10  O   UNL     2      -6.808   5.944  66.160  1.00  0.00    -0.058 OA 
HETATM   11  H   UNL     2      -6.122   5.715  65.544  1.00  0.00     0.000 HD 
ENDBRANCH   4   9
BRANCH   3  12
HETATM   12  C   UNL     1     -11.274   9.693  69.639  1.00  0.00    -0.176 A  
HETATM   13  C   UNL     1     -11.771  10.507  70.651  1.00  0.00    -0.357 A  
HETATM   14  C   UNL     1     -11.659  11.533  68.128  1.00  0.00    -0.378 A  
HETATM   15  C   UNL     1     -11.234  10.222  68.347  1.00  0.00    -0.284 A  
HETATM   16  C   UNL     1     -12.118  12.270  69.207  1.00  0.00    -0.166 A  
HETATM   17  N   UNL     1     -12.196  11.784  70.463  1.00  0.00    -0.365 NA 
ENDBRANCH   3  12
BRANCH   4  18
HETATM   18  C   UNL     2      -8.084   8.496  67.849  1.00  0.00    -0.115 C  
HETATM   19  O   UNL     2      -7.412  11.860  67.536  1.00  0.00    -0.117 OA 
HETATM   20  C   UNL     2      -7.646  10.676  67.391  1.00  0.00    -0.095 C  
HETATM   21  C   UNL     2      -8.426   8.799  66.442  1.00  0.00    -0.121 C  
HETATM   22  O   UNL     2      -8.580  10.759  65.046  1.00  0.00    -0.236 OA 
HETATM   23  O   UNL     2      -7.379   9.673  68.282  1.00  0.00    -0.079 OA 
HETATM   24  H   UNL     2      -8.966  10.378  64.266  1.00  0.00     0.000 HD 
HETATM   25  O   UNL     2      -8.957   7.864  65.601  1.00  0.00    -0.323 OA 
HETATM   26  C   UNL     2      -8.243  10.085  66.185  1.00  0.00    -0.121 C  
HETATM   27  H   UNL     2      -9.177   8.059  64.698  1.00  0.00     0.000 HD 
ENDBRANCH   4  18
TORSDOF 3
ENDMDL
MODEL      146
REMARK 921   NORMALIZED FREE ENERGY PREDICTED BY IDOCK:   -2.75 KCAL/MOL
REMARK 922        TOTAL FREE ENERGY PREDICTED BY IDOCK:   -4.34 KCAL/MOL
REMARK 923 INTER-LIGAND FREE ENERGY PREDICTED BY IDOCK:   -3.61 KCAL/MOL
REMARK 924 INTRA-LIGAND FREE ENERGY PREDICTED BY IDOCK:   -0.73 KCAL/MOL
REMARK 927      BINDING AFFINITY PREDICTED BY RF-SCORE:    0.00 PKD
ROOT
HETATM    1  N   UNL     1     -10.217   7.725  66.022  1.00  0.00    -0.158 N  
HETATM    2  H2  UNL     1      -9.896   7.165  65.233  1.00  0.00     0.000 HD 
HETATM    3  C   UNL     1      -9.310   8.287  66.879  1.00  0.00    -0.176 C  
HETATM    4  C   UNL     2      -9.352   4.228  67.407  1.00  0.00    -0.163 C  
HETATM    5  H1  UNL     1     -11.215   7.869  66.176  1.00  0.00     0.000 HD 
HETATM    6  O   UNL     2     -10.412   4.237  66.422  1.00  0.00    -0.366 OA 
HETATM    7  H   UNL     2     -10.542   5.132  66.129  1.00  0.00     0.000 HD 
HETATM    8  O   UNL     1      -8.111   8.115  66.694  1.00  0.00    -0.100 OA 
ENDROOT
BRANCH   4   9
HETATM    9  C   UNL     2      -9.144   2.790  67.879  1.00  0.00    -0.182 C  
HETATM   10  O   UNL     2      -7.748   2.573  68.112  1.00  0.00    -0.055 OA 
HETATM   11  H   UNL     2      -7.619   1.678  68.406  1.00  0.00     0.000 HD 
ENDBRANCH   4   9
BRANCH   3  12
HETATM   12  C   UNL     1      -9.812   9.041  68.054  1.00  0.00    -0.197 A  
HETATM   13  C   UNL     1     -10.925   9.857  67.883  1.00  0.00    -0.223 A  
HETATM   14  C   UNL     1      -9.792   9.746  70.360  1.00  0.00    -0.269 A  
HETATM   15  C   UNL     1      -9.228   9.003  69.323  1.00  0.00    -0.145 A  
HETATM   16  C   UNL     1     -10.916  10.512  70.093  1.00  0.00    -0.270 A  
HETATM   17  N   UNL     1     -11.489  10.594  68.875  1.00  0.00    -0.271 NA 
ENDBRANCH   3  12
BRANCH   4  18
HETATM   18  C   UNL     2      -9.699   5.222  68.518  1.00  0.00    -0.143 C  
HETATM   19  O   UNL     2     -11.013   5.276  71.703  1.00  0.00    -0.171 OA 
HETATM   20  C   UNL     2     -10.325   5.280  70.700  1.00  0.00    -0.254 C  
HETATM   21  C   UNL     2      -8.598   5.757  69.350  1.00  0.00    -0.111 C  
HETATM   22  O   UNL     2      -8.289   6.441  71.642  1.00  0.00    -0.123 OA 
HETATM   23  O   UNL     2     -10.641   4.729  69.489  1.00  0.00    -0.007 OA 
HETATM   24  H   UNL     2      -7.419   6.818  71.587  1.00  0.00     0.000 HD 
HETATM   25  O   UNL     2      -7.413   6.170  68.815  1.00  0.00    -0.083 OA 
HETATM   26  C   UNL     2      -8.979   5.863  70.614  1.00  0.00    -0.145 C  
HETATM   27  H   UNL     2      -6.706   6.514  69.349  1.00  0.00     0.000 HD 
ENDBRANCH   4  18
TORSDOF 3
ENDMDL
MODEL      147
REMARK 921   NORMALIZED FREE ENERGY PREDICTED BY IDOCK:   -2.61 KCAL/MOL
REMARK 922        TOTAL FREE ENERGY PREDICTED BY IDOCK:   -4.19 KCAL/MOL
REMARK 923 INTER-LIGAND FREE ENERGY PREDICTED BY IDOCK:   -3.17 KCAL/MOL
REMARK 924 INTRA-LIGAND FREE ENERGY PREDICTED BY IDOCK:   -1.01 KCAL/MOL
REMARK 927      BINDING AFFINITY PREDICTED BY RF-SCORE:    0.00 PKD
ROOT
HETATM    1  N   UNL     1     -10.284   3.776  66.375  1.00  0.00    -0.279 N  
HETATM    2  H2  UNL     1     -11.271   3.639  66.590  1.00  0.00     0.000 HD 
HETATM    3  C   UNL     1      -9.324   3.160  67.131  1.00  0.00    -0.165 C  
HETATM    4  C   UNL     2     -11.119   6.104  69.337  1.00  0.00    -0.409 C  
HETATM    5  H1  UNL     1     -10.008   4.372  65.595  1.00  0.00     0.000 HD 
HETATM    6  O   UNL     2     -11.860   6.385  68.127  1.00  0.00    -0.296 OA 
HETATM    7  H   UNL     2     -11.602   5.755  67.463  1.00  0.00     0.000 HD 
HETATM    8  O   UNL     1      -9.655   2.443  68.068  1.00  0.00    -0.199 OA 
ENDROOT
BRANCH   4   9
HETATM    9  C   UNL     2     -11.533   7.117  70.403  1.00  0.00    -0.278 C  
HETATM   10  O   UNL     2     -11.392   8.438  69.871  1.00  0.00    -0.449 OA 
HETATM   11  H   UNL     2     -11.650   9.068  70.534  1.00  0.00     0.000 HD 
ENDBRANCH   4   9
BRANCH   3  12
HETATM   12  C   UNL     1      -7.897   3.433  66.832  1.00  0.00    -0.080 A  
HETATM   13  C   UNL     1      -6.988   3.398  67.884  1.00  0.00    -0.050 A  
HETATM   14  C   UNL     1      -6.037   3.971  65.394  1.00  0.00    -0.024 A  
HETATM   15  C   UNL     1      -7.403   3.743  65.562  1.00  0.00    -0.072 A  
HETATM   16  C   UNL     1      -5.210   3.892  66.503  1.00  0.00    -0.009 A  
HETATM   17  N   UNL     1      -5.655   3.622  67.747  1.00  0.00    -0.020 NA 
ENDBRANCH   3  12
BRANCH   4  18
HETATM   18  C   UNL     2      -9.623   6.094  69.012  1.00  0.00    -0.127 C  
HETATM   19  O   UNL     2      -6.997   8.281  68.573  1.00  0.00    -0.066 OA 
HETATM   20  C   UNL     2      -7.821   7.473  68.959  1.00  0.00    -0.120 C  
HETATM   21  C   UNL     2      -8.674   5.732  70.087  1.00  0.00    -0.139 C  
HETATM   22  O   UNL     2      -6.440   6.352  70.752  1.00  0.00    -0.045 OA 
HETATM   23  O   UNL     2      -9.110   7.345  68.520  1.00  0.00    -0.137 OA 
HETATM   24  H   UNL     2      -6.288   5.713  71.438  1.00  0.00     0.000 HD 
HETATM   25  O   UNL     2      -8.895   4.687  70.936  1.00  0.00    -0.109 OA 
HETATM   26  C   UNL     2      -7.585   6.484  70.020  1.00  0.00    -0.100 C  
HETATM   27  H   UNL     2      -8.285   4.455  71.627  1.00  0.00     0.000 HD 
ENDBRANCH   4  18
TORSDOF 3
ENDMDL
MODEL      148
REMARK 921   NORMALIZED FREE ENERGY PREDICTED BY IDOCK:   -2.50 KCAL/MOL
REMARK 922        TOTAL FREE ENERGY PREDICTED BY IDOCK:   -4.05 KCAL/MOL
REMARK 923 INTER-LIGAND FREE ENERGY PREDICTED BY IDOCK:   -3.05 KCAL/MOL
REMARK 924 INTRA-LIGAND FREE ENERGY PREDICTED BY IDOCK:   -1.00 KCAL/MOL
REMARK 927      BINDING AFFINITY PREDICTED BY RF-SCORE:    0.00 PKD
ROOT
HETATM    1  N   UNL     1      -7.546   7.113  66.785  1.00  0.00    -0.092 N  
HETATM    2  H2  UNL     1      -7.827   8.072  66.583  1.00  0.00     0.000 HD 
HETATM    3  C   UNL     1      -8.468   6.104  66.737  1.00  0.00    -0.111 C  
HETATM    4  C   UNL     2      -9.226   8.488  69.977  1.00  0.00    -0.155 C  
HETATM    5  H1  UNL     1      -6.577   6.903  67.025  1.00  0.00     0.000 HD 
HETATM    6  O   UNL     2      -8.034   9.201  69.572  1.00  0.00    -0.089 OA 
HETATM    7  H   UNL     2      -7.703   8.806  68.774  1.00  0.00     0.000 HD 
HETATM    8  O   UNL     1      -9.632   6.356  66.449  1.00  0.00    -0.164 OA 
ENDROOT
BRANCH   4   9
HETATM    9  C   UNL     2      -9.758   9.124  71.260  1.00  0.00    -0.281 C  
HETATM   10  O   UNL     2      -8.845   8.852  72.328  1.00  0.00    -0.397 OA 
HETATM   11  H   UNL     2      -9.175   9.248  73.126  1.00  0.00     0.000 HD 
ENDBRANCH   4   9
BRANCH   3  12
HETATM   12  C   UNL     1      -8.040   4.731  67.101  1.00  0.00    -0.102 A  
HETATM   13  C   UNL     1      -8.615   3.662  66.420  1.00  0.00    -0.115 A  
HETATM   14  C   UNL     1      -6.773   3.102  68.350  1.00  0.00    -0.044 A  
HETATM   15  C   UNL     1      -7.109   4.433  68.099  1.00  0.00    -0.060 A  
HETATM   16  C   UNL     1      -7.386   2.111  67.601  1.00  0.00    -0.055 A  
HETATM   17  N   UNL     1      -8.308   2.359  66.649  1.00  0.00    -0.087 NA 
ENDBRANCH   3  12
BRANCH   4  18
HETATM   18  C   UNL     2      -8.896   6.997  70.091  1.00  0.00    -0.145 C  
HETATM   19  O   UNL     2      -7.242   4.807  72.174  1.00  0.00    -0.073 OA 
HETATM   20  C   UNL     2      -8.035   5.489  71.554  1.00  0.00    -0.116 C  
HETATM   21  C   UNL     2      -9.957   6.078  70.557  1.00  0.00    -0.185 C  
HETATM   22  O   UNL     2     -10.092   4.056  71.865  1.00  0.00    -0.180 OA 
HETATM   23  O   UNL     2      -7.788   6.695  70.959  1.00  0.00    -0.099 OA 
HETATM   24  H   UNL     2     -11.006   3.835  71.736  1.00  0.00     0.000 HD 
HETATM   25  O   UNL     2     -11.243   6.158  70.108  1.00  0.00    -0.351 OA 
HETATM   26  C   UNL     2      -9.451   5.148  71.355  1.00  0.00    -0.152 C  
HETATM   27  H   UNL     2     -11.925   5.567  70.407  1.00  0.00     0.000 HD 
ENDBRANCH   4  18
TORSDOF 3
ENDMDL
MODEL      149
REMARK 921   NORMALIZED FREE ENERGY PREDICTED BY IDOCK:   -2.30 KCAL/MOL
REMARK 922        TOTAL FREE ENERGY PREDICTED BY IDOCK:   -3.82 KCAL/MOL
REMARK 923 INTER-LIGAND FREE ENERGY PREDICTED BY IDOCK:   -2.88 KCAL/MOL
REMARK 924 INTRA-LIGAND FREE ENERGY PREDICTED BY IDOCK:   -0.95 KCAL/MOL
REMARK 927      BINDING AFFINITY PREDICTED BY RF-SCORE:    0.00 PKD
ROOT
HETATM    1  N   UNL     1      -7.880   4.327  65.133  1.00  0.00    -0.085 N  
HETATM    2  H2  UNL     1      -8.065   3.485  65.678  1.00  0.00     0.000 HD 
HETATM    3  C   UNL     1      -6.840   5.148  65.470  1.00  0.00    -0.061 C  
HETATM    4  C   UNL     2      -9.783   5.439  68.301  1.00  0.00    -0.135 C  
HETATM    5  H1  UNL     1      -8.470   4.558  64.333  1.00  0.00     0.000 HD 
HETATM    6  O   UNL     2     -10.520   4.533  67.446  1.00  0.00     0.015 OA 
HETATM    7  H   UNL     2      -9.969   4.303  66.706  1.00  0.00     0.000 HD 
HETATM    8  O   UNL     1      -6.131   4.870  66.430  1.00  0.00    -0.029 OA 
ENDROOT
BRANCH   4   9
HETATM    9  C   UNL     2     -10.669   5.810  69.489  1.00  0.00    -0.338 C  
HETATM   10  O   UNL     2     -11.718   6.672  69.037  1.00  0.00    -0.608 OA 
HETATM   11  H   UNL     2     -12.269   6.903  69.776  1.00  0.00     0.000 HD 
ENDBRANCH   4   9
BRANCH   3  12
HETATM   12  C   UNL     1      -6.640   6.398  64.696  1.00  0.00    -0.034 A  
HETATM   13  C   UNL     1      -6.260   7.544  65.388  1.00  0.00    -0.038 A  
HETATM   14  C   UNL     1      -6.596   7.735  62.689  1.00  0.00    -0.076 A  
HETATM   15  C   UNL     1      -6.825   6.509  63.316  1.00  0.00    -0.046 A  
HETATM   16  C   UNL     1      -6.199   8.812  63.464  1.00  0.00    -0.085 A  
HETATM   17  N   UNL     1      -6.037   8.749  64.801  1.00  0.00    -0.064 NA 
ENDBRANCH   3  12
BRANCH   4  18
HETATM   18  C   UNL     2      -9.303   6.628  67.465  1.00  0.00    -0.123 C  
HETATM   19  O   UNL     2     -10.529   9.489  65.986  1.00  0.00    -0.146 OA 
HETATM   20  C   UNL     2     -10.014   8.640  66.689  1.00  0.00    -0.287 C  
HETATM   21  C   UNL     2      -8.583   7.722  68.153  1.00  0.00    -0.123 C  
HETATM   22  O   UNL     2      -8.391  10.117  67.939  1.00  0.00    -0.116 OA 
HETATM   23  O   UNL     2     -10.344   7.314  66.747  1.00  0.00    -0.269 OA 
HETATM   24  H   UNL     2      -7.695  10.284  68.563  1.00  0.00     0.000 HD 
HETATM   25  O   UNL     2      -7.616   7.488  69.087  1.00  0.00    -0.096 OA 
HETATM   26  C   UNL     2      -8.938   8.898  67.656  1.00  0.00    -0.134 C  
HETATM   27  H   UNL     2      -7.153   8.191  69.528  1.00  0.00     0.000 HD 
ENDBRANCH   4  18
TORSDOF 3
ENDMDL
MODEL      150
REMARK 921   NORMALIZED FREE ENERGY PREDICTED BY IDOCK:   -1.89 KCAL/MOL
REMARK 922        TOTAL FREE ENERGY PREDICTED BY IDOCK:   -3.34 KCAL/MOL
REMARK 923 INTER-LIGAND FREE ENERGY PREDICTED BY IDOCK:   -3.10 KCAL/MOL
REMARK 924 INTRA-LIGAND FREE ENERGY PREDICTED BY IDOCK:   -0.24 KCAL/MOL
REMARK 927      BINDING AFFINITY PREDICTED BY RF-SCORE:    0.00 PKD
ROOT
HETATM    1  N   UNL     1     -11.010   5.728  66.133  1.00  0.00    -0.703 N  
HETATM    2  H2  UNL     1     -11.754   6.421  66.066  1.00  0.00     0.000 HD 
HETATM    3  C   UNL     1     -10.485   5.400  67.353  1.00  0.00    -0.189 C  
HETATM    4  C   UNL     2      -9.333   9.197  66.349  1.00  0.00    -0.204 C  
HETATM    5  H1  UNL     1     -10.654   5.276  65.291  1.00  0.00     0.000 HD 
HETATM    6  O   UNL     2     -10.035   8.947  65.108  1.00  0.00    -0.205 OA 
HETATM    7  H   UNL     2     -10.427   8.082  65.154  1.00  0.00     0.000 HD 
HETATM    8  O   UNL     1     -10.913   5.943  68.365  1.00  0.00    -0.274 OA 
ENDROOT
BRANCH   4   9
HETATM    9  C   UNL     2      -8.703  10.587  66.275  1.00  0.00    -0.151 C  
HETATM   10  O   UNL     2      -9.255  11.291  65.158  1.00  0.00    -0.267 OA 
HETATM   11  H   UNL     2      -8.863  12.156  65.112  1.00  0.00     0.000 HD 
ENDBRANCH   4   9
BRANCH   3  12
HETATM   12  C   UNL     1      -9.359   4.436  67.408  1.00  0.00    -0.178 A  
HETATM   13  C   UNL     1      -9.646   3.108  67.709  1.00  0.00    -0.064 A  
HETATM   14  C   UNL     1      -7.042   3.782  67.264  1.00  0.00    -0.059 A  
HETATM   15  C   UNL     1      -8.020   4.775  67.197  1.00  0.00    -0.102 A  
HETATM   16  C   UNL     1      -7.433   2.484  67.549  1.00  0.00    -0.057 A  
HETATM   17  N   UNL     1      -8.712   2.125  67.785  1.00  0.00    -0.093 NA 
ENDBRANCH   3  12
BRANCH   4  18
HETATM   18  C   UNL     2      -8.341   8.058  66.595  1.00  0.00    -0.120 C  
HETATM   19  O   UNL     2      -5.129   7.122  65.772  1.00  0.00    -0.022 OA 
HETATM   20  C   UNL     2      -6.157   7.523  66.284  1.00  0.00    -0.041 C  
HETATM   21  C   UNL     2      -7.639   8.008  67.896  1.00  0.00    -0.112 C  
HETATM   22  O   UNL     2      -5.470   7.335  68.707  1.00  0.00    -0.020 OA 
HETATM   23  O   UNL     2      -7.271   7.978  65.636  1.00  0.00    -0.068 OA 
HETATM   24  H   UNL     2      -5.615   7.401  69.644  1.00  0.00     0.000 HD 
HETATM   25  O   UNL     2      -8.279   8.231  69.081  1.00  0.00    -0.118 OA 
HETATM   26  C   UNL     2      -6.381   7.626  67.733  1.00  0.00    -0.050 C  
HETATM   27  H   UNL     2      -7.828   8.199  69.917  1.00  0.00     0.000 HD 
ENDBRANCH   4  18
TORSDOF 3
ENDMDL
MODEL      151
REMARK 921   NORMALIZED FREE ENERGY PREDICTED BY IDOCK:   -1.42 KCAL/MOL
REMARK 922        TOTAL FREE ENERGY PREDICTED BY IDOCK:   -2.79 KCAL/MOL
REMARK 923 INTER-LIGAND FREE ENERGY PREDICTED BY IDOCK:   -2.09 KCAL/MOL
REMARK 924 INTRA-LIGAND FREE ENERGY PREDICTED BY IDOCK:   -0.70 KCAL/MOL
REMARK 927      BINDING AFFINITY PREDICTED BY RF-SCORE:    0.00 PKD
ROOT
HETATM    1  N   UNL     1      -6.118  17.217  69.709  1.00  0.00    -0.240 N  
HETATM    2  H2  UNL     1      -6.237  17.131  70.717  1.00  0.00     0.000 HD 
HETATM    3  C   UNL     1      -6.600  18.315  69.052  1.00  0.00    -0.256 C  
HETATM    4  C   UNL     2      -9.730  16.000  70.315  1.00  0.00     0.621 C  
HETATM    5  H1  UNL     1      -5.640  16.483  69.185  1.00  0.00     0.000 HD 
HETATM    6  O   UNL     2      -8.705  15.093  70.786  1.00  0.00     0.640 OA 
HETATM    7  H   UNL     2      -7.856  15.482  70.611  1.00  0.00     0.000 HD 
HETATM    8  O   UNL     1      -7.174  19.197  69.680  1.00  0.00    -0.151 OA 
ENDROOT
BRANCH   4   9
HETATM    9  C   UNL     2     -11.095  15.374  70.596  1.00  0.00    -0.335 C  
HETATM   10  O   UNL     2     -11.891  16.305  71.337  1.00  0.00    -0.582 OA 
HETATM   11  H   UNL     2     -12.740  15.916  71.512  1.00  0.00     0.000 HD 
ENDBRANCH   4   9
BRANCH   3  12
HETATM   12  C   UNL     1      -6.469  18.377  67.575  1.00  0.00    -0.198 A  
HETATM   13  C   UNL     1      -7.528  18.907  66.844  1.00  0.00    -0.223 A  
HETATM   14  C   UNL     1      -5.337  18.039  65.472  1.00  0.00    -0.195 A  
HETATM   15  C   UNL     1      -5.358  17.921  66.862  1.00  0.00    -0.167 A  
HETATM   16  C   UNL     1      -6.434  18.601  64.838  1.00  0.00     0.062 A  
HETATM   17  N   UNL     1      -7.534  19.027  65.491  1.00  0.00    -0.454 NA 
ENDBRANCH   3  12
BRANCH   4  18
HETATM   18  C   UNL     2      -9.467  16.322  68.841  1.00  0.00    -0.252 C  
HETATM   19  O   UNL     2      -8.043  14.913  66.039  1.00  0.00     0.818 OA 
HETATM   20  C   UNL     2      -8.765  15.339  66.919  1.00  0.00    -0.258 C  
HETATM   21  C   UNL     2     -10.592  16.210  67.888  1.00  0.00    -0.309 C  
HETATM   22  O   UNL     2     -10.892  15.581  65.579  1.00  0.00    -0.337 OA 
HETATM   23  O   UNL     2      -8.432  15.530  68.231  1.00  0.00    -0.151 OA 
HETATM   24  H   UNL     2     -11.804  15.818  65.459  1.00  0.00     0.000 HD 
HETATM   25  O   UNL     2     -11.841  16.680  68.172  1.00  0.00     0.153 OA 
HETATM   26  C   UNL     2     -10.177  15.704  66.735  1.00  0.00    -0.276 C  
HETATM   27  H   UNL     2     -12.563  16.609  67.559  1.00  0.00     0.000 HD 
ENDBRANCH   4  18
TORSDOF 3
ENDMDL
MODEL      152
REMARK 921   NORMALIZED FREE ENERGY PREDICTED BY IDOCK:    0.39 KCAL/MOL
REMARK 922        TOTAL FREE ENERGY PREDICTED BY IDOCK:   -0.66 KCAL/MOL
REMARK 923 INTER-LIGAND FREE ENERGY PREDICTED BY IDOCK:   -0.35 KCAL/MOL
REMARK 924 INTRA-LIGAND FREE ENERGY PREDICTED BY IDOCK:   -0.31 KCAL/MOL
REMARK 927      BINDING AFFINITY PREDICTED BY RF-SCORE:    0.00 PKD
ROOT
HETATM    1  N   UNL     1      -8.528  10.308  67.275  1.00  0.00    -0.125 N  
HETATM    2  H2  UNL     1      -8.135  10.236  68.213  1.00  0.00     0.000 HD 
HETATM    3  C   UNL     1      -7.786  10.846  66.259  1.00  0.00    -0.158 C  
HETATM    4  C   UNL     2      -8.839  13.798  68.892  1.00  0.00     0.148 C  
HETATM    5  H1  UNL     1      -9.476   9.979  67.090  1.00  0.00     0.000 HD 
HETATM    6  O   UNL     2      -9.568  12.753  69.578  1.00  0.00     0.329 OA 
HETATM    7  H   UNL     2      -9.419  11.933  69.121  1.00  0.00     0.000 HD 
HETATM    8  O   UNL     1      -6.647  11.241  66.481  1.00  0.00    -0.134 OA 
ENDROOT
BRANCH   4   9
HETATM    9  C   UNL     2      -9.079  15.116  69.627  1.00  0.00    -0.061 C  
HETATM   10  O   UNL     2      -8.037  15.311  70.588  1.00  0.00     0.457 OA 
HETATM   11  H   UNL     2      -8.186  16.131  71.044  1.00  0.00     0.000 HD 
ENDBRANCH   4   9
BRANCH   3  12
HETATM   12  C   UNL     1      -8.411  10.996  64.922  1.00  0.00     0.169 A  
HETATM   13  C   UNL     1      -9.525  11.822  64.808  1.00  0.00    -0.011 A  
HETATM   14  C   UNL     1      -8.626  10.572  62.558  1.00  0.00    -0.247 A  
HETATM   15  C   UNL     1      -7.967  10.348  63.767  1.00  0.00    -0.086 A  
HETATM   16  C   UNL     1      -9.714  11.430  62.544  1.00  0.00     0.091 A  
HETATM   17  N   UNL     1     -10.186  12.051  63.644  1.00  0.00    -0.416 NA 
ENDBRANCH   3  12
BRANCH   4  18
HETATM   18  C   UNL     2      -9.250  13.804  67.417  1.00  0.00    -0.221 C  
HETATM   19  O   UNL     2     -11.854  14.817  65.402  1.00  0.00    -0.330 OA 
HETATM   20  C   UNL     2     -10.822  14.672  66.029  1.00  0.00    -0.318 C  
HETATM   21  C   UNL     2      -8.638  14.811  66.523  1.00  0.00    -0.040 C  
HETATM   22  O   UNL     2      -9.308  16.102  64.599  1.00  0.00     1.276 OA 
HETATM   23  O   UNL     2     -10.662  13.970  67.191  1.00  0.00    -0.280 OA 
HETATM   24  H   UNL     2      -8.474  16.489  64.360  1.00  0.00     0.000 HD 
HETATM   25  O   UNL     2      -7.306  15.105  66.557  1.00  0.00    -0.189 OA 
HETATM   26  C   UNL     2      -9.532  15.271  65.659  1.00  0.00    -0.205 C  
HETATM   27  H   UNL     2      -6.913  15.751  65.982  1.00  0.00     0.000 HD 
ENDBRANCH   4  18
TORSDOF 3
ENDMDL
MODEL      153
REMARK 921   NORMALIZED FREE ENERGY PREDICTED BY IDOCK:    1.37 KCAL/MOL
REMARK 922        TOTAL FREE ENERGY PREDICTED BY IDOCK:    0.50 KCAL/MOL
REMARK 923 INTER-LIGAND FREE ENERGY PREDICTED BY IDOCK:    1.44 KCAL/MOL
REMARK 924 INTRA-LIGAND FREE ENERGY PREDICTED BY IDOCK:   -0.95 KCAL/MOL
REMARK 927      BINDING AFFINITY PREDICTED BY RF-SCORE:    0.00 PKD
ROOT
HETATM    1  N   UNL     1     -11.128  10.302  67.888  1.00  0.00    -0.390 N  
HETATM    2  H2  UNL     1     -12.024   9.847  67.715  1.00  0.00     0.000 HD 
HETATM    3  C   UNL     1     -10.203  10.400  66.885  1.00  0.00    -0.227 C  
HETATM    4  C   UNL     2     -10.512   6.497  68.078  1.00  0.00    -0.216 C  
HETATM    5  H1  UNL     1     -10.917  10.685  68.810  1.00  0.00     0.000 HD 
HETATM    6  O   UNL     2     -11.441   7.003  69.065  1.00  0.00    -0.506 OA 
HETATM    7  H   UNL     2     -11.542   7.939  68.930  1.00  0.00     0.000 HD 
HETATM    8  O   UNL     1     -10.456   9.940  65.777  1.00  0.00    -0.156 OA 
ENDROOT
BRANCH   4   9
HETATM    9  C   UNL     2     -10.348   4.993  68.295  1.00  0.00    -0.019 C  
HETATM   10  O   UNL     2     -11.449   4.512  69.073  1.00  0.00     3.580 OA 
HETATM   11  H   UNL     2     -11.348   3.577  69.208  1.00  0.00     0.000 HD 
ENDBRANCH   4   9
BRANCH   3  12
HETATM   12  C   UNL     1      -8.885  11.008  67.188  1.00  0.00    -0.140 A  
HETATM   13  C   UNL     1      -8.239  11.713  66.178  1.00  0.00     0.085 A  
HETATM   14  C   UNL     1      -6.997  11.528  68.598  1.00  0.00    -0.089 A  
HETATM   15  C   UNL     1      -8.233  10.906  68.420  1.00  0.00    -0.133 A  
HETATM   16  C   UNL     1      -6.447  12.226  67.534  1.00  0.00    -0.137 A  
HETATM   17  N   UNL     1      -7.034  12.323  66.324  1.00  0.00     0.666 NA 
ENDBRANCH   3  12
BRANCH   4  18
HETATM   18  C   UNL     2      -9.211   7.300  68.165  1.00  0.00    -0.132 C  
HETATM   19  O   UNL     2      -6.030   7.051  69.465  1.00  0.00    -0.025 OA 
HETATM   20  C   UNL     2      -7.039   7.077  68.786  1.00  0.00    -0.089 C  
HETATM   21  C   UNL     2      -8.334   7.344  66.974  1.00  0.00    -0.121 C  
HETATM   22  O   UNL     2      -5.966   7.441  66.528  1.00  0.00    -0.034 OA 
HETATM   23  O   UNL     2      -8.322   6.887  69.218  1.00  0.00    -0.126 OA 
HETATM   24  H   UNL     2      -5.979   7.578  65.589  1.00  0.00     0.000 HD 
HETATM   25  O   UNL     2      -8.823   7.528  65.713  1.00  0.00    -0.258 OA 
HETATM   26  C   UNL     2      -7.059   7.288  67.331  1.00  0.00    -0.088 C  
HETATM   27  H   UNL     2      -8.259   7.557  64.948  1.00  0.00     0.000 HD 
ENDBRANCH   4  18
TORSDOF 3
ENDMDL
MODEL      154
REMARK 921   NORMALIZED FREE ENERGY PREDICTED BY IDOCK:    1.51 KCAL/MOL
REMARK 922        TOTAL FREE ENERGY PREDICTED BY IDOCK:    0.66 KCAL/MOL
REMARK 923 INTER-LIGAND FREE ENERGY PREDICTED BY IDOCK:    1.39 KCAL/MOL
REMARK 924 INTRA-LIGAND FREE ENERGY PREDICTED BY IDOCK:   -0.73 KCAL/MOL
REMARK 927      BINDING AFFINITY PREDICTED BY RF-SCORE:    0.00 PKD
ROOT
HETATM    1  N   UNL     1      -7.783  17.785  69.394  1.00  0.00     0.125 N  
HETATM    2  H2  UNL     1      -7.911  17.373  70.317  1.00  0.00     0.000 HD 
HETATM    3  C   UNL     1      -8.676  18.709  68.923  1.00  0.00    -0.174 C  
HETATM    4  C   UNL     2     -10.452  15.022  69.027  1.00  0.00    -0.245 C  
HETATM    5  H1  UNL     1      -6.988  17.511  68.817  1.00  0.00     0.000 HD 
HETATM    6  O   UNL     2      -9.157  14.549  69.464  1.00  0.00    -0.386 OA 
HETATM    7  H   UNL     2      -8.574  15.297  69.542  1.00  0.00     0.000 HD 
HETATM    8  O   UNL     1      -9.631  19.039  69.616  1.00  0.00     0.077 OA 
ENDROOT
BRANCH   4   9
HETATM    9  C   UNL     2     -11.388  13.821  68.901  1.00  0.00    -0.288 C  
HETATM   10  O   UNL     2     -12.665  14.165  69.447  1.00  0.00    -0.450 OA 
HETATM   11  H   UNL     2     -13.247  13.418  69.368  1.00  0.00     0.000 HD 
ENDBRANCH   4   9
BRANCH   3  12
HETATM   12  C   UNL     1      -8.496  19.239  67.550  1.00  0.00    -0.324 A  
HETATM   13  C   UNL     1      -9.623  19.677  66.863  1.00  0.00    -0.359 A  
HETATM   14  C   UNL     1      -7.213  19.841  65.598  1.00  0.00    -0.322 A  
HETATM   15  C   UNL     1      -7.268  19.313  66.888  1.00  0.00    -0.217 A  
HETATM   16  C   UNL     1      -8.391  20.271  65.007  1.00  0.00     1.243 A  
HETATM   17  N   UNL     1      -9.597  20.190  65.605  1.00  0.00    -0.186 NA 
ENDBRANCH   3  12
BRANCH   4  18
HETATM   18  C   UNL     2     -10.276  15.832  67.740  1.00  0.00    -0.251 C  
HETATM   19  O   UNL     2      -9.047  15.480  64.540  1.00  0.00     1.911 OA 
HETATM   20  C   UNL     2      -9.707  15.573  65.557  1.00  0.00    -0.272 C  
HETATM   21  C   UNL     2     -11.459  16.045  66.877  1.00  0.00     0.333 C  
HETATM   22  O   UNL     2     -11.909  16.243  64.516  1.00  0.00    -0.305 OA 
HETATM   23  O   UNL     2      -9.292  15.305  66.831  1.00  0.00    -0.215 OA 
HETATM   24  H   UNL     2     -12.824  16.498  64.543  1.00  0.00     0.000 HD 
HETATM   25  O   UNL     2     -12.681  16.379  67.383  1.00  0.00     1.762 OA 
HETATM   26  C   UNL     2     -11.123  15.968  65.598  1.00  0.00    -0.063 C  
HETATM   27  H   UNL     2     -13.441  16.516  66.829  1.00  0.00     0.000 HD 
ENDBRANCH   4  18
TORSDOF 3
ENDMDL
MODEL      155
REMARK 921   NORMALIZED FREE ENERGY PREDICTED BY IDOCK:    2.08 KCAL/MOL
REMARK 922        TOTAL FREE ENERGY PREDICTED BY IDOCK:    1.32 KCAL/MOL
REMARK 923 INTER-LIGAND FREE ENERGY PREDICTED BY IDOCK:    1.99 KCAL/MOL
REMARK 924 INTRA-LIGAND FREE ENERGY PREDICTED BY IDOCK:   -0.66 KCAL/MOL
REMARK 927      BINDING AFFINITY PREDICTED BY RF-SCORE:    0.00 PKD
ROOT
HETATM    1  N   UNL     1      -8.453  12.182  70.357  1.00  0.00     3.922 N  
HETATM    2  H2  UNL     1      -7.877  13.006  70.525  1.00  0.00     0.000 HD 
HETATM    3  C   UNL     1      -7.978  11.161  69.580  1.00  0.00     0.394 C  
HETATM    4  C   UNL     2      -8.754  14.418  67.226  1.00  0.00    -0.215 C  
HETATM    5  H1  UNL     1      -9.384  12.115  70.767  1.00  0.00     0.000 HD 
HETATM    6  O   UNL     2      -9.235  15.028  68.446  1.00  0.00    -0.181 OA 
HETATM    7  H   UNL     2      -9.105  14.415  69.161  1.00  0.00     0.000 HD 
HETATM    8  O   UNL     1      -6.859  11.240  69.087  1.00  0.00    -0.089 OA 
ENDROOT
BRANCH   4   9
HETATM    9  C   UNL     2      -8.964  15.405  66.078  1.00  0.00    -0.166 C  
HETATM   10  O   UNL     2      -8.437  16.680  66.457  1.00  0.00    -0.234 OA 
HETATM   11  H   UNL     2      -8.567  17.294  65.743  1.00  0.00     0.000 HD 
ENDBRANCH   4   9
BRANCH   3  12
HETATM   12  C   UNL     1      -8.866  10.006  69.301  1.00  0.00    -0.184 A  
HETATM   13  C   UNL     1      -8.930   9.527  67.997  1.00  0.00    -0.123 A  
HETATM   14  C   UNL     1     -10.452   8.285  69.888  1.00  0.00    -0.223 A  
HETATM   15  C   UNL     1      -9.661   9.373  70.260  1.00  0.00    -0.292 A  
HETATM   16  C   UNL     1     -10.429   7.871  68.565  1.00  0.00    -0.167 A  
HETATM   17  N   UNL     1      -9.696   8.474  67.608  1.00  0.00    -0.153 NA 
ENDBRANCH   3  12
BRANCH   4  18
HETATM   18  C   UNL     2      -9.448  13.066  67.041  1.00  0.00    -0.237 C  
HETATM   19  O   UNL     2     -12.535  11.764  66.238  1.00  0.00     0.264 OA 
HETATM   20  C   UNL     2     -11.389  12.169  66.279  1.00  0.00    -0.357 C  
HETATM   21  C   UNL     2      -9.205  12.319  65.787  1.00  0.00     0.032 C  
HETATM   22  O   UNL     2     -10.454  10.850  64.338  1.00  0.00    -0.355 OA 
HETATM   23  O   UNL     2     -10.883  13.113  67.129  1.00  0.00    -0.253 OA 
HETATM   24  H   UNL     2      -9.761  10.567  63.753  1.00  0.00     0.000 HD 
HETATM   25  O   UNL     2      -7.962  12.197  65.238  1.00  0.00     0.870 OA 
HETATM   26  C   UNL     2     -10.318  11.731  65.373  1.00  0.00    -0.268 C  
HETATM   27  H   UNL     2      -7.806  11.717  64.433  1.00  0.00     0.000 HD 
ENDBRANCH   4  18
TORSDOF 3
ENDMDL
MODEL      156
REMARK 921   NORMALIZED FREE ENERGY PREDICTED BY IDOCK:    2.63 KCAL/MOL
REMARK 922        TOTAL FREE ENERGY PREDICTED BY IDOCK:    1.97 KCAL/MOL
REMARK 923 INTER-LIGAND FREE ENERGY PREDICTED BY IDOCK:    1.53 KCAL/MOL
REMARK 924 INTRA-LIGAND FREE ENERGY PREDICTED BY IDOCK:    0.44 KCAL/MOL
REMARK 927      BINDING AFFINITY PREDICTED BY RF-SCORE:    0.00 PKD
ROOT
HETATM    1  N   UNL     1     -10.155  17.129  69.879  1.00  0.00     0.232 N  
HETATM    2  H2  UNL     1      -9.948  17.778  70.638  1.00  0.00     0.000 HD 
HETATM    3  C   UNL     1     -10.563  15.854  70.158  1.00  0.00    -0.295 C  
HETATM    4  C   UNL     2      -6.615  16.271  71.155  1.00  0.00     2.169 C  
HETATM    5  H1  UNL     1     -10.058  17.429  68.909  1.00  0.00     0.000 HD 
HETATM    6  O   UNL     2      -6.751  17.608  70.618  1.00  0.00     1.177 OA 
HETATM    7  H   UNL     2      -7.653  17.733  70.348  1.00  0.00     0.000 HD 
HETATM    8  O   UNL     1     -10.680  15.493  71.324  1.00  0.00    -0.192 OA 
ENDROOT
BRANCH   4   9
HETATM    9  C   UNL     2      -5.164  16.070  71.589  1.00  0.00     0.103 C  
HETATM   10  O   UNL     2      -5.133  15.197  72.722  1.00  0.00    -0.158 OA 
HETATM   11  H   UNL     2      -4.230  15.071  72.992  1.00  0.00     0.000 HD 
ENDBRANCH   4   9
BRANCH   3  12
HETATM   12  C   UNL     1     -10.792  14.916  69.032  1.00  0.00    -0.248 A  
HETATM   13  C   UNL     1      -9.690  14.496  68.293  1.00  0.00    -0.218 A  
HETATM   14  C   UNL     1     -12.144  13.550  67.575  1.00  0.00    -0.340 A  
HETATM   15  C   UNL     1     -12.047  14.439  68.646  1.00  0.00    -0.274 A  
HETATM   16  C   UNL     1     -10.984  13.175  66.917  1.00  0.00    -0.276 A  
HETATM   17  N   UNL     1      -9.760  13.636  67.244  1.00  0.00    -0.237 NA 
ENDBRANCH   3  12
BRANCH   4  18
HETATM   18  C   UNL     2      -7.115  15.267  70.113  1.00  0.00     0.074 C  
HETATM   19  O   UNL     2      -6.595  14.387  66.823  1.00  0.00     0.435 OA 
HETATM   20  C   UNL     2      -6.633  14.494  68.034  1.00  0.00    -0.148 C  
HETATM   21  C   UNL     2      -6.623  13.874  70.190  1.00  0.00     0.049 C  
HETATM   22  O   UNL     2      -6.084  12.105  68.642  1.00  0.00    -0.053 OA 
HETATM   23  O   UNL     2      -6.852  15.639  68.748  1.00  0.00    -0.111 OA 
HETATM   24  H   UNL     2      -5.938  11.390  69.250  1.00  0.00     0.000 HD 
HETATM   25  O   UNL     2      -6.527  13.196  71.370  1.00  0.00    -0.060 OA 
HETATM   26  C   UNL     2      -6.407  13.388  68.976  1.00  0.00    -0.097 C  
HETATM   27  H   UNL     2      -6.211  12.301  71.419  1.00  0.00     0.000 HD 
ENDBRANCH   4  18
TORSDOF 3
ENDMDL
MODEL      157
REMARK 921   NORMALIZED FREE ENERGY PREDICTED BY IDOCK:    2.85 KCAL/MOL
REMARK 922        TOTAL FREE ENERGY PREDICTED BY IDOCK:    2.23 KCAL/MOL
REMARK 923 INTER-LIGAND FREE ENERGY PREDICTED BY IDOCK:    3.17 KCAL/MOL
REMARK 924 INTRA-LIGAND FREE ENERGY PREDICTED BY IDOCK:   -0.94 KCAL/MOL
REMARK 927      BINDING AFFINITY PREDICTED BY RF-SCORE:    0.00 PKD
ROOT
HETATM    1  N   UNL     1      -5.586   7.614  65.988  1.00  0.00    -0.032 N  
HETATM    2  H2  UNL     1      -5.377   7.572  64.991  1.00  0.00     0.000 HD 
HETATM    3  C   UNL     1      -6.305   6.612  66.580  1.00  0.00    -0.042 C  
HETATM    4  C   UNL     2      -8.758   8.785  64.127  1.00  0.00     0.008 C  
HETATM    5  H1  UNL     1      -5.260   8.402  66.547  1.00  0.00     0.000 HD 
HETATM    6  O   UNL     2      -7.592   9.613  63.904  1.00  0.00    -0.116 OA 
HETATM    7  H   UNL     2      -6.862   9.239  64.384  1.00  0.00     0.000 HD 
HETATM    8  O   UNL     1      -6.697   5.665  65.908  1.00  0.00    -0.053 OA 
ENDROOT
BRANCH   4   9
HETATM    9  C   UNL     2      -9.932   9.386  63.354  1.00  0.00     1.994 C  
HETATM   10  O   UNL     2     -10.029  10.779  63.664  1.00  0.00    -0.312 OA 
HETATM   11  H   UNL     2     -10.758  11.153  63.183  1.00  0.00     0.000 HD 
ENDBRANCH   4   9
BRANCH   3  12
HETATM   12  C   UNL     1      -6.649   6.736  68.018  1.00  0.00    -0.059 A  
HETATM   13  C   UNL     1      -5.698   7.281  68.875  1.00  0.00    -0.019 A  
HETATM   14  C   UNL     1      -8.080   6.497  69.945  1.00  0.00    -0.121 A  
HETATM   15  C   UNL     1      -7.860   6.322  68.578  1.00  0.00    -0.105 A  
HETATM   16  C   UNL     1      -7.077   7.070  70.710  1.00  0.00    -0.067 A  
HETATM   17  N   UNL     1      -5.886   7.456  70.209  1.00  0.00    -0.024 NA 
ENDBRANCH   3  12
BRANCH   4  18
HETATM   18  C   UNL     2      -8.988   8.648  65.634  1.00  0.00    -0.182 C  
HETATM   19  O   UNL     2      -9.968  10.538  68.343  1.00  0.00    -0.155 OA 
HETATM   20  C   UNL     2      -9.862   9.784  67.395  1.00  0.00    -0.174 C  
HETATM   21  C   UNL     2     -10.230   7.991  66.097  1.00  0.00     0.379 C  
HETATM   22  O   UNL     2     -11.754   8.206  67.953  1.00  0.00     0.864 OA 
HETATM   23  O   UNL     2      -8.980   9.893  66.356  1.00  0.00    -0.143 OA 
HETATM   24  H   UNL     2     -12.301   7.444  67.808  1.00  0.00     0.000 HD 
HETATM   25  O   UNL     2     -10.710   6.849  65.525  1.00  0.00     1.653 OA 
HETATM   26  C   UNL     2     -10.709   8.604  67.170  1.00  0.00    -0.129 C  
HETATM   27  H   UNL     2     -11.507   6.427  65.822  1.00  0.00     0.000 HD 
ENDBRANCH   4  18
TORSDOF 3
ENDMDL
MODEL      158
REMARK 921   NORMALIZED FREE ENERGY PREDICTED BY IDOCK:    5.92 KCAL/MOL
REMARK 922        TOTAL FREE ENERGY PREDICTED BY IDOCK:    5.85 KCAL/MOL
REMARK 923 INTER-LIGAND FREE ENERGY PREDICTED BY IDOCK:    6.01 KCAL/MOL
REMARK 924 INTRA-LIGAND FREE ENERGY PREDICTED BY IDOCK:   -0.16 KCAL/MOL
REMARK 927      BINDING AFFINITY PREDICTED BY RF-SCORE:    0.00 PKD
ROOT
HETATM    1  N   UNL     1     -11.579  17.388  67.883  1.00  0.00     0.582 N  
HETATM    2  H2  UNL     1     -11.701  18.380  67.682  1.00  0.00     0.000 HD 
HETATM    3  C   UNL     1     -10.982  16.993  69.049  1.00  0.00    -0.103 C  
HETATM    4  C   UNL     2      -8.185  18.698  66.594  1.00  0.00    -0.278 C  
HETATM    5  H1  UNL     1     -11.901  16.687  67.216  1.00  0.00     0.000 HD 
HETATM    6  O   UNL     2      -9.270  18.807  65.643  1.00  0.00    -0.289 OA 
HETATM    7  H   UNL     2     -10.062  18.478  66.052  1.00  0.00     0.000 HD 
HETATM    8  O   UNL     1     -10.595  17.835  69.851  1.00  0.00     0.279 OA 
ENDROOT
BRANCH   4   9
HETATM    9  C   UNL     2      -6.911  19.225  65.936  1.00  0.00    -0.264 C  
HETATM   10  O   UNL     2      -5.972  19.581  66.956  1.00  0.00    -0.178 OA 
HETATM   11  H   UNL     2      -5.179  19.909  66.547  1.00  0.00     0.000 HD 
ENDBRANCH   4   9
BRANCH   3  12
HETATM   12  C   UNL     1     -10.760  15.544  69.280  1.00  0.00    -0.245 A  
HETATM   13  C   UNL     1      -9.776  15.168  70.190  1.00  0.00     0.200 A  
HETATM   14  C   UNL     1     -11.177  13.194  68.935  1.00  0.00    -0.324 A  
HETATM   15  C   UNL     1     -11.462  14.525  68.631  1.00  0.00    -0.321 A  
HETATM   16  C   UNL     1     -10.193  12.923  69.873  1.00  0.00     1.714 A  
HETATM   17  N   UNL     1      -9.477  13.880  70.498  1.00  0.00     3.102 NA 
ENDBRANCH   3  12
BRANCH   4  18
HETATM   18  C   UNL     2      -8.099  17.250  67.085  1.00  0.00    -0.203 C  
HETATM   19  O   UNL     2      -7.873  14.045  65.841  1.00  0.00     2.036 OA 
HETATM   20  C   UNL     2      -7.702  15.150  66.320  1.00  0.00     1.289 C  
HETATM   21  C   UNL     2      -6.801  16.760  67.597  1.00  0.00    -0.137 C  
HETATM   22  O   UNL     2      -5.579  14.680  67.606  1.00  0.00    -0.308 OA 
HETATM   23  O   UNL     2      -8.465  16.264  66.103  1.00  0.00    -0.325 OA 
HETATM   24  H   UNL     2      -4.862  14.911  68.185  1.00  0.00     0.000 HD 
HETATM   25  O   UNL     2      -6.017  17.501  68.433  1.00  0.00    -0.162 OA 
HETATM   26  C   UNL     2      -6.593  15.508  67.216  1.00  0.00    -0.054 C  
HETATM   27  H   UNL     2      -5.183  17.186  68.762  1.00  0.00     0.000 HD 
ENDBRANCH   4  18
TORSDOF 3
ENDMDL
MODEL      159
REMARK 921   NORMALIZED FREE ENERGY PREDICTED BY IDOCK:    6.27 KCAL/MOL
REMARK 922        TOTAL FREE ENERGY PREDICTED BY IDOCK:    6.25 KCAL/MOL
REMARK 923 INTER-LIGAND FREE ENERGY PREDICTED BY IDOCK:    7.25 KCAL/MOL
REMARK 924 INTRA-LIGAND FREE ENERGY PREDICTED BY IDOCK:   -0.99 KCAL/MOL
REMARK 927      BINDING AFFINITY PREDICTED BY RF-SCORE:    0.00 PKD
ROOT
HETATM    1  N   UNL     1     -10.631  12.755  70.607  1.00  0.00     2.367 N  
HETATM    2  H2  UNL     1     -10.163  12.125  71.258  1.00  0.00     0.000 HD 
HETATM    3  C   UNL     1     -11.076  12.288  69.401  1.00  0.00    -0.101 C  
HETATM    4  C   UNL     2      -6.984  12.391  69.396  1.00  0.00     0.084 C  
HETATM    5  H1  UNL     1     -10.767  13.735  70.852  1.00  0.00     0.000 HD 
HETATM    6  O   UNL     2      -7.123  12.967  70.715  1.00  0.00     0.833 OA 
HETATM    7  H   UNL     2      -8.047  13.001  70.933  1.00  0.00     0.000 HD 
HETATM    8  O   UNL     1     -10.912  11.109  69.106  1.00  0.00    -0.214 OA 
ENDROOT
BRANCH   4   9
HETATM    9  C   UNL     2      -5.498  12.337  69.045  1.00  0.00    -0.063 C  
HETATM   10  O   UNL     2      -5.169  11.014  68.610  1.00  0.00    -0.041 OA 
HETATM   11  H   UNL     2      -4.245  10.981  68.391  1.00  0.00     0.000 HD 
ENDBRANCH   4   9
BRANCH   3  12
HETATM   12  C   UNL     1     -11.693  13.245  68.450  1.00  0.00    -0.389 A  
HETATM   13  C   UNL     1     -12.081  12.771  67.201  1.00  0.00    -0.168 A  
HETATM   14  C   UNL     1     -12.494  15.409  67.749  1.00  0.00     0.997 A  
HETATM   15  C   UNL     1     -11.894  14.602  68.715  1.00  0.00    -0.348 A  
HETATM   16  C   UNL     1     -12.865  14.836  66.543  1.00  0.00     0.986 A  
HETATM   17  N   UNL     1     -12.662  13.537  66.242  1.00  0.00    -0.233 NA 
ENDBRANCH   3  12
BRANCH   4  18
HETATM   18  C   UNL     2      -7.844  13.190  68.413  1.00  0.00    -0.135 C  
HETATM   19  O   UNL     2      -7.540  15.676  66.048  1.00  0.00     0.619 OA 
HETATM   20  C   UNL     2      -7.653  14.644  66.680  1.00  0.00     0.841 C  
HETATM   21  C   UNL     2      -8.260  12.536  67.153  1.00  0.00    -0.168 C  
HETATM   22  O   UNL     2      -8.661  13.200  64.869  1.00  0.00     1.288 OA 
HETATM   23  O   UNL     2      -7.255  14.425  67.969  1.00  0.00    -0.110 OA 
HETATM   24  H   UNL     2      -9.029  12.395  64.524  1.00  0.00     0.000 HD 
HETATM   25  O   UNL     2      -8.714  11.250  67.111  1.00  0.00    -0.144 OA 
HETATM   26  C   UNL     2      -8.221  13.397  66.146  1.00  0.00     1.350 C  
HETATM   27  H   UNL     2      -8.981  10.830  66.301  1.00  0.00     0.000 HD 
ENDBRANCH   4  18
TORSDOF 3
ENDMDL
MODEL      160
REMARK 921   NORMALIZED FREE ENERGY PREDICTED BY IDOCK:    9.28 KCAL/MOL
REMARK 922        TOTAL FREE ENERGY PREDICTED BY IDOCK:    9.79 KCAL/MOL
REMARK 923 INTER-LIGAND FREE ENERGY PREDICTED BY IDOCK:   -2.77 KCAL/MOL
REMARK 924 INTRA-LIGAND FREE ENERGY PREDICTED BY IDOCK:   12.56 KCAL/MOL
REMARK 927      BINDING AFFINITY PREDICTED BY RF-SCORE:    0.00 PKD
ROOT
HETATM    1  N   UNL     1     -10.868   6.101  66.276  1.00  0.00    -0.571 N  
HETATM    2  H2  UNL     1     -11.642   6.429  66.851  1.00  0.00     0.000 HD 
HETATM    3  C   UNL     1     -10.059   5.093  66.724  1.00  0.00    -0.232 C  
HETATM    4  C   UNL     2      -9.370   8.475  68.924  1.00  0.00    -0.146 C  
HETATM    5  H1  UNL     1     -10.693   6.522  65.364  1.00  0.00     0.000 HD 
HETATM    6  O   UNL     2     -10.325   9.097  68.034  1.00  0.00    -0.201 OA 
HETATM    7  H   UNL     2     -10.651   8.437  67.433  1.00  0.00     0.000 HD 
HETATM    8  O   UNL     1     -10.269   4.585  67.820  1.00  0.00    -0.051 OA 
ENDROOT
BRANCH   4   9
HETATM    9  C   UNL     2      -8.847   9.537  69.890  1.00  0.00    -0.211 C  
HETATM   10  O   UNL     2      -8.530   8.916  71.140  1.00  0.00    -0.174 OA 
HETATM   11  H   UNL     2      -8.204   9.576  71.740  1.00  0.00     0.000 HD 
ENDBRANCH   4   9
BRANCH   3  12
HETATM   12  C   UNL     1      -8.901   4.684  65.891  1.00  0.00    -0.124 A  
HETATM   13  C   UNL     1      -8.757   3.334  65.585  1.00  0.00    -0.124 A  
HETATM   14  C   UNL     1      -6.888   5.069  64.619  1.00  0.00    -0.049 A  
HETATM   15  C   UNL     1      -7.930   5.563  65.404  1.00  0.00    -0.109 A  
HETATM   16  C   UNL     1      -6.845   3.710  64.353  1.00  0.00    -0.045 A  
HETATM   17  N   UNL     1      -7.749   2.828  64.828  1.00  0.00    -0.076 NA 
ENDBRANCH   3  12
BRANCH   4  18
HETATM   18  C   UNL     2      -8.290   7.784  68.088  1.00  0.00    -0.124 C  
HETATM   19  O   UNL     2      -7.578   7.006  64.808  1.00  0.00    -0.089 OA 
HETATM   20  C   UNL     2      -7.663   7.470  65.928  1.00  0.00    -0.099 C  
HETATM   21  C   UNL     2      -7.040   8.524  67.808  1.00  0.00    -0.083 C  
HETATM   22  O   UNL     2      -5.448   8.683  66.003  1.00  0.00    -0.034 OA 
HETATM   23  O   UNL     2      -8.724   7.358  66.784  1.00  0.00    -0.124 OA 
HETATM   24  H   UNL     2      -4.778   9.212  66.418  1.00  0.00     0.000 HD 
HETATM   25  O   UNL     2      -6.389   9.247  68.765  1.00  0.00    -0.047 OA 
HETATM   26  C   UNL     2      -6.626   8.290  66.572  1.00  0.00    -0.056 C  
HETATM   27  H   UNL     2      -5.585   9.723  68.586  1.00  0.00     0.000 HD 
ENDBRANCH   4  18
TORSDOF 3
ENDMDL
MODEL      161
REMARK 921   NORMALIZED FREE ENERGY PREDICTED BY IDOCK:   11.23 KCAL/MOL
REMARK 922        TOTAL FREE ENERGY PREDICTED BY IDOCK:   12.08 KCAL/MOL
REMARK 923 INTER-LIGAND FREE ENERGY PREDICTED BY IDOCK:    9.11 KCAL/MOL
REMARK 924 INTRA-LIGAND FREE ENERGY PREDICTED BY IDOCK:    2.97 KCAL/MOL
REMARK 927      BINDING AFFINITY PREDICTED BY RF-SCORE:    0.00 PKD
ROOT
HETATM    1  N   UNL     1      -6.720  13.753  66.232  1.00  0.00     2.842 N  
HETATM    2  H2  UNL     1      -6.723  13.915  65.226  1.00  0.00     0.000 HD 
HETATM    3  C   UNL     1      -7.243  12.597  66.743  1.00  0.00     0.411 C  
HETATM    4  C   UNL     2     -10.270  14.943  65.297  1.00  0.00    -0.373 C  
HETATM    5  H1  UNL     1      -6.327  14.452  66.862  1.00  0.00     0.000 HD 
HETATM    6  O   UNL     2      -9.224  15.903  65.020  1.00  0.00     0.161 OA 
HETATM    7  H   UNL     2      -8.390  15.518  65.265  1.00  0.00     0.000 HD 
HETATM    8  O   UNL     1      -7.716  11.756  65.986  1.00  0.00     0.222 OA 
ENDROOT
BRANCH   4   9
HETATM    9  C   UNL     2     -11.611  15.562  64.905  1.00  0.00    -0.201 C  
HETATM   10  O   UNL     2     -11.803  15.403  63.495  1.00  0.00    -0.569 OA 
HETATM   11  H   UNL     2     -12.637  15.788  63.251  1.00  0.00     0.000 HD 
ENDBRANCH   4   9
BRANCH   3  12
HETATM   12  C   UNL     1      -7.283  12.422  68.215  1.00  0.00    -0.103 A  
HETATM   13  C   UNL     1      -6.169  11.872  68.841  1.00  0.00    -0.064 A  
HETATM   14  C   UNL     1      -8.298  12.558  70.399  1.00  0.00     5.208 A  
HETATM   15  C   UNL     1      -8.375  12.756  69.020  1.00  0.00     0.426 A  
HETATM   16  C   UNL     1      -7.135  12.023  70.928  1.00  0.00     3.510 A  
HETATM   17  N   UNL     1      -6.072  11.664  70.180  1.00  0.00    -0.159 NA 
ENDBRANCH   3  12
BRANCH   4  18
HETATM   18  C   UNL     2     -10.171  14.511  66.763  1.00  0.00    -0.266 C  
HETATM   19  O   UNL     2      -8.610  15.435  69.692  1.00  0.00    -0.249 OA 
HETATM   20  C   UNL     2      -9.363  15.226  68.761  1.00  0.00    -0.210 C  
HETATM   21  C   UNL     2     -11.288  14.850  67.671  1.00  0.00    -0.337 C  
HETATM   22  O   UNL     2     -11.557  15.444  69.993  1.00  0.00    -0.271 OA 
HETATM   23  O   UNL     2      -9.013  15.011  67.457  1.00  0.00    -0.173 OA 
HETATM   24  H   UNL     2     -12.505  15.427  70.060  1.00  0.00     0.000 HD 
HETATM   25  O   UNL     2     -12.595  14.701  67.309  1.00  0.00    -0.456 OA 
HETATM   26  C   UNL     2     -10.829  15.199  68.864  1.00  0.00    -0.241 C  
HETATM   27  H   UNL     2     -13.313  14.919  67.893  1.00  0.00     0.000 HD 
ENDBRANCH   4  18
TORSDOF 3
ENDMDL
MODEL      162
REMARK 921   NORMALIZED FREE ENERGY PREDICTED BY IDOCK:   12.09 KCAL/MOL
REMARK 922        TOTAL FREE ENERGY PREDICTED BY IDOCK:   13.09 KCAL/MOL
REMARK 923 INTER-LIGAND FREE ENERGY PREDICTED BY IDOCK:   13.73 KCAL/MOL
REMARK 924 INTRA-LIGAND FREE ENERGY PREDICTED BY IDOCK:   -0.63 KCAL/MOL
REMARK 927      BINDING AFFINITY PREDICTED BY RF-SCORE:    0.00 PKD
ROOT
HETATM    1  N   UNL     1     -10.701  13.940  71.864  1.00  0.00     3.243 N  
HETATM    2  H2  UNL     1     -10.474  13.327  72.647  1.00  0.00     0.000 HD 
HETATM    3  C   UNL     1     -10.892  13.416  70.615  1.00  0.00     2.051 C  
HETATM    4  C   UNL     2      -6.932  13.152  71.614  1.00  0.00     4.642 C  
HETATM    5  H1  UNL     1     -10.787  14.945  72.010  1.00  0.00     0.000 HD 
HETATM    6  O   UNL     2      -7.320  13.846  72.822  1.00  0.00     2.953 OA 
HETATM    7  H   UNL     2      -8.260  13.980  72.803  1.00  0.00     0.000 HD 
HETATM    8  O   UNL     1     -10.790  12.207  70.440  1.00  0.00     0.985 OA 
ENDROOT
BRANCH   4   9
HETATM    9  C   UNL     2      -5.419  12.938  71.644  1.00  0.00     0.040 C  
HETATM   10  O   UNL     2      -5.150  11.544  71.829  1.00  0.00    -0.288 OA 
HETATM   11  H   UNL     2      -4.209  11.410  71.847  1.00  0.00     0.000 HD 
ENDBRANCH   4   9
BRANCH   3  12
HETATM   12  C   UNL     1     -11.157  14.342  69.487  1.00  0.00    -0.267 A  
HETATM   13  C   UNL     1     -10.820  13.925  68.203  1.00  0.00    -0.249 A  
HETATM   14  C   UNL     1     -11.922  16.402  68.493  1.00  0.00     0.374 A  
HETATM   15  C   UNL     1     -11.707  15.619  69.627  1.00  0.00    -0.373 A  
HETATM   16  C   UNL     1     -11.572  15.887  67.255  1.00  0.00     0.227 A  
HETATM   17  N   UNL     1     -11.015  14.671  67.085  1.00  0.00    -0.307 NA 
ENDBRANCH   3  12
BRANCH   4  18
HETATM   18  C   UNL     2      -7.441  13.941  70.404  1.00  0.00     1.444 C  
HETATM   19  O   UNL     2      -6.923  16.943  68.796  1.00  0.00    -0.181 OA 
HETATM   20  C   UNL     2      -6.962  15.789  69.175  1.00  0.00    -0.174 C  
HETATM   21  C   UNL     2      -6.964  13.548  69.060  1.00  0.00    -0.091 C  
HETATM   22  O   UNL     2      -6.441  14.652  66.981  1.00  0.00    -0.285 OA 
HETATM   23  O   UNL     2      -7.171  15.353  70.454  1.00  0.00     0.173 OA 
HETATM   24  H   UNL     2      -6.305  13.896  66.421  1.00  0.00     0.000 HD 
HETATM   25  O   UNL     2      -6.878  12.244  68.667  1.00  0.00    -0.075 OA 
HETATM   26  C   UNL     2      -6.751  14.619  68.310  1.00  0.00    -0.115 C  
HETATM   27  H   UNL     2      -6.572  11.992  67.803  1.00  0.00     0.000 HD 
ENDBRANCH   4  18
TORSDOF 3
ENDMDL
MODEL      163
REMARK 921   NORMALIZED FREE ENERGY PREDICTED BY IDOCK:   13.22 KCAL/MOL
REMARK 922        TOTAL FREE ENERGY PREDICTED BY IDOCK:   14.42 KCAL/MOL
REMARK 923 INTER-LIGAND FREE ENERGY PREDICTED BY IDOCK:   13.48 KCAL/MOL
REMARK 924 INTRA-LIGAND FREE ENERGY PREDICTED BY IDOCK:    0.94 KCAL/MOL
REMARK 927      BINDING AFFINITY PREDICTED BY RF-SCORE:    0.00 PKD
ROOT
HETATM    1  N   UNL     1      -8.987  18.790  69.302  1.00  0.00     0.032 N  
HETATM    2  H2  UNL     1      -9.625  19.444  69.755  1.00  0.00     0.000 HD 
HETATM    3  C   UNL     1      -8.924  18.727  67.938  1.00  0.00    -0.295 C  
HETATM    4  C   UNL     2     -12.495  17.184  69.210  1.00  0.00     3.955 C  
HETATM    5  H1  UNL     1      -8.395  18.180  69.865  1.00  0.00     0.000 HD 
HETATM    6  O   UNL     2     -11.981  17.424  70.541  1.00  0.00     1.800 OA 
HETATM    7  H   UNL     2     -11.127  17.834  70.464  1.00  0.00     0.000 HD 
HETATM    8  O   UNL     1      -9.636  19.460  67.261  1.00  0.00    -0.312 OA 
ENDROOT
BRANCH   4   9
HETATM    9  C   UNL     2     -13.868  16.524  69.334  1.00  0.00     6.002 C  
HETATM   10  O   UNL     2     -13.809  15.512  70.344  1.00  0.00    -0.701 OA 
HETATM   11  H   UNL     2     -14.663  15.102  70.421  1.00  0.00     0.000 HD 
ENDBRANCH   4   9
BRANCH   3  12
HETATM   12  C   UNL     1      -8.034  17.719  67.311  1.00  0.00    -0.223 A  
HETATM   13  C   UNL     1      -6.913  17.301  68.022  1.00  0.00    -0.176 A  
HETATM   14  C   UNL     1      -7.337  16.218  65.556  1.00  0.00     2.991 A  
HETATM   15  C   UNL     1      -8.234  17.170  66.042  1.00  0.00    -0.183 A  
HETATM   16  C   UNL     1      -6.263  15.853  66.350  1.00  0.00     1.600 A  
HETATM   17  N   UNL     1      -6.023  16.381  67.568  1.00  0.00    -0.144 NA 
ENDBRANCH   3  12
BRANCH   4  18
HETATM   18  C   UNL     2     -11.465  16.373  68.419  1.00  0.00    -0.181 C  
HETATM   19  O   UNL     2     -11.082  13.262  66.988  1.00  0.00    -0.272 OA 
HETATM   20  C   UNL     2     -11.265  14.435  67.254  1.00  0.00    -0.323 C  
HETATM   21  C   UNL     2     -11.303  16.661  66.978  1.00  0.00     0.464 C  
HETATM   22  O   UNL     2     -10.789  15.417  64.976  1.00  0.00    -0.399 OA 
HETATM   23  O   UNL     2     -11.671  14.949  68.454  1.00  0.00    -0.310 OA 
HETATM   24  H   UNL     2     -10.690  16.131  64.358  1.00  0.00     0.000 HD 
HETATM   25  O   UNL     2     -11.255  17.933  66.487  1.00  0.00     0.334 OA 
HETATM   26  C   UNL     2     -11.112  15.540  66.297  1.00  0.00    -0.177 C  
HETATM   27  H   UNL     2     -11.150  18.118  65.561  1.00  0.00     0.000 HD 
ENDBRANCH   4  18
TORSDOF 3
ENDMDL
MODEL      164
REMARK 921   NORMALIZED FREE ENERGY PREDICTED BY IDOCK:   15.34 KCAL/MOL
REMARK 922        TOTAL FREE ENERGY PREDICTED BY IDOCK:   16.92 KCAL/MOL
REMARK 923 INTER-LIGAND FREE ENERGY PREDICTED BY IDOCK:   17.25 KCAL/MOL
REMARK 924 INTRA-LIGAND FREE ENERGY PREDICTED BY IDOCK:   -0.33 KCAL/MOL
REMARK 927      BINDING AFFINITY PREDICTED BY RF-SCORE:    0.00 PKD
ROOT
HETATM    1  N   UNL     1      -9.503  17.841  64.343  1.00  0.00     5.952 N  
HETATM    2  H2  UNL     1      -8.738  18.467  64.094  1.00  0.00     0.000 HD 
HETATM    3  C   UNL     1     -10.213  18.049  65.493  1.00  0.00     0.229 C  
HETATM    4  C   UNL     2      -6.443  16.759  66.431  1.00  0.00     0.072 C  
HETATM    5  H1  UNL     1      -9.742  17.057  63.735  1.00  0.00     0.000 HD 
HETATM    6  O   UNL     2      -6.259  16.654  65.000  1.00  0.00     2.785 OA 
HETATM    7  H   UNL     2      -7.052  16.957  64.572  1.00  0.00     0.000 HD 
HETATM    8  O   UNL     1      -9.927  18.990  66.224  1.00  0.00    -0.362 OA 
ENDROOT
BRANCH   4   9
HETATM    9  C   UNL     2      -5.168  16.273  67.119  1.00  0.00     0.011 C  
HETATM   10  O   UNL     2      -5.518  15.631  68.349  1.00  0.00    -0.092 OA 
HETATM   11  H   UNL     2      -4.725  15.328  68.777  1.00  0.00     0.000 HD 
ENDBRANCH   4   9
BRANCH   3  12
HETATM   12  C   UNL     1     -11.277  17.081  65.859  1.00  0.00     0.550 A  
HETATM   13  C   UNL     1     -11.521  16.017  64.997  1.00  0.00    -0.036 A  
HETATM   14  C   UNL     1     -13.034  16.200  67.258  1.00  0.00     3.989 A  
HETATM   15  C   UNL     1     -12.068  17.175  67.007  1.00  0.00     2.776 A  
HETATM   16  C   UNL     1     -13.185  15.167  66.347  1.00  0.00     2.592 A  
HETATM   17  N   UNL     1     -12.459  15.059  65.215  1.00  0.00     0.071 NA 
ENDBRANCH   3  12
BRANCH   4  18
HETATM   18  C   UNL     2      -7.712  15.998  66.825  1.00  0.00    -0.235 C  
HETATM   19  O   UNL     2      -8.731  12.821  67.684  1.00  0.00    -0.159 OA 
HETATM   20  C   UNL     2      -8.381  13.984  67.632  1.00  0.00    -0.187 C  
HETATM   21  C   UNL     2      -8.219  16.147  68.206  1.00  0.00    -0.162 C  
HETATM   22  O   UNL     2      -9.346  14.767  69.832  1.00  0.00    -0.411 OA 
HETATM   23  O   UNL     2      -7.632  14.572  66.651  1.00  0.00     0.301 OA 
HETATM   24  H   UNL     2      -9.539  15.417  70.496  1.00  0.00     0.000 HD 
HETATM   25  O   UNL     2      -8.279  17.356  68.836  1.00  0.00    -0.254 OA 
HETATM   26  C   UNL     2      -8.680  14.991  68.661  1.00  0.00    -0.176 C  
HETATM   27  H   UNL     2      -8.605  17.452  69.724  1.00  0.00     0.000 HD 
ENDBRANCH   4  18
TORSDOF 3
ENDMDL
MODEL      165
REMARK 921   NORMALIZED FREE ENERGY PREDICTED BY IDOCK:   16.47 KCAL/MOL
REMARK 922        TOTAL FREE ENERGY PREDICTED BY IDOCK:   18.24 KCAL/MOL
REMARK 923 INTER-LIGAND FREE ENERGY PREDICTED BY IDOCK:   18.76 KCAL/MOL
REMARK 924 INTRA-LIGAND FREE ENERGY PREDICTED BY IDOCK:   -0.52 KCAL/MOL
REMARK 927      BINDING AFFINITY PREDICTED BY RF-SCORE:    0.00 PKD
ROOT
HETATM    1  N   UNL     1     -10.245  13.875  73.288  1.00  0.00     6.759 N  
HETATM    2  H2  UNL     1      -9.776  12.987  73.115  1.00  0.00     0.000 HD 
HETATM    3  C   UNL     1     -11.602  13.973  73.146  1.00  0.00     1.875 C  
HETATM    4  C   UNL     2      -9.872  13.531  69.463  1.00  0.00     0.910 C  
HETATM    5  H1  UNL     1      -9.705  14.694  73.568  1.00  0.00     0.000 HD 
HETATM    6  O   UNL     2      -8.619  13.565  70.186  1.00  0.00     1.786 OA 
HETATM    7  H   UNL     2      -8.810  13.634  71.115  1.00  0.00     0.000 HD 
HETATM    8  O   UNL     1     -12.252  12.990  72.809  1.00  0.00     0.898 OA 
ENDROOT
BRANCH   4   9
HETATM    9  C   UNL     2      -9.564  13.422  67.970  1.00  0.00    -0.219 C  
HETATM   10  O   UNL     2      -9.023  14.665  67.513  1.00  0.00    -0.176 OA 
HETATM   11  H   UNL     2      -8.831  14.598  66.585  1.00  0.00     0.000 HD 
ENDBRANCH   4   9
BRANCH   3  12
HETATM   12  C   UNL     1     -12.245  15.296  73.341  1.00  0.00    -0.595 A  
HETATM   13  C   UNL     1     -13.600  15.416  73.050  1.00  0.00    -0.470 A  
HETATM   14  C   UNL     1     -12.285  17.632  73.941  1.00  0.00     1.004 A  
HETATM   15  C   UNL     1     -11.576  16.440  73.783  1.00  0.00     0.369 A  
HETATM   16  C   UNL     1     -13.638  17.643  73.645  1.00  0.00     4.705 A  
HETATM   17  N   UNL     1     -14.310  16.565  73.191  1.00  0.00     0.448 NA 
ENDBRANCH   3  12
BRANCH   4  18
HETATM   18  C   UNL     2     -10.705  14.753  69.856  1.00  0.00    -0.113 C  
HETATM   19  O   UNL     2     -10.422  18.178  70.109  1.00  0.00     0.697 OA 
HETATM   20  C   UNL     2     -10.643  17.022  69.801  1.00  0.00    -0.000 C  
HETATM   21  C   UNL     2     -11.698  15.266  68.887  1.00  0.00    -0.342 C  
HETATM   22  O   UNL     2     -12.596  17.411  68.248  1.00  0.00     1.890 OA 
HETATM   23  O   UNL     2      -9.934  15.920  70.192  1.00  0.00    -0.161 OA 
HETATM   24  H   UNL     2     -13.293  17.133  67.665  1.00  0.00     0.000 HD 
HETATM   25  O   UNL     2     -12.526  14.441  68.182  1.00  0.00    -0.579 OA 
HETATM   26  C   UNL     2     -11.721  16.591  68.900  1.00  0.00     0.079 C  
HETATM   27  H   UNL     2     -13.164  14.771  67.559  1.00  0.00     0.000 HD 
ENDBRANCH   4  18
TORSDOF 3
ENDMDL
MODEL      166
REMARK 921   NORMALIZED FREE ENERGY PREDICTED BY IDOCK:   17.57 KCAL/MOL
REMARK 922        TOTAL FREE ENERGY PREDICTED BY IDOCK:   19.54 KCAL/MOL
REMARK 923 INTER-LIGAND FREE ENERGY PREDICTED BY IDOCK:   14.01 KCAL/MOL
REMARK 924 INTRA-LIGAND FREE ENERGY PREDICTED BY IDOCK:    5.53 KCAL/MOL
REMARK 927      BINDING AFFINITY PREDICTED BY RF-SCORE:    0.00 PKD
ROOT
HETATM    1  N   UNL     1      -7.047  15.530  68.166  1.00  0.00    -0.113 N  
HETATM    2  H2  UNL     1      -6.646  14.783  68.733  1.00  0.00     0.000 HD 
HETATM    3  C   UNL     1      -7.166  16.792  68.679  1.00  0.00    -0.207 C  
HETATM    4  C   UNL     2      -9.833  14.306  70.539  1.00  0.00     2.034 C  
HETATM    5  H1  UNL     1      -7.360  15.339  67.214  1.00  0.00     0.000 HD 
HETATM    6  O   UNL     2      -9.339  13.299  69.625  1.00  0.00     0.593 OA 
HETATM    7  H   UNL     2      -8.649  13.684  69.097  1.00  0.00     0.000 HD 
HETATM    8  O   UNL     1      -6.790  17.022  69.823  1.00  0.00    -0.101 OA 
ENDROOT
BRANCH   4   9
HETATM    9  C   UNL     2     -10.942  13.686  71.388  1.00  0.00     3.192 C  
HETATM   10  O   UNL     2     -10.358  13.057  72.533  1.00  0.00     9.607 OA 
HETATM   11  H   UNL     2     -11.048  12.672  73.061  1.00  0.00     0.000 HD 
ENDBRANCH   4   9
BRANCH   3  12
HETATM   12  C   UNL     1      -7.813  17.840  67.852  1.00  0.00    -0.231 A  
HETATM   13  C   UNL     1      -8.394  18.924  68.502  1.00  0.00    -0.349 A  
HETATM   14  C   UNL     1      -8.520  18.852  65.780  1.00  0.00     0.305 A  
HETATM   15  C   UNL     1      -7.896  17.804  66.458  1.00  0.00    -0.301 A  
HETATM   16  C   UNL     1      -9.049  19.898  66.518  1.00  0.00    -0.379 A  
HETATM   17  N   UNL     1      -9.012  19.952  67.865  1.00  0.00    -0.319 NA 
ENDBRANCH   3  12
BRANCH   4  18
HETATM   18  C   UNL     2     -10.256  15.539  69.737  1.00  0.00    -0.294 C  
HETATM   19  O   UNL     2     -10.056  16.812  66.541  1.00  0.00    -0.289 OA 
HETATM   20  C   UNL     2     -10.365  16.301  67.601  1.00  0.00    -0.284 C  
HETATM   21  C   UNL     2     -11.667  15.645  69.306  1.00  0.00    -0.375 C  
HETATM   22  O   UNL     2     -12.873  16.530  67.415  1.00  0.00     2.302 OA 
HETATM   23  O   UNL     2      -9.519  15.741  68.517  1.00  0.00    -0.192 OA 
HETATM   24  H   UNL     2     -13.765  16.438  67.728  1.00  0.00     0.000 HD 
HETATM   25  O   UNL     2     -12.709  15.344  70.134  1.00  0.00    -0.578 OA 
HETATM   26  C   UNL     2     -11.745  16.158  68.087  1.00  0.00    -0.013 C  
HETATM   27  H   UNL     2     -13.615  15.412  69.858  1.00  0.00     0.000 HD 
ENDBRANCH   4  18
TORSDOF 3
ENDMDL
MODEL      167
REMARK 921   NORMALIZED FREE ENERGY PREDICTED BY IDOCK:   26.45 KCAL/MOL
REMARK 922        TOTAL FREE ENERGY PREDICTED BY IDOCK:   29.97 KCAL/MOL
REMARK 923 INTER-LIGAND FREE ENERGY PREDICTED BY IDOCK:   -6.27 KCAL/MOL
REMARK 924 INTRA-LIGAND FREE ENERGY PREDICTED BY IDOCK:   36.24 KCAL/MOL
REMARK 927      BINDING AFFINITY PREDICTED BY RF-SCORE:    0.00 PKD
ROOT
HETATM    1  N   UNL     1      -6.591  16.437  67.644  1.00  0.00    -0.135 N  
HETATM    2  H2  UNL     1      -6.678  15.582  68.192  1.00  0.00     0.000 HD 
HETATM    3  C   UNL     1      -6.527  17.651  68.272  1.00  0.00    -0.188 C  
HETATM    4  C   UNL     2     -10.305  16.121  68.643  1.00  0.00    -0.252 C  
HETATM    5  H1  UNL     1      -6.550  16.391  66.626  1.00  0.00     0.000 HD 
HETATM    6  O   UNL     2      -9.812  15.038  67.820  1.00  0.00    -0.218 OA 
HETATM    7  H   UNL     2      -8.891  15.192  67.640  1.00  0.00     0.000 HD 
HETATM    8  O   UNL     1      -6.575  17.707  69.495  1.00  0.00    -0.234 OA 
ENDROOT
BRANCH   4   9
HETATM    9  C   UNL     2     -11.785  15.873  68.931  1.00  0.00    -0.370 C  
HETATM   10  O   UNL     2     -12.293  14.929  67.984  1.00  0.00    -0.563 OA 
HETATM   11  H   UNL     2     -13.213  14.774  68.163  1.00  0.00     0.000 HD 
ENDBRANCH   4   9
BRANCH   3  12
HETATM   12  C   UNL     1      -6.465  18.880  67.443  1.00  0.00    -0.195 A  
HETATM   13  C   UNL     1      -6.568  20.110  68.085  1.00  0.00    -0.292 A  
HETATM   14  C   UNL     1      -6.273  20.105  65.374  1.00  0.00    -0.268 A  
HETATM   15  C   UNL     1      -6.330  18.887  66.052  1.00  0.00    -0.236 A  
HETATM   16  C   UNL     1      -6.362  21.277  66.108  1.00  0.00    -0.145 A  
HETATM   17  N   UNL     1      -6.520  21.308  67.447  1.00  0.00    -0.494 NA 
ENDBRANCH   3  12
BRANCH   4  18
HETATM   18  C   UNL     2     -10.003  17.450  67.946  1.00  0.00    -0.301 C  
HETATM   19  O   UNL     2      -7.850  20.130  68.177  1.00  0.00    -0.264 OA 
HETATM   20  C   UNL     2      -8.454  19.110  67.907  1.00  0.00    -0.300 C  
HETATM   21  C   UNL     2      -9.257  17.419  66.670  1.00  0.00    -0.261 C  
HETATM   22  O   UNL     2      -7.642  18.805  65.535  1.00  0.00    -0.476 OA 
HETATM   23  O   UNL     2      -9.260  18.389  68.744  1.00  0.00    -0.314 OA 
HETATM   24  H   UNL     2      -7.606  18.365  64.694  1.00  0.00     0.000 HD 
HETATM   25  O   UNL     2      -9.532  16.516  65.684  1.00  0.00    -0.497 OA 
HETATM   26  C   UNL     2      -8.400  18.428  66.606  1.00  0.00    -0.265 C  
HETATM   27  H   UNL     2      -9.052  16.496  64.864  1.00  0.00     0.000 HD 
ENDBRANCH   4  18
TORSDOF 3
ENDMDL
MODEL      168
REMARK 921   NORMALIZED FREE ENERGY PREDICTED BY IDOCK:   26.56 KCAL/MOL
REMARK 922        TOTAL FREE ENERGY PREDICTED BY IDOCK:   30.10 KCAL/MOL
REMARK 923 INTER-LIGAND FREE ENERGY PREDICTED BY IDOCK:   28.07 KCAL/MOL
REMARK 924 INTRA-LIGAND FREE ENERGY PREDICTED BY IDOCK:    2.03 KCAL/MOL
REMARK 927      BINDING AFFINITY PREDICTED BY RF-SCORE:    0.00 PKD
ROOT
HETATM    1  N   UNL     1      -9.584   8.378  64.606  1.00  0.00     0.656 N  
HETATM    2  H2  UNL     1     -10.443   8.192  64.090  1.00  0.00     0.000 HD 
HETATM    3  C   UNL     1      -8.754   7.348  64.952  1.00  0.00     0.278 C  
HETATM    4  C   UNL     2     -12.187   7.136  67.170  1.00  0.00     4.670 C  
HETATM    5  H1  UNL     1      -9.340   9.334  64.867  1.00  0.00     0.000 HD 
HETATM    6  O   UNL     2     -12.550   8.363  66.495  1.00  0.00     8.000 OA 
HETATM    7  H   UNL     2     -11.862   8.579  65.875  1.00  0.00     0.000 HD 
HETATM    8  O   UNL     1      -9.046   6.199  64.639  1.00  0.00     0.343 OA 
ENDROOT
BRANCH   4   9
HETATM    9  C   UNL     2     -13.292   6.788  68.167  1.00  0.00    13.350 C  
HETATM   10  O   UNL     2     -13.126   7.585  69.344  1.00  0.00     2.586 OA 
HETATM   11  H   UNL     2     -13.814   7.370  69.964  1.00  0.00     0.000 HD 
ENDBRANCH   4   9
BRANCH   3  12
HETATM   12  C   UNL     1      -7.546   7.646  65.760  1.00  0.00    -0.088 A  
HETATM   13  C   UNL     1      -7.005   8.926  65.683  1.00  0.00    -0.080 A  
HETATM   14  C   UNL     1      -5.773   7.114  67.307  1.00  0.00    -0.025 A  
HETATM   15  C   UNL     1      -6.899   6.721  66.583  1.00  0.00    -0.061 A  
HETATM   16  C   UNL     1      -5.325   8.419  67.179  1.00  0.00    -0.037 A  
HETATM   17  N   UNL     1      -5.908   9.331  66.374  1.00  0.00    -0.057 NA 
ENDBRANCH   3  12
BRANCH   4  18
HETATM   18  C   UNL     2     -10.797   7.304  67.790  1.00  0.00    -0.144 C  
HETATM   19  O   UNL     2      -8.447   9.750  68.392  1.00  0.00    -0.112 OA 
HETATM   20  C   UNL     2      -9.333   8.918  68.426  1.00  0.00    -0.136 C  
HETATM   21  C   UNL     2     -10.687   7.338  69.265  1.00  0.00    -0.198 C  
HETATM   22  O   UNL     2      -9.308   8.442  70.907  1.00  0.00    -0.152 OA 
HETATM   23  O   UNL     2     -10.097   8.491  67.376  1.00  0.00    -0.194 OA 
HETATM   24  H   UNL     2      -9.597   7.996  71.694  1.00  0.00     0.000 HD 
HETATM   25  O   UNL     2     -11.370   6.473  70.069  1.00  0.00    -0.352 OA 
HETATM   26  C   UNL     2      -9.781   8.227  69.644  1.00  0.00    -0.173 C  
HETATM   27  H   UNL     2     -11.299   6.495  71.017  1.00  0.00     0.000 HD 
ENDBRANCH   4  18
TORSDOF 3
ENDMDL
MODEL      169
REMARK 921   NORMALIZED FREE ENERGY PREDICTED BY IDOCK:   26.70 KCAL/MOL
REMARK 922        TOTAL FREE ENERGY PREDICTED BY IDOCK:   30.26 KCAL/MOL
REMARK 923 INTER-LIGAND FREE ENERGY PREDICTED BY IDOCK:   -4.75 KCAL/MOL
REMARK 924 INTRA-LIGAND FREE ENERGY PREDICTED BY IDOCK:   35.01 KCAL/MOL
REMARK 927      BINDING AFFINITY PREDICTED BY RF-SCORE:    0.00 PKD
ROOT
HETATM    1  N   UNL     1      -9.089  16.415  69.819  1.00  0.00     0.305 N  
HETATM    2  H2  UNL     1      -9.245  15.512  70.265  1.00  0.00     0.000 HD 
HETATM    3  C   UNL     1     -10.120  17.055  69.186  1.00  0.00    -0.259 C  
HETATM    4  C   UNL     2      -9.029  13.756  67.022  1.00  0.00    -0.238 C  
HETATM    5  H1  UNL     1      -8.165  16.845  69.842  1.00  0.00     0.000 HD 
HETATM    6  O   UNL     2      -7.998  13.595  68.024  1.00  0.00    -0.128 OA 
HETATM    7  H   UNL     2      -8.102  14.280  68.675  1.00  0.00     0.000 HD 
HETATM    8  O   UNL     1     -11.231  16.539  69.158  1.00  0.00    -0.295 OA 
ENDROOT
BRANCH   4   9
HETATM    9  C   UNL     2      -8.861  12.656  65.975  1.00  0.00     0.320 C  
HETATM   10  O   UNL     2      -9.482  11.459  66.452  1.00  0.00    -0.193 OA 
HETATM   11  H   UNL     2      -9.378  10.775  65.800  1.00  0.00     0.000 HD 
ENDBRANCH   4   9
BRANCH   3  12
HETATM   12  C   UNL     1      -9.844  18.336  68.491  1.00  0.00    -0.400 A  
HETATM   13  C   UNL     1      -8.672  19.016  68.808  1.00  0.00    -0.316 A  
HETATM   14  C   UNL     1     -10.326  20.125  66.946  1.00  0.00    -0.503 A  
HETATM   15  C   UNL     1     -10.692  18.920  67.547  1.00  0.00    -0.509 A  
HETATM   16  C   UNL     1      -9.127  20.712  67.316  1.00  0.00    -0.275 A  
HETATM   17  N   UNL     1      -8.296  20.192  68.242  1.00  0.00    -0.125 NA 
ENDBRANCH   3  12
BRANCH   4  18
HETATM   18  C   UNL     2      -8.964  15.182  66.468  1.00  0.00    -0.291 C  
HETATM   19  O   UNL     2     -10.528  18.231  66.819  1.00  0.00    -0.371 OA 
HETATM   20  C   UNL     2      -9.797  17.260  66.843  1.00  0.00    -0.287 C  
HETATM   21  C   UNL     2      -7.894  16.077  66.961  1.00  0.00    -0.228 C  
HETATM   22  O   UNL     2      -7.634  18.431  67.417  1.00  0.00    -0.216 OA 
HETATM   23  O   UNL     2     -10.162  15.955  66.662  1.00  0.00    -0.271 OA 
HETATM   24  H   UNL     2      -6.700  18.464  67.591  1.00  0.00     0.000 HD 
HETATM   25  O   UNL     2      -6.604  15.659  67.114  1.00  0.00    -0.269 OA 
HETATM   26  C   UNL     2      -8.353  17.311  67.114  1.00  0.00    -0.201 C  
HETATM   27  H   UNL     2      -5.917  16.235  67.431  1.00  0.00     0.000 HD 
ENDBRANCH   4  18
TORSDOF 3
ENDMDL
MODEL      170
REMARK 921   NORMALIZED FREE ENERGY PREDICTED BY IDOCK:   27.61 KCAL/MOL
REMARK 922        TOTAL FREE ENERGY PREDICTED BY IDOCK:   31.34 KCAL/MOL
REMARK 923 INTER-LIGAND FREE ENERGY PREDICTED BY IDOCK:   -4.92 KCAL/MOL
REMARK 924 INTRA-LIGAND FREE ENERGY PREDICTED BY IDOCK:   36.26 KCAL/MOL
REMARK 927      BINDING AFFINITY PREDICTED BY RF-SCORE:    0.00 PKD
ROOT
HETATM    1  N   UNL     1      -9.273  19.739  65.895  1.00  0.00    -0.304 N  
HETATM    2  H2  UNL     1      -9.745  19.623  64.998  1.00  0.00     0.000 HD 
HETATM    3  C   UNL     1      -7.936  19.473  66.007  1.00  0.00    -0.303 C  
HETATM    4  C   UNL     2      -9.985  15.969  65.482  1.00  0.00    -0.247 C  
HETATM    5  H1  UNL     1      -9.797  20.054  66.711  1.00  0.00     0.000 HD 
HETATM    6  O   UNL     2     -11.167  16.801  65.514  1.00  0.00     0.029 OA 
HETATM    7  H   UNL     2     -10.895  17.708  65.600  1.00  0.00     0.000 HD 
HETATM    8  O   UNL     1      -7.307  19.095  65.026  1.00  0.00    -0.250 OA 
ENDROOT
BRANCH   4   9
HETATM    9  C   UNL     2     -10.424  14.511  65.344  1.00  0.00    -0.380 C  
HETATM   10  O   UNL     2      -9.595  13.694  66.177  1.00  0.00    -0.371 OA 
HETATM   11  H   UNL     2      -9.868  12.788  66.092  1.00  0.00     0.000 HD 
ENDBRANCH   4   9
BRANCH   3  12
HETATM   12  C   UNL     1      -7.296  19.589  67.340  1.00  0.00    -0.261 A  
HETATM   13  C   UNL     1      -8.091  19.960  68.420  1.00  0.00    -0.204 A  
HETATM   14  C   UNL     1      -5.444  19.497  68.883  1.00  0.00    -0.220 A  
HETATM   15  C   UNL     1      -5.938  19.369  67.584  1.00  0.00    -0.209 A  
HETATM   16  C   UNL     1      -6.323  19.850  69.895  1.00  0.00    -0.360 A  
HETATM   17  N   UNL     1      -7.633  20.096  69.691  1.00  0.00     0.197 NA 
ENDBRANCH   3  12
BRANCH   4  18
HETATM   18  C   UNL     2      -9.136  16.266  66.721  1.00  0.00    -0.232 C  
HETATM   19  O   UNL     2      -6.209  17.857  67.603  1.00  0.00    -0.159 OA 
HETATM   20  C   UNL     2      -7.353  17.507  67.381  1.00  0.00    -0.180 C  
HETATM   21  C   UNL     2      -9.577  17.346  67.630  1.00  0.00    -0.261 C  
HETATM   22  O   UNL     2      -8.534  19.005  69.036  1.00  0.00    -0.287 OA 
HETATM   23  O   UNL     2      -7.766  16.605  66.440  1.00  0.00    -0.280 OA 
HETATM   24  H   UNL     2      -9.298  19.344  69.487  1.00  0.00     0.000 HD 
HETATM   25  O   UNL     2     -10.880  17.499  68.005  1.00  0.00    -0.378 OA 
HETATM   26  C   UNL     2      -8.535  18.032  68.079  1.00  0.00    -0.261 C  
HETATM   27  H   UNL     2     -11.163  18.193  68.590  1.00  0.00     0.000 HD 
ENDBRANCH   4  18
TORSDOF 3
ENDMDL
MODEL      171
REMARK 921   NORMALIZED FREE ENERGY PREDICTED BY IDOCK:   28.56 KCAL/MOL
REMARK 922        TOTAL FREE ENERGY PREDICTED BY IDOCK:   32.45 KCAL/MOL
REMARK 923 INTER-LIGAND FREE ENERGY PREDICTED BY IDOCK:   -3.79 KCAL/MOL
REMARK 924 INTRA-LIGAND FREE ENERGY PREDICTED BY IDOCK:   36.23 KCAL/MOL
REMARK 927      BINDING AFFINITY PREDICTED BY RF-SCORE:    0.00 PKD
ROOT
HETATM    1  N   UNL     1     -10.870  10.246  68.328  1.00  0.00    -0.237 N  
HETATM    2  H2  UNL     1     -11.830   9.914  68.240  1.00  0.00     0.000 HD 
HETATM    3  C   UNL     1      -9.872   9.661  67.599  1.00  0.00    -0.164 C  
HETATM    4  C   UNL     2     -11.158   7.059  70.485  1.00  0.00    -0.280 C  
HETATM    5  H1  UNL     1     -10.651  11.016  68.960  1.00  0.00     0.000 HD 
HETATM    6  O   UNL     2     -12.021   8.143  70.901  1.00  0.00    -0.393 OA 
HETATM    7  H   UNL     2     -11.895   8.873  70.305  1.00  0.00     0.000 HD 
HETATM    8  O   UNL     1     -10.135   8.736  66.839  1.00  0.00    -0.226 OA 
ENDROOT
BRANCH   4   9
HETATM    9  C   UNL     2     -11.360   5.886  71.444  1.00  0.00    -0.178 C  
HETATM   10  O   UNL     2     -12.560   6.099  72.194  1.00  0.00    -0.428 OA 
HETATM   11  H   UNL     2     -12.687   5.370  72.790  1.00  0.00     0.000 HD 
ENDBRANCH   4   9
BRANCH   3  12
HETATM   12  C   UNL     1      -8.477  10.124  67.800  1.00  0.00    -0.114 A  
HETATM   13  C   UNL     1      -7.465   9.489  67.088  1.00  0.00    -0.091 A  
HETATM   14  C   UNL     1      -6.761  11.510  68.776  1.00  0.00    -0.079 A  
HETATM   15  C   UNL     1      -8.105  11.148  68.674  1.00  0.00    -0.150 A  
HETATM   16  C   UNL     1      -5.831  10.829  68.007  1.00  0.00    -0.042 A  
HETATM   17  N   UNL     1      -6.150   9.818  67.174  1.00  0.00    -0.058 NA 
ENDBRANCH   3  12
BRANCH   4  18
HETATM   18  C   UNL     2      -9.719   7.575  70.403  1.00  0.00    -0.179 C  
HETATM   19  O   UNL     2      -7.442   8.701  68.075  1.00  0.00    -0.093 OA 
HETATM   20  C   UNL     2      -8.276   8.552  68.947  1.00  0.00    -0.117 C  
HETATM   21  C   UNL     2      -9.450   8.971  70.813  1.00  0.00    -0.251 C  
HETATM   22  O   UNL     2      -7.957  10.747  70.156  1.00  0.00    -0.342 OA 
HETATM   23  O   UNL     2      -9.128   7.493  69.093  1.00  0.00    -0.139 OA 
HETATM   24  H   UNL     2      -8.135  11.377  70.844  1.00  0.00     0.000 HD 
HETATM   25  O   UNL     2      -9.997   9.521  71.935  1.00  0.00    -0.009 OA 
HETATM   26  C   UNL     2      -8.553   9.527  70.012  1.00  0.00    -0.215 C  
HETATM   27  H   UNL     2      -9.824  10.418  72.199  1.00  0.00     0.000 HD 
ENDBRANCH   4  18
TORSDOF 3
ENDMDL
MODEL      172
REMARK 921   NORMALIZED FREE ENERGY PREDICTED BY IDOCK:   28.98 KCAL/MOL
REMARK 922        TOTAL FREE ENERGY PREDICTED BY IDOCK:   32.95 KCAL/MOL
REMARK 923 INTER-LIGAND FREE ENERGY PREDICTED BY IDOCK:   -2.54 KCAL/MOL
REMARK 924 INTRA-LIGAND FREE ENERGY PREDICTED BY IDOCK:   35.49 KCAL/MOL
REMARK 927      BINDING AFFINITY PREDICTED BY RF-SCORE:    0.00 PKD
ROOT
HETATM    1  N   UNL     1     -13.104  15.155  66.874  1.00  0.00     1.644 N  
HETATM    2  H2  UNL     1     -13.944  14.587  66.985  1.00  0.00     0.000 HD 
HETATM    3  C   UNL     1     -11.971  14.606  66.340  1.00  0.00    -0.261 C  
HETATM    4  C   UNL     2     -12.617  13.046  70.069  1.00  0.00     0.090 C  
HETATM    5  H1  UNL     1     -13.106  16.134  67.160  1.00  0.00     0.000 HD 
HETATM    6  O   UNL     2     -13.741  13.956  70.117  1.00  0.00     0.382 OA 
HETATM    7  H   UNL     2     -13.791  14.416  69.287  1.00  0.00     0.000 HD 
HETATM    8  O   UNL     1     -11.968  13.430  65.996  1.00  0.00    -0.372 OA 
ENDROOT
BRANCH   4   9
HETATM    9  C   UNL     2     -12.536  12.307  71.404  1.00  0.00    -0.198 C  
HETATM   10  O   UNL     2     -12.676  10.902  71.169  1.00  0.00    -0.370 OA 
HETATM   11  H   UNL     2     -12.625  10.443  71.999  1.00  0.00     0.000 HD 
ENDBRANCH   4   9
BRANCH   3  12
HETATM   12  C   UNL     1     -10.748  15.441  66.253  1.00  0.00    -0.312 A  
HETATM   13  C   UNL     1     -10.899  16.823  66.203  1.00  0.00    -0.006 A  
HETATM   14  C   UNL     1      -8.368  15.812  66.128  1.00  0.00     0.006 A  
HETATM   15  C   UNL     1      -9.448  14.932  66.198  1.00  0.00    -0.328 A  
HETATM   16  C   UNL     1      -8.623  17.174  66.105  1.00  0.00    -0.187 A  
HETATM   17  N   UNL     1      -9.864  17.700  66.129  1.00  0.00    -0.479 NA 
ENDBRANCH   3  12
BRANCH   4  18
HETATM   18  C   UNL     2     -11.358  13.832  69.696  1.00  0.00    -0.178 C  
HETATM   19  O   UNL     2      -9.275  14.370  67.005  1.00  0.00    -0.214 OA 
HETATM   20  C   UNL     2     -10.108  14.407  67.890  1.00  0.00    -0.228 C  
HETATM   21  C   UNL     2     -11.490  15.280  69.426  1.00  0.00    -0.315 C  
HETATM   22  O   UNL     2     -10.458  16.907  67.975  1.00  0.00    -0.316 OA 
HETATM   23  O   UNL     2     -10.666  13.338  68.535  1.00  0.00    -0.250 OA 
HETATM   24  H   UNL     2     -10.845  17.704  68.317  1.00  0.00     0.000 HD 
HETATM   25  O   UNL     2     -12.246  16.104  70.209  1.00  0.00    -0.379 OA 
HETATM   26  C   UNL     2     -10.707  15.640  68.419  1.00  0.00    -0.271 C  
HETATM   27  H   UNL     2     -12.330  17.035  70.036  1.00  0.00     0.000 HD 
ENDBRANCH   4  18
TORSDOF 3
ENDMDL
MODEL      173
REMARK 921   NORMALIZED FREE ENERGY PREDICTED BY IDOCK:   32.70 KCAL/MOL
REMARK 922        TOTAL FREE ENERGY PREDICTED BY IDOCK:   37.32 KCAL/MOL
REMARK 923 INTER-LIGAND FREE ENERGY PREDICTED BY IDOCK:   -3.40 KCAL/MOL
REMARK 924 INTRA-LIGAND FREE ENERGY PREDICTED BY IDOCK:   40.72 KCAL/MOL
REMARK 927      BINDING AFFINITY PREDICTED BY RF-SCORE:    0.00 PKD
ROOT
HETATM    1  N   UNL     1      -6.577  13.537  67.579  1.00  0.00    -0.197 N  
HETATM    2  H2  UNL     1      -6.678  12.572  67.893  1.00  0.00     0.000 HD 
HETATM    3  C   UNL     1      -6.326  14.530  68.484  1.00  0.00    -0.088 C  
HETATM    4  C   UNL     2     -10.159  13.180  68.970  1.00  0.00     0.164 C  
HETATM    5  H1  UNL     1      -6.663  13.764  66.588  1.00  0.00     0.000 HD 
HETATM    6  O   UNL     2      -9.870  12.332  67.834  1.00  0.00    -0.189 OA 
HETATM    7  H   UNL     2      -8.967  12.475  67.574  1.00  0.00     0.000 HD 
HETATM    8  O   UNL     1      -6.222  14.257  69.675  1.00  0.00    -0.110 OA 
ENDROOT
BRANCH   4   9
HETATM    9  C   UNL     2     -11.611  12.950  69.388  1.00  0.00    -0.302 C  
HETATM   10  O   UNL     2     -12.383  12.620  68.229  1.00  0.00    -0.085 OA 
HETATM   11  H   UNL     2     -13.286  12.477  68.488  1.00  0.00     0.000 HD 
ENDBRANCH   4   9
BRANCH   3  12
HETATM   12  C   UNL     1      -6.250  15.931  68.002  1.00  0.00    -0.143 A  
HETATM   13  C   UNL     1      -6.949  16.906  68.706  1.00  0.00    -0.204 A  
HETATM   14  C   UNL     1      -5.524  17.688  66.517  1.00  0.00    -0.222 A  
HETATM   15  C   UNL     1      -5.535  16.339  66.873  1.00  0.00     0.164 A  
HETATM   16  C   UNL     1      -6.236  18.585  67.297  1.00  0.00    -0.174 A  
HETATM   17  N   UNL     1      -6.959  18.224  68.376  1.00  0.00    -0.237 NA 
ENDBRANCH   3  12
BRANCH   4  18
HETATM   18  C   UNL     2      -9.820  14.628  68.607  1.00  0.00    -0.224 C  
HETATM   19  O   UNL     2      -7.567  17.103  69.425  1.00  0.00    -0.106 OA 
HETATM   20  C   UNL     2      -8.213  16.198  68.931  1.00  0.00    -0.229 C  
HETATM   21  C   UNL     2      -9.095  14.882  67.343  1.00  0.00    -0.189 C  
HETATM   22  O   UNL     2      -7.448  16.449  66.537  1.00  0.00    -0.245 OA 
HETATM   23  O   UNL     2      -9.031  15.322  69.589  1.00  0.00    -0.232 OA 
HETATM   24  H   UNL     2      -7.442  16.224  65.615  1.00  0.00     0.000 HD 
HETATM   25  O   UNL     2      -9.417  14.253  66.176  1.00  0.00    -0.396 OA 
HETATM   26  C   UNL     2      -8.203  15.849  67.503  1.00  0.00    -0.159 C  
HETATM   27  H   UNL     2      -8.952  14.416  65.363  1.00  0.00     0.000 HD 
ENDBRANCH   4  18
TORSDOF 3
ENDMDL
MODEL      174
REMARK 921   NORMALIZED FREE ENERGY PREDICTED BY IDOCK:   32.94 KCAL/MOL
REMARK 922        TOTAL FREE ENERGY PREDICTED BY IDOCK:   37.60 KCAL/MOL
REMARK 923 INTER-LIGAND FREE ENERGY PREDICTED BY IDOCK:   32.96 KCAL/MOL
REMARK 924 INTRA-LIGAND FREE ENERGY PREDICTED BY IDOCK:    4.64 KCAL/MOL
REMARK 927      BINDING AFFINITY PREDICTED BY RF-SCORE:    0.00 PKD
ROOT
HETATM    1  N   UNL     1     -13.354  15.181  68.797  1.00  0.00     1.705 N  
HETATM    2  H2  UNL     1     -13.868  14.536  68.197  1.00  0.00     0.000 HD 
HETATM    3  C   UNL     1     -11.992  15.264  68.707  1.00  0.00    -0.251 C  
HETATM    4  C   UNL     2     -13.033  11.678  70.384  1.00  0.00     0.241 C  
HETATM    5  H1  UNL     1     -13.854  15.767  69.465  1.00  0.00     0.000 HD 
HETATM    6  O   UNL     2     -14.390  12.173  70.294  1.00  0.00     4.878 OA 
HETATM    7  H   UNL     2     -14.371  13.027  69.877  1.00  0.00     0.000 HD 
HETATM    8  O   UNL     1     -11.391  14.560  67.903  1.00  0.00    -0.281 OA 
ENDROOT
BRANCH   4   9
HETATM    9  C   UNL     2     -13.064  10.305  71.054  1.00  0.00    -0.373 C  
HETATM   10  O   UNL     2     -11.828   9.632  70.794  1.00  0.00    -0.283 OA 
HETATM   11  H   UNL     2     -11.846   8.778  71.211  1.00  0.00     0.000 HD 
ENDBRANCH   4   9
BRANCH   3  12
HETATM   12  C   UNL     1     -11.270  16.164  69.639  1.00  0.00    -0.331 A  
HETATM   13  C   UNL     1     -12.005  16.818  70.622  1.00  0.00     1.262 A  
HETATM   14  C   UNL     1      -9.320  17.276  70.521  1.00  0.00     3.353 A  
HETATM   15  C   UNL     1      -9.897  16.417  69.585  1.00  0.00    -0.028 A  
HETATM   16  C   UNL     1     -10.136  17.862  71.475  1.00  0.00     4.890 A  
HETATM   17  N   UNL     1     -11.468  17.662  71.540  1.00  0.00     2.013 NA 
ENDBRANCH   3  12
BRANCH   4  18
HETATM   18  C   UNL     2     -12.172  12.721  71.101  1.00  0.00     0.003 C  
HETATM   19  O   UNL     2     -12.466  15.790  72.638  1.00  0.00    -0.371 OA 
HETATM   20  C   UNL     2     -12.361  14.617  72.334  1.00  0.00    -0.272 C  
HETATM   21  C   UNL     2     -11.776  12.458  72.502  1.00  0.00     5.106 C  
HETATM   22  O   UNL     2     -11.385  13.754  74.498  1.00  0.00     2.614 OA 
HETATM   23  O   UNL     2     -12.750  14.037  71.159  1.00  0.00    -0.326 OA 
HETATM   24  H   UNL     2     -11.031  13.081  75.067  1.00  0.00     0.000 HD 
HETATM   25  O   UNL     2     -11.337  11.236  72.921  1.00  0.00     6.261 OA 
HETATM   26  C   UNL     2     -11.812  13.575  73.214  1.00  0.00     3.153 C  
HETATM   27  H   UNL     2     -11.082  11.067  73.821  1.00  0.00     0.000 HD 
ENDBRANCH   4  18
TORSDOF 3
ENDMDL
MODEL      175
REMARK 921   NORMALIZED FREE ENERGY PREDICTED BY IDOCK:   37.05 KCAL/MOL
REMARK 922        TOTAL FREE ENERGY PREDICTED BY IDOCK:   42.44 KCAL/MOL
REMARK 923 INTER-LIGAND FREE ENERGY PREDICTED BY IDOCK:   -2.88 KCAL/MOL
REMARK 924 INTRA-LIGAND FREE ENERGY PREDICTED BY IDOCK:   45.31 KCAL/MOL
REMARK 927      BINDING AFFINITY PREDICTED BY RF-SCORE:    0.00 PKD
ROOT
HETATM    1  N   UNL     1      -6.507  13.472  67.155  1.00  0.00    -0.062 N  
HETATM    2  H2  UNL     1      -6.219  12.510  66.979  1.00  0.00     0.000 HD 
HETATM    3  C   UNL     1      -6.667  13.917  68.438  1.00  0.00    -0.099 C  
HETATM    4  C   UNL     2      -9.656  11.273  67.529  1.00  0.00    -0.170 C  
HETATM    5  H1  UNL     1      -6.677  14.106  66.374  1.00  0.00     0.000 HD 
HETATM    6  O   UNL     2      -9.058  11.243  66.212  1.00  0.00    -0.187 OA 
HETATM    7  H   UNL     2      -8.285  11.796  66.221  1.00  0.00     0.000 HD 
HETATM    8  O   UNL     1      -6.463  13.156  69.376  1.00  0.00    -0.108 OA 
ENDROOT
BRANCH   4   9
HETATM    9  C   UNL     2     -10.899  10.384  67.515  1.00  0.00    -0.301 C  
HETATM   10  O   UNL     2     -11.484  10.421  66.210  1.00  0.00     0.315 OA 
HETATM   11  H   UNL     2     -12.257   9.868  66.201  1.00  0.00     0.000 HD 
ENDBRANCH   4   9
BRANCH   3  12
HETATM   12  C   UNL     1      -7.150  15.303  68.657  1.00  0.00    -0.116 A  
HETATM   13  C   UNL     1      -8.524  15.517  68.716  1.00  0.00    -0.190 A  
HETATM   14  C   UNL     1      -6.882  17.675  69.004  1.00  0.00    -0.240 A  
HETATM   15  C   UNL     1      -6.318  16.417  68.790  1.00  0.00    -0.135 A  
HETATM   16  C   UNL     1      -8.262  17.780  69.068  1.00  0.00    -0.040 A  
HETATM   17  N   UNL     1      -9.097  16.732  68.917  1.00  0.00    -0.251 NA 
ENDBRANCH   3  12
BRANCH   4  18
HETATM   18  C   UNL     2      -9.916  12.729  67.923  1.00  0.00    -0.229 C  
HETATM   19  O   UNL     2      -8.433  15.304  69.668  1.00  0.00    -0.233 OA 
HETATM   20  C   UNL     2      -8.871  14.520  68.847  1.00  0.00    -0.103 C  
HETATM   21  C   UNL     2      -9.708  13.779  66.902  1.00  0.00    -0.265 C  
HETATM   22  O   UNL     2      -8.954  16.069  66.853  1.00  0.00    -0.200 OA 
HETATM   23  O   UNL     2      -9.141  13.194  69.042  1.00  0.00     0.224 OA 
HETATM   24  H   UNL     2      -9.143  16.288  65.949  1.00  0.00     0.000 HD 
HETATM   25  O   UNL     2     -10.137  13.641  65.613  1.00  0.00    -0.293 OA 
HETATM   26  C   UNL     2      -9.165  14.858  67.446  1.00  0.00    -0.194 C  
HETATM   27  H   UNL     2     -10.004  14.316  64.958  1.00  0.00     0.000 HD 
ENDBRANCH   4  18
TORSDOF 3
ENDMDL
MODEL      176
REMARK 921   NORMALIZED FREE ENERGY PREDICTED BY IDOCK:   47.81 KCAL/MOL
REMARK 922        TOTAL FREE ENERGY PREDICTED BY IDOCK:   55.08 KCAL/MOL
REMARK 923 INTER-LIGAND FREE ENERGY PREDICTED BY IDOCK:   55.56 KCAL/MOL
REMARK 924 INTRA-LIGAND FREE ENERGY PREDICTED BY IDOCK:   -0.48 KCAL/MOL
REMARK 927      BINDING AFFINITY PREDICTED BY RF-SCORE:    0.00 PKD
ROOT
HETATM    1  N   UNL     1      -9.366  12.927  72.678  1.00  0.00    18.565 N  
HETATM    2  H2  UNL     1      -8.358  12.779  72.718  1.00  0.00     0.000 HD 
HETATM    3  C   UNL     1     -10.218  11.858  72.720  1.00  0.00    18.740 C  
HETATM    4  C   UNL     2      -8.243  11.886  69.135  1.00  0.00     0.347 C  
HETATM    5  H1  UNL     1      -9.743  13.872  72.606  1.00  0.00     0.000 HD 
HETATM    6  O   UNL     2      -7.653  13.118  69.613  1.00  0.00    -0.069 OA 
HETATM    7  H   UNL     2      -7.973  13.282  70.493  1.00  0.00     0.000 HD 
HETATM    8  O   UNL     1      -9.766  10.722  72.807  1.00  0.00     9.728 OA 
ENDROOT
BRANCH   4   9
HETATM    9  C   UNL     2      -7.730  11.621  67.720  1.00  0.00    -0.126 C  
HETATM   10  O   UNL     2      -8.726  10.898  66.991  1.00  0.00    -0.138 OA 
HETATM   11  H   UNL     2      -8.407  10.734  66.110  1.00  0.00     0.000 HD 
ENDBRANCH   4   9
BRANCH   3  12
HETATM   12  C   UNL     1     -11.675  12.103  72.594  1.00  0.00     5.935 A  
HETATM   13  C   UNL     1     -12.486  11.045  72.193  1.00  0.00     0.527 A  
HETATM   14  C   UNL     1     -13.675  13.447  72.693  1.00  0.00    -0.512 A  
HETATM   15  C   UNL     1     -12.292  13.333  72.832  1.00  0.00     1.365 A  
HETATM   16  C   UNL     1     -14.397  12.328  72.310  1.00  0.00     0.856 A  
HETATM   17  N   UNL     1     -13.834  11.132  72.045  1.00  0.00     0.154 NA 
ENDBRANCH   3  12
BRANCH   4  18
HETATM   18  C   UNL     2      -9.766  11.987  69.254  1.00  0.00     0.562 C  
HETATM   19  O   UNL     2     -12.546  12.490  67.282  1.00  0.00     0.060 OA 
HETATM   20  C   UNL     2     -11.634  12.067  67.967  1.00  0.00    -0.342 C  
HETATM   21  C   UNL     2     -10.542  10.736  69.405  1.00  0.00    -0.221 C  
HETATM   22  O   UNL     2     -12.699   9.904  68.719  1.00  0.00     0.844 OA 
HETATM   23  O   UNL     2     -10.410  12.648  68.150  1.00  0.00    -0.220 OA 
HETATM   24  H   UNL     2     -12.723   9.086  69.202  1.00  0.00     0.000 HD 
HETATM   25  O   UNL     2     -10.152   9.730  70.240  1.00  0.00    -0.248 OA 
HETATM   26  C   UNL     2     -11.671  10.802  68.714  1.00  0.00    -0.245 C  
HETATM   27  H   UNL     2     -10.650   8.927  70.337  1.00  0.00     0.000 HD 
ENDBRANCH   4  18
TORSDOF 3
ENDMDL
